REMARK  Name = ZINC23379405
REMARK  9 active torsions:
REMARK  status: ('A' for Active; 'I' for Inactive)
REMARK    1  A    between atoms: C_1  and  O_2
REMARK    2  A    between atoms: O_2  and  C_3
REMARK    3  A    between atoms: C_5  and  O_29
REMARK    4  A    between atoms: C_8  and  C_9
REMARK    5  A    between atoms: C_18  and  C_26
REMARK    6  A    between atoms: C_19  and  N_25
REMARK    7  A    between atoms: C_20  and  C_21
REMARK    8  A    between atoms: C_20  and  C_23
REMARK    9  A    between atoms: O_29  and  C_30
REMARK                            x       y       z     vdW  Elec       q    Type
REMARK                         _______ _______ _______ _____ _____    ______ ____
ROOT
ATOM      1  C   UNL     1       0.002  -0.004   0.002  0.00  0.00    +0.070 C 
ATOM      2  C   UNL     1       0.611  -0.501  -1.311  0.00  0.00    +0.030 C 
ATOM      3  C   UNL     1      -0.024   0.160  -2.512  0.00  0.00    +0.009 C 
ATOM      4  C   UNL     1      -1.087  -0.729  -3.155  0.00  0.00    +0.005 C 
ATOM      5  C   UNL     1      -0.423  -2.046  -3.580  0.00  0.00    +0.027 C 
ATOM      6  C   UNL     1       0.114  -2.712  -2.340  0.00  0.00    -0.022 C 
ATOM      7  C   UNL     1       0.552  -2.000  -1.320  0.00  0.00    -0.029 C 
ATOM      8  C   UNL     1       0.970  -2.697  -0.075  0.00  0.00    +0.074 C 
ATOM      9  C   UNL     1       1.094  -1.988   1.075  0.00  0.00    +0.054 C 
ATOM     10  C   UNL     1       0.851  -0.511   1.168  0.00  0.00    +0.188 C 
ENDROOT
BRANCH   1  16
ATOM     11  C   UNL     1      -1.199   2.178   0.283  0.00  0.00    +0.127 A 
ATOM     12  C   UNL     1      -1.216   3.565   0.296  0.00  0.00    +0.092 A 
ATOM     13  C   UNL     1      -0.056   4.273   0.025  0.00  0.00    +0.137 A 
ATOM     14  C   UNL     1       1.122   3.592  -0.253  0.00  0.00    +0.060 A 
ATOM     15  C   UNL     1       1.138   2.210  -0.260  0.00  0.00    +0.026 A 
ATOM     16  C   UNL     1      -0.018   1.503   0.010  0.00  0.00    +0.002 A 
ATOM     17 BR   UNL     1       2.705   4.557  -0.624  0.00  0.00    -0.047 Br
BRANCH  11  19
ATOM     18  C   UNL     1      -3.515   2.242   0.816  0.00  0.00    +0.277 C 
ATOM     19  O   UNL     1      -2.337   1.482   0.543  0.00  0.00    -0.495 OA
ENDBRANCH  11  19
BRANCH  13  20
ATOM     20  O   UNL     1      -0.072   5.632   0.030  0.00  0.00    -0.494 OA
ATOM     21  C   UNL     1      -1.319   6.265   0.324  0.00  0.00    +0.277 C 
ENDBRANCH  13  20
ENDBRANCH   1  16
BRANCH   9  22
ATOM     22  N   UNL     1       1.457  -2.655   2.210  0.00  0.00    -0.358 N 
ATOM     23  H   UNL     1       1.566  -2.109   3.158  0.00  0.00    +0.142 HD
ATOM     24  H   UNL     1       1.641  -3.740   2.176  0.00  0.00    +0.142 HD
ENDBRANCH   9  22
BRANCH  10  25
ATOM     25  C   UNL     1       2.147   0.188   1.158  0.00  0.00    +0.091 C 
ATOM     26  N   UNL     1       3.147   0.727   1.151  0.00  0.00    -0.194 NA
ENDBRANCH  10  25
BRANCH  10  27
ATOM     27  C   UNL     1       0.157  -0.215   2.432  0.00  0.00    +0.091 C 
ATOM     28  N   UNL     1      -0.378   0.014   3.407  0.00  0.00    -0.194 NA
ENDBRANCH  10  27
BRANCH   8  29
ATOM     29  C   UNL     1       1.239  -4.103  -0.090  0.00  0.00    +0.101 C 
ATOM     30  N   UNL     1       1.453  -5.219  -0.102  0.00  0.00    -0.191 NA
ENDBRANCH   8  29
TORSDOF 7
