REMARK  Name = ZINC03017722
REMARK  4 active torsions:
REMARK  status: ('A' for Active; 'I' for Inactive)
REMARK    1  A    between atoms: C_4  and  C_7
REMARK    2  A    between atoms: C_10  and  C_33
REMARK    3  A    between atoms: C_18  and  C_20
REMARK    4  A    between atoms: C_20  and  N_21
REMARK                            x       y       z     vdW  Elec       q    Type
REMARK                         _______ _______ _______ _____ _____    ______ ____
ROOT
ATOM      1  C   UNL     1       3.711  -0.707  -0.038  0.00  0.00    +0.106 C 
ATOM      2  C   UNL     1       4.019  -1.178  -1.464  0.00  0.00    +0.058 C 
ATOM      3  C   UNL     1       2.874  -2.061  -1.976  0.00  0.00    +0.143 C 
ATOM      4  N   UNL     1       2.569  -3.072  -0.963  0.00  0.00    -0.225 N 
ATOM      5  C   UNL     1       2.928  -2.979   0.340  0.00  0.00    +0.193 A 
ATOM      6  N   UNL     1       2.501  -4.048   0.957  0.00  0.00    -0.299 N 
ATOM      7  C   UNL     1       1.865  -4.844   0.084  0.00  0.00    +0.220 A 
ATOM      8  N   UNL     1       1.885  -4.280  -1.103  0.00  0.00    -0.133 NA
ATOM      9  N   UNL     1       1.277  -6.075   0.388  0.00  0.00    -0.253 N 
ATOM     10  C   UNL     1       1.322  -6.551   1.648  0.00  0.00    +0.237 C 
ATOM     11  O   UNL     1       1.874  -5.911   2.519  0.00  0.00    -0.274 OA
ATOM     12  N   UNL     1       3.630  -1.887   0.844  0.00  0.00    -0.308 N 
ATOM     13  H   UNL     1       4.044  -1.901   1.722  0.00  0.00    +0.149 HD
ATOM     14  H   UNL     1       2.625  -4.238   1.900  0.00  0.00    +0.171 HD
ATOM     15  H   UNL     1       0.835  -6.587  -0.308  0.00  0.00    +0.158 HD
ENDROOT
BRANCH   3  16
ATOM     16  C   UNL     1       3.292  -2.736  -3.257  0.00  0.00    -0.023 A 
ATOM     17  C   UNL     1       4.387  -3.579  -3.268  0.00  0.00    +0.008 A 
ATOM     18  C   UNL     1       4.770  -4.199  -4.442  0.00  0.00    +0.038 A 
ATOM     19  C   UNL     1       4.057  -3.975  -5.608  0.00  0.00    +0.123 A 
ATOM     20  C   UNL     1       2.959  -3.131  -5.595  0.00  0.00    +0.038 A 
ATOM     21  C   UNL     1       2.575  -2.516  -4.418  0.00  0.00    +0.008 A 
ATOM     22  F   UNL     1       4.431  -4.580  -6.756  0.00  0.00    -0.205 F 
ENDBRANCH   3  16
BRANCH   1  26
ATOM     23  C   UNL     1      -0.017   1.378   0.010  0.00  0.00    +0.000 A 
ATOM     24  C   UNL     1       1.171   2.086   0.002  0.00  0.00    +0.000 A 
ATOM     25  C   UNL     1       2.377   1.411  -0.013  0.00  0.00    +0.005 A 
ATOM     26  C   UNL     1       2.396   0.029  -0.020  0.00  0.00    -0.027 A 
ATOM     27  C   UNL     1       1.208  -0.679  -0.012  0.00  0.00    +0.005 A 
ATOM     28  C   UNL     1       0.002  -0.004   0.002  0.00  0.00    +0.000 A 
ENDBRANCH   1  26
BRANCH  10  29
ATOM     29  C   UNL     1       0.687  -7.878   1.976  0.00  0.00    +0.213 C 
BRANCH  29  30
ATOM     30  N   UNL     1       0.871  -8.169   3.400  0.00  0.00    -0.225 N 
ATOM     31  C   UNL     1       1.926  -8.829   3.912  0.00  0.00    +0.254 C 
ATOM     32  O   UNL     1       2.861  -9.271   3.277  0.00  0.00    -0.270 OA
ATOM     33  C   UNL     1       1.755  -8.925   5.377  0.00  0.00    +0.049 A 
ATOM     34  C   UNL     1       2.502  -9.479   6.404  0.00  0.00    +0.014 A 
ATOM     35  C   UNL     1       2.045  -9.394   7.710  0.00  0.00    +0.001 A 
ATOM     36  C   UNL     1       0.850  -8.759   7.994  0.00  0.00    +0.001 A 
ATOM     37  C   UNL     1       0.092  -8.200   6.977  0.00  0.00    +0.014 A 
ATOM     38  C   UNL     1       0.537  -8.278   5.667  0.00  0.00    +0.049 A 
ATOM     39  C   UNL     1       0.011  -7.806   4.368  0.00  0.00    +0.254 C 
ATOM     40  O   UNL     1      -1.026  -7.196   4.203  0.00  0.00    -0.270 OA
ENDBRANCH  29  30
ENDBRANCH  10  29
TORSDOF 4
