REMARK  Name = ZINC03313185
REMARK  7 active torsions:
REMARK  status: ('A' for Active; 'I' for Inactive)
REMARK    1  A    between atoms: C_4  and  C_7
REMARK    2  A    between atoms: C_7  and  C_8
REMARK    3  A    between atoms: C_8  and  C_10
REMARK    4  A    between atoms: C_8  and  N_24
REMARK    5  A    between atoms: N_12  and  C_13
REMARK    6  A    between atoms: C_14  and  C_21
REMARK    7  A    between atoms: C_25  and  C_27
REMARK                            x       y       z     vdW  Elec       q    Type
REMARK                         _______ _______ _______ _____ _____    ______ ____
ROOT
ATOM      1  C   UNL     1       6.132  -0.704  -0.061  0.00  0.00    +0.164 C 
ENDROOT
BRANCH   1   2
ATOM      2  C   UNL     1       7.202   0.174   0.534  0.00  0.00    +0.238 C 
ATOM      3  O   UNL     1       6.923   1.285   0.933  0.00  0.00    -0.273 OA
ATOM      4  N   UNL     1       8.470  -0.275   0.624  0.00  0.00    -0.278 N 
ATOM      5  H   UNL     1       8.693  -1.164   0.305  0.00  0.00    +0.155 HD
BRANCH   4   6
ATOM      6  C   UNL     1       9.455   0.533   1.171  0.00  0.00    +0.084 A 
ATOM      7  C   UNL     1      10.798   0.250   1.352  0.00  0.00    +0.068 A 
ATOM      8  C   UNL     1      11.633   1.287   1.956  0.00  0.00    -0.023 A 
ATOM      9  C   UNL     1      10.988   2.421   2.284  0.00  0.00    -0.004 A 
ATOM     10  S   UNL     1       9.303   2.137   1.802  0.00  0.00    -0.077 S 
ATOM     11  C   UNL     1      11.911   3.437   2.901  0.00  0.00    +0.043 C 
ATOM     12  C   UNL     1      13.329   2.953   2.525  0.00  0.00    +0.010 C 
ATOM     13  C   UNL     1      13.106   1.439   2.340  0.00  0.00    +0.037 C 
BRANCH   7  14
ATOM     14  C   UNL     1      11.363  -1.042   0.949  0.00  0.00    +0.244 C 
ATOM     15  O   UNL     1      11.809  -1.188  -0.174  0.00  0.00    -0.270 OA
ATOM     16  N   UNL     1      11.388  -2.068   1.823  0.00  0.00    -0.325 N 
ATOM     17  H   UNL     1      11.033  -1.952   2.718  0.00  0.00    +0.145 HD
ATOM     18  H   UNL     1      11.762  -2.923   1.556  0.00  0.00    +0.145 HD
ENDBRANCH   7  14
ENDBRANCH   4   6
ENDBRANCH   1   2
BRANCH   1  19
ATOM     19  N   UNL     1       4.852   0.008  -0.045  0.00  0.00    -0.300 N 
ATOM     20  C   UNL     1       3.696  -0.685  -0.037  0.00  0.00    +0.245 C 
ATOM     21  O   UNL     1       3.715  -1.900  -0.044  0.00  0.00    -0.270 OA
ATOM     22  H   UNL     1       4.836   0.978  -0.039  0.00  0.00    +0.150 HD
BRANCH  20  23
ATOM     23  C   UNL     1       2.403   0.034  -0.021  0.00  0.00    +0.037 A 
ATOM     24  C   UNL     1       1.204  -0.681  -0.013  0.00  0.00    +0.013 A 
ATOM     25  C   UNL     1       0.002  -0.004   0.002  0.00  0.00    +0.001 A 
ATOM     26  C   UNL     1      -0.017   1.379   0.010  0.00  0.00    +0.000 A 
ATOM     27  C   UNL     1       1.168   2.094   0.002  0.00  0.00    +0.001 A 
ATOM     28  C   UNL     1       2.377   1.429  -0.013  0.00  0.00    +0.013 A 
ENDBRANCH  20  23
ENDBRANCH   1  19
BRANCH   1  29
ATOM     29  C   UNL     1       6.503  -1.054  -1.503  0.00  0.00    +0.067 C 
BRANCH  29  33
ATOM     30  C   UNL     1       3.653  -3.820  -3.076  0.00  0.00    +0.000 A 
ATOM     31  C   UNL     1       3.445  -2.460  -3.214  0.00  0.00    +0.000 A 
ATOM     32  C   UNL     1       4.368  -1.565  -2.705  0.00  0.00    +0.004 A 
ATOM     33  C   UNL     1       5.497  -2.030  -2.058  0.00  0.00    -0.045 A 
ATOM     34  C   UNL     1       5.707  -3.389  -1.924  0.00  0.00    +0.004 A 
ATOM     35  C   UNL     1       4.782  -4.284  -2.429  0.00  0.00    +0.000 A 
ENDBRANCH  29  33
ENDBRANCH   1  29
TORSDOF 7
