REMARK  Name = ZINC20240024
REMARK  11 active torsions:
REMARK  status: ('A' for Active; 'I' for Inactive)
REMARK    1  A    between atoms: C_1  and  C_2
REMARK    2  A    between atoms: C_3  and  S_9
REMARK    3  A    between atoms: C_4  and  C_8
REMARK    4  A    between atoms: S_9  and  N_12
REMARK    5  A    between atoms: N_12  and  C_13
REMARK    6  A    between atoms: N_12  and  C_28
REMARK    7  A    between atoms: C_13  and  C_14
REMARK    8  A    between atoms: N_16  and  C_17
REMARK    9  A    between atoms: C_31  and  C_34
REMARK   10  A    between atoms: C_34  and  C_35
REMARK   11  A    between atoms: C_34  and  C_36
REMARK                            x       y       z     vdW  Elec       q    Type
REMARK                         _______ _______ _______ _____ _____    ______ ____
ROOT
ATOM      1  N   UNL     1      -1.042   8.671  -0.663  0.00  0.00    -0.194 N 
ENDROOT
BRANCH   1   2
ATOM      2  C   UNL     1      -1.708   9.715  -0.017  0.00  0.00    +0.052 A 
ATOM      3  C   UNL     1      -1.146  10.985   0.017  0.00  0.00    +0.025 A 
ATOM      4  C   UNL     1      -1.810  12.015   0.653  0.00  0.00    +0.006 A 
ATOM      5  C   UNL     1      -3.028  11.782   1.264  0.00  0.00    -0.045 A 
ATOM      6  C   UNL     1      -3.588  10.518   1.237  0.00  0.00    +0.006 A 
ATOM      7  C   UNL     1      -2.932   9.484   0.598  0.00  0.00    +0.025 A 
BRANCH   5   8
ATOM      8  C   UNL     1      -3.747  12.908   1.962  0.00  0.00    +0.013 C 
ATOM      9  C   UNL     1      -2.867  13.456   3.087  0.00  0.00    +0.012 C 
ATOM     10  C   UNL     1      -4.043  14.024   0.957  0.00  0.00    +0.012 C 
ENDBRANCH   5   8
ENDBRANCH   1   2
BRANCH   1  11
ATOM     11  S   UNL     1       0.607   8.708  -0.811  0.00  0.00    +0.079 S 
ATOM     12  O   UNL     1       1.101   9.408   0.323  0.00  0.00    -0.150 OA
ATOM     13  O   UNL     1       1.016   7.384  -1.126  0.00  0.00    -0.150 OA
BRANCH  11  16
ATOM     14  C   UNL     1       0.116   8.092  -4.000  0.00  0.00    +0.067 C 
ATOM     15  C   UNL     1       0.747   9.370  -3.509  0.00  0.00    +0.060 A 
ATOM     16  C   UNL     1       0.982   9.699  -2.218  0.00  0.00    +0.151 A 
ATOM     17  C   UNL     1       1.582  10.962  -2.199  0.00  0.00    +0.087 A 
ATOM     18  N   UNL     1       1.698  11.379  -3.433  0.00  0.00    -0.177 NA
ATOM     19  N   UNL     1       1.174  10.393  -4.279  0.00  0.00    -0.280 N 
ATOM     20  H   UNL     1       1.071  10.338  -5.373  0.00  0.00    +0.189 HD
ATOM     21  C   UNL     1       2.021  11.713  -0.968  0.00  0.00    +0.069 C 
ENDBRANCH  11  16
ENDBRANCH   1  11
BRANCH   1  22
ATOM     22  C   UNL     1      -1.802   7.545  -1.210  0.00  0.00    +0.227 C 
BRANCH  22  23
ATOM     23  C   UNL     1      -2.026   6.518  -0.130  0.00  0.00    +0.233 C 
ATOM     24  O   UNL     1      -1.594   6.709   0.987  0.00  0.00    -0.274 OA
ATOM     25  N   UNL     1      -2.707   5.388  -0.405  0.00  0.00    -0.307 N 
ATOM     26  H   UNL     1      -3.099   5.215  -1.419  0.00  0.00    +0.149 HD
BRANCH  25  27
ATOM     27  C   UNL     1      -2.926   4.390   0.645  0.00  0.00    +0.103 C 
ATOM     28  C   UNL     1      -4.187   3.591   0.325  0.00  0.00    +0.027 C 
ATOM     29  C   UNL     1      -4.279   2.419   1.309  0.00  0.00    +0.007 C 
ATOM     30  C   UNL     1      -3.172   1.421   0.975  0.00  0.00    +0.035 C 
ATOM     31  C   UNL     1      -1.841   2.117   0.877  0.00  0.00    -0.042 A 
ATOM     32  C   UNL     1      -1.727   3.481   0.722  0.00  0.00    -0.024 A 
ATOM     33  C   UNL     1      -0.469   4.060   0.630  0.00  0.00    +0.006 A 
ATOM     34  C   UNL     1       0.668   3.282   0.702  0.00  0.00    +0.000 A 
ATOM     35  C   UNL     1       0.555   1.915   0.868  0.00  0.00    +0.000 A 
ATOM     36  C   UNL     1      -0.695   1.337   0.958  0.00  0.00    +0.004 A 
ENDBRANCH  25  27
ENDBRANCH  22  23
ENDBRANCH   1  22
TORSDOF 7
