REMARK  Name = ZINC43554471
REMARK  12 active torsions:
REMARK  status: ('A' for Active; 'I' for Inactive)
REMARK    1  A    between atoms: C_1  and  C_2
REMARK    2  A    between atoms: C_5  and  O_31
REMARK    3  A    between atoms: C_7  and  C_28
REMARK    4  A    between atoms: C_7  and  C_29
REMARK    5  A    between atoms: C_17  and  C_19
REMARK    6  A    between atoms: C_19  and  C_20
REMARK    7  A    between atoms: N_22  and  C_23
REMARK    8  A    between atoms: C_23  and  C_24
REMARK    9  A    between atoms: C_24  and  N_25
REMARK   10  A    between atoms: N_25  and  C_26
REMARK   11  A    between atoms: N_25  and  C_27
REMARK   12  A    between atoms: C_29  and  O_30
REMARK                            x       y       z     vdW  Elec       q    Type
REMARK                         _______ _______ _______ _____ _____    ______ ____
ROOT
ATOM      1  C   UNL     1       0.115   1.506  -0.019  0.00  0.00    +0.012 C 
ATOM      2  C   UNL     1       0.116  -0.030  -0.009  0.00  0.00    -0.019 C 
ATOM      3  C   UNL     1      -1.326  -0.518   0.066  0.00  0.00    +0.010 C 
ATOM      4  C   UNL     1      -1.978   0.039   1.333  0.00  0.00    +0.032 C 
ATOM      5  C   UNL     1      -1.232  -0.382   2.586  0.00  0.00    +0.123 C 
ATOM      6  C   UNL     1       0.274  -0.193   2.529  0.00  0.00    +0.021 C 
ATOM      7  C   UNL     1       0.890  -0.577   1.185  0.00  0.00    +0.011 C 
ATOM      8  C   UNL     1       0.936  -2.117   1.138  0.00  0.00    +0.049 C 
ATOM      9  C   UNL     1       1.032  -2.629  -0.254  0.00  0.00    +0.015 A 
ATOM     10  C   UNL     1       0.944  -1.924  -1.408  0.00  0.00    +0.058 A 
ATOM     11  N   UNL     1       1.037  -2.643  -2.521  0.00  0.00    -0.230 NA
ATOM     12  C   UNL     1       1.226  -3.945  -2.489  0.00  0.00    +0.156 A 
ATOM     13  S   UNL     1       1.287  -4.283  -0.839  0.00  0.00    -0.057 S 
ATOM     14  N   UNL     1       1.347  -4.824  -3.554  0.00  0.00    -0.338 N 
ATOM     15  C   UNL     1       0.783  -0.420  -1.332  0.00  0.00    +0.054 C 
ATOM     16  C   UNL     1       0.645   1.237   2.945  0.00  0.00    +0.016 C 
ATOM     17  H   UNL     1       1.293  -4.493  -4.464  0.00  0.00    +0.144 HD
ATOM     18  H   UNL     1       1.484  -5.770  -3.388  0.00  0.00    +0.144 HD
ENDROOT
BRANCH   5  19
ATOM     19  O   UNL     1      -1.547  -1.744   2.901  0.00  0.00    -0.391 OA
ATOM     20  H   UNL     1      -2.486  -1.903   3.064  0.00  0.00    +0.210 HD
ENDBRANCH   5  19
BRANCH  15  21
ATOM     21  C   UNL     1      -0.028   0.093  -2.519  0.00  0.00    +0.106 C 
BRANCH  21  22
ATOM     22  C   UNL     1       0.715  -0.198  -3.797  0.00  0.00    +0.214 C 
ATOM     23  O   UNL     1       1.788  -0.761  -3.761  0.00  0.00    -0.276 OA
ATOM     24  N   UNL     1       0.185   0.168  -4.982  0.00  0.00    -0.317 N 
ATOM     25  H   UNL     1      -0.673   0.618  -5.011  0.00  0.00    +0.149 HD
BRANCH  24  26
ATOM     26  C   UNL     1       0.907  -0.115  -6.225  0.00  0.00    +0.085 C 
BRANCH  26  27
ATOM     27  C   UNL     1       0.094   0.399  -7.415  0.00  0.00    -0.061 C 
BRANCH  27  28
ATOM     28  N   UNL     1       0.818   0.115  -8.661  0.00  0.00    +0.377 N 
ATOM     29  C   UNL     1       0.911  -1.338  -8.854  0.00  0.00    -0.097 C 
ATOM     30  C   UNL     1       0.097   0.714  -9.793  0.00  0.00    -0.097 C 
ATOM     31  H   UNL     1       1.746   0.508  -8.608  0.00  0.00    -0.083 HD
ENDBRANCH  27  28
ENDBRANCH  26  27
ENDBRANCH  24  26
ENDBRANCH  21  22
ENDBRANCH  15  21
BRANCH   6  32
ATOM     32  C   UNL     1       0.887  -1.106   3.624  0.00  0.00    +0.165 C 
BRANCH  32  33
ATOM     33  O   UNL     1       0.377  -0.725   4.903  0.00  0.00    -0.394 OA
ATOM     34  H   UNL     1       0.718  -1.255   5.636  0.00  0.00    +0.209 HD
ENDBRANCH  32  33
ENDBRANCH   6  32
TORSDOF 8
