REMARK  Name = ZINC39754549
REMARK  7 active torsions:
REMARK  status: ('A' for Active; 'I' for Inactive)
REMARK    1  A    between atoms: C_1  and  C_2
REMARK    2  A    between atoms: C_5  and  N_8
REMARK    3  A    between atoms: C_9  and  C_35
REMARK    4  A    between atoms: C_13  and  S_14
REMARK    5  A    between atoms: S_14  and  C_15
REMARK    6  A    between atoms: C_15  and  C_16
REMARK    7  A    between atoms: C_21  and  N_24
REMARK                            x       y       z     vdW  Elec       q    Type
REMARK                         _______ _______ _______ _____ _____    ______ ____
ROOT
ATOM      1  C   UNL     1      -0.409  -5.555  -5.240  0.00  0.00    +0.226 C 
ATOM      2  O   UNL     1      -0.455  -4.389  -5.572  0.00  0.00    -0.275 OA
ATOM      3  N   UNL     1      -0.483  -6.525  -6.173  0.00  0.00    -0.301 N 
ATOM      4  C   UNL     1      -0.435  -7.941  -5.786  0.00  0.00    +0.110 C 
ATOM      5  C   UNL     1       0.672  -8.634  -6.587  0.00  0.00    +0.044 C 
ATOM      6  C   UNL     1       0.439  -8.398  -8.081  0.00  0.00    +0.095 C 
ATOM      7  C   UNL     1       0.495  -6.897  -8.377  0.00  0.00    +0.044 C 
ATOM      8  C   UNL     1      -0.620  -6.185  -7.596  0.00  0.00    +0.110 C 
ENDROOT
BRANCH   6   9
ATOM      9  N   UNL     1       1.478  -9.086  -8.852  0.00  0.00    -0.289 N 
ATOM     10  C   UNL     1       1.262 -10.081  -9.803  0.00  0.00    +0.070 A 
ATOM     11  C   UNL     1       0.121 -10.695 -10.296  0.00  0.00    +0.028 A 
ATOM     12  C   UNL     1       0.230 -11.674 -11.264  0.00  0.00    +0.002 A 
ATOM     13  C   UNL     1       1.475 -12.045 -11.743  0.00  0.00    +0.002 A 
ATOM     14  C   UNL     1       2.617 -11.440 -11.258  0.00  0.00    +0.028 A 
ATOM     15  C   UNL     1       2.517 -10.455 -10.287  0.00  0.00    +0.067 A 
ATOM     16  N   UNL     1       3.456  -9.677  -9.614  0.00  0.00    -0.306 N 
ATOM     17  H   UNL     1       4.418  -9.712  -9.740  0.00  0.00    +0.170 HD
ATOM     18  C   UNL     1       2.802  -8.862  -8.765  0.00  0.00    +0.328 A 
ATOM     19  O   UNL     1       3.329  -8.049  -8.028  0.00  0.00    -0.247 OA
ENDBRANCH   6   9
BRANCH   1  20
ATOM     20  C   UNL     1      -0.269  -5.919  -3.784  0.00  0.00    +0.173 C 
BRANCH  20  21
ATOM     21  S   UNL     1      -0.197  -4.406  -2.787  0.00  0.00    -0.079 S 
BRANCH  21  26
ATOM     22  N   UNL     1       0.057  -4.168  -0.021  0.00  0.00    -0.259 N 
ATOM     23  C   UNL     1       0.172  -5.053   1.150  0.00  0.00    +0.179 C 
ATOM     24  N   UNL     1       0.139  -6.409   0.574  0.00  0.00    -0.246 N 
ATOM     25  N   UNL     1       0.015  -6.241  -0.811  0.00  0.00    -0.162 NA
ATOM     26  C   UNL     1      -0.035  -4.993  -1.133  0.00  0.00    +0.180 C 
ATOM     27  C   UNL     1      -1.009  -4.842   2.100  0.00  0.00    +0.051 C 
ATOM     28  H   UNL     1       0.193  -7.248   1.056  0.00  0.00    +0.170 HD
BRANCH  22  33
ATOM     29  C   UNL     1      -0.015   1.503   0.008  0.00  0.00    +0.044 C 
ATOM     30  C   UNL     1       0.004  -0.004   0.001  0.00  0.00    -0.050 A 
ATOM     31  C   UNL     1       1.152  -0.681   0.368  0.00  0.00    +0.005 A 
ATOM     32  C   UNL     1       1.173  -2.062   0.362  0.00  0.00    +0.024 A 
ATOM     33  C   UNL     1       0.039  -2.771  -0.013  0.00  0.00    +0.037 A 
ATOM     34  C   UNL     1      -1.113  -2.087  -0.382  0.00  0.00    +0.024 A 
ATOM     35  C   UNL     1      -1.129  -0.707  -0.368  0.00  0.00    +0.005 A 
ENDBRANCH  22  33
ENDBRANCH  21  26
ENDBRANCH  20  21
ENDBRANCH   1  20
TORSDOF 5
