REMARK  Name = ZINC11753730
REMARK  8 active torsions:
REMARK  status: ('A' for Active; 'I' for Inactive)
REMARK    1  A    between atoms: C_4  and  C_27
REMARK    2  A    between atoms: C_5  and  C_7
REMARK    3  A    between atoms: C_7  and  N_58
REMARK    4  A    between atoms: C_13  and  C_15
REMARK    5  A    between atoms: C_15  and  C_16
REMARK    6  A    between atoms: N_18  and  C_19
REMARK    7  A    between atoms: C_19  and  C_20
REMARK    8  A    between atoms: C_20  and  C_21
REMARK                            x       y       z     vdW  Elec       q    Type
REMARK                         _______ _______ _______ _____ _____    ______ ____
ROOT
ATOM      1  C   UNL     1      -0.877   3.335   3.021  0.00  0.00    -0.058 C 
ATOM      2  C   UNL     1       0.410   3.104   3.815  0.00  0.00    +0.085 C 
ATOM      3  N   UNL     1       0.849   1.720   3.664  0.00  0.00    -0.318 N 
ATOM      4  C   UNL     1       0.419   0.924   2.679  0.00  0.00    +0.200 C 
ATOM      5  O   UNL     1       0.859  -0.204   2.609  0.00  0.00    -0.278 OA
ATOM      6  C   UNL     1      -0.587   1.369   1.655  0.00  0.00    +0.028 C 
ATOM      7  H   UNL     1       1.481   1.361   4.306  0.00  0.00    +0.149 HD
ATOM      8  N   UNL     1      -0.661   2.842   1.646  0.00  0.00    +0.391 N 
ATOM      9  H   UNL     1       0.224   3.220   1.289  0.00  0.00    -0.080 HD
ENDROOT
BRANCH   8  10
ATOM     10  C   UNL     1      -1.766   3.288   0.767  0.00  0.00    -0.041 C 
BRANCH  10  15
ATOM     11  C   UNL     1      -2.526   6.953   1.265  0.00  0.00    +0.000 A 
ATOM     12  C   UNL     1      -1.620   7.542   0.403  0.00  0.00    +0.001 A 
ATOM     13  C   UNL     1      -0.762   6.755  -0.342  0.00  0.00    +0.012 A 
ATOM     14  C   UNL     1      -0.809   5.378  -0.224  0.00  0.00    +0.056 A 
ATOM     15  C   UNL     1      -1.714   4.789   0.638  0.00  0.00    -0.052 A 
ATOM     16  C   UNL     1      -2.576   5.576   1.380  0.00  0.00    +0.002 A 
BRANCH  14  17
ATOM     17  C   UNL     1       0.126   4.520  -1.036  0.00  0.00    +0.418 C 
ATOM     18  F   UNL     1       0.940   5.338  -1.828  0.00  0.00    -0.166 F 
ATOM     19  F   UNL     1       0.925   3.759  -0.177  0.00  0.00    -0.166 F 
ATOM     20  F   UNL     1      -0.619   3.668  -1.859  0.00  0.00    -0.166 F 
ENDBRANCH  14  17
ENDBRANCH  10  15
ENDBRANCH   8  10
BRANCH   6  21
ATOM     21  C   UNL     1      -0.151   0.884   0.271  0.00  0.00    +0.089 C 
BRANCH  21  22
ATOM     22  C   UNL     1      -0.210  -0.621   0.225  0.00  0.00    +0.212 C 
ATOM     23  O   UNL     1      -0.681  -1.238   1.156  0.00  0.00    -0.276 OA
ATOM     24  N   UNL     1       0.262  -1.281  -0.852  0.00  0.00    -0.315 N 
ATOM     25  H   UNL     1       0.639  -0.787  -1.597  0.00  0.00    +0.149 HD
BRANCH  24  26
ATOM     26  C   UNL     1       0.205  -2.744  -0.897  0.00  0.00    +0.108 C 
BRANCH  26  27
ATOM     27  C   UNL     1       0.801  -3.237  -2.217  0.00  0.00    +0.049 C 
BRANCH  27  28
ATOM     28  C   UNL     1       0.742  -4.742  -2.264  0.00  0.00    -0.072 C 
ATOM     29  C   UNL     1      -0.268  -5.293  -2.857  0.00  0.00    -0.028 C 
ATOM     30  C   UNL     1      -0.469  -6.775  -2.975  0.00  0.00    +0.027 C 
ATOM     31  C   UNL     1       0.845  -7.508  -2.694  0.00  0.00    +0.004 C 
ATOM     32  C   UNL     1       1.436  -6.962  -1.389  0.00  0.00    +0.005 C 
ATOM     33  C   UNL     1       1.862  -5.510  -1.624  0.00  0.00    +0.030 C 
ENDBRANCH  27  28
ENDBRANCH  26  27
ENDBRANCH  24  26
ENDBRANCH  21  22
ENDBRANCH   6  21
TORSDOF 8
