REMARK  Name = ZINC44533893
REMARK  6 active torsions:
REMARK  status: ('A' for Active; 'I' for Inactive)
REMARK    1  A    between atoms: C_1  and  N_2
REMARK    2  A    between atoms: C_6  and  C_9
REMARK    3  A    between atoms: C_9  and  N_10
REMARK    4  A    between atoms: N_10  and  S_11
REMARK    5  A    between atoms: S_11  and  C_14
REMARK    6  A    between atoms: C_17  and  N_21
REMARK                            x       y       z     vdW  Elec       q    Type
REMARK                         _______ _______ _______ _____ _____    ______ ____
ROOT
ATOM      1  S   UNL     1       2.253  -4.839   3.578  0.00  0.00    +0.061 S 
ATOM      2  O   UNL     1       1.856  -6.199   3.471  0.00  0.00    -0.153 OA
ATOM      3  O   UNL     1       3.582  -4.410   3.311  0.00  0.00    -0.153 OA
ENDROOT
BRANCH   1   4
ATOM      4  C   UNL     1       1.883  -4.334   5.225  0.00  0.00    +0.133 A 
ATOM      5  C   UNL     1       2.565  -3.272   5.791  0.00  0.00    +0.047 A 
ATOM      6  C   UNL     1       2.277  -2.874   7.083  0.00  0.00    +0.040 A 
ATOM      7  C   UNL     1       1.301  -3.542   7.813  0.00  0.00    +0.027 A 
ATOM      8  C   UNL     1       0.618  -4.608   7.241  0.00  0.00    +0.040 A 
ATOM      9  C   UNL     1       0.907  -4.998   5.947  0.00  0.00    +0.047 A 
ATOM     10 BR   UNL     1      -0.027  -6.444   5.166  0.00  0.00    -0.048 Br
ATOM     11 BR   UNL     1       3.893  -2.364   4.797  0.00  0.00    -0.048 Br
BRANCH   7  12
ATOM     12  N   UNL     1       1.008  -3.142   9.118  0.00  0.00    -0.358 N 
ATOM     13  H   UNL     1       1.486  -2.398   9.517  0.00  0.00    +0.142 HD
ATOM     14  H   UNL     1       0.327  -3.609   9.627  0.00  0.00    +0.142 HD
ENDBRANCH   7  12
ENDBRANCH   1   4
BRANCH   1  15
ATOM     15  N   UNL     1       1.265  -3.976   2.567  0.00  0.00    -0.190 NA
ATOM     16  H   UNL     1       0.592  -4.434   2.040  0.00  0.00    +0.148 HD
BRANCH  15  17
ATOM     17  C   UNL     1       1.408  -2.521   2.470  0.00  0.00    +0.107 C 
BRANCH  17  23
ATOM     18  C   UNL     1      -0.018   1.465   0.010  0.00  0.00    -0.096 C 
ATOM     19  N   UNL     1       0.002  -0.004   0.002  0.00  0.00    +0.378 N 
ATOM     20  C   UNL     1       0.681  -0.476  -1.210  0.00  0.00    -0.079 C 
ATOM     21  C   UNL     1       0.634  -2.005  -1.264  0.00  0.00    -0.018 C 
ATOM     22  C   UNL     1       1.336  -2.575  -0.029  0.00  0.00    +0.001 C 
ATOM     23  C   UNL     1       0.666  -2.018   1.230  0.00  0.00    -0.012 C 
ATOM     24  C   UNL     1       0.712  -0.489   1.192  0.00  0.00    -0.074 C 
ATOM     25  H   UNL     1      -0.945  -0.352   0.012  0.00  0.00    -0.082 HD
ENDBRANCH  17  23
ENDBRANCH  15  17
ENDBRANCH   1  15
TORSDOF 5
