REMARK  Name = ZINC39211929
REMARK  12 active torsions:
REMARK  status: ('A' for Active; 'I' for Inactive)
REMARK    1  A    between atoms: C_1  and  C_2
REMARK    2  A    between atoms: C_4  and  C_35
REMARK    3  A    between atoms: C_9  and  C_14
REMARK    4  A    between atoms: C_11  and  N_13
REMARK    5  A    between atoms: N_16  and  C_17
REMARK    6  A    between atoms: C_17  and  C_18
REMARK    7  A    between atoms: C_18  and  C_19
REMARK    8  A    between atoms: C_22  and  O_30
REMARK    9  A    between atoms: C_27  and  C_29
REMARK   10  A    between atoms: O_30  and  C_31
REMARK   11  A    between atoms: C_35  and  O_36
REMARK   12  A    between atoms: O_36  and  C_37
REMARK                            x       y       z     vdW  Elec       q    Type
REMARK                         _______ _______ _______ _____ _____    ______ ____
ROOT
ATOM      1  C   UNL     1      -1.456  -4.627   1.487  0.00  0.00    +0.225 C 
ATOM      2  O   UNL     1      -2.036  -4.413   0.444  0.00  0.00    -0.275 OA
ATOM      3  N   UNL     1      -2.136  -5.092   2.554  0.00  0.00    -0.314 N 
ATOM      4  H   UNL     1      -1.673  -5.263   3.388  0.00  0.00    +0.149 HD
ENDROOT
BRANCH   1  13
ATOM      5  C   UNL     1       0.934   0.806  -2.039  0.00  0.00    +0.065 C 
ATOM      6  C   UNL     1       0.873  -0.602  -1.505  0.00  0.00    +0.040 A 
ATOM      7  C   UNL     1       0.998  -1.674  -2.366  0.00  0.00    +0.029 A 
ATOM      8  C   UNL     1       0.951  -2.965  -1.872  0.00  0.00    -0.016 A 
ATOM      9  C   UNL     1       0.773  -3.170  -0.501  0.00  0.00    -0.023 A 
ATOM     10  C   UNL     1       0.641  -2.029   0.290  0.00  0.00    +0.100 A 
ATOM     11  N   UNL     1       0.706  -0.811  -0.212  0.00  0.00    -0.245 NA
ATOM     12  S   UNL     1       0.378  -2.602   1.955  0.00  0.00    -0.094 S 
ATOM     13  C   UNL     1       0.026  -4.372   1.592  0.00  0.00    +0.128 C 
ATOM     14  C   UNL     1       0.718  -4.495   0.216  0.00  0.00    -0.019 C 
BRANCH  14  15
ATOM     15  N   UNL     1      -0.025  -5.456  -0.610  0.00  0.00    +0.384 N 
ATOM     16  H   UNL     1       0.561  -5.770  -1.370  0.00  0.00    -0.089 HD
ATOM     17  H   UNL     1      -0.295  -6.247  -0.045  0.00  0.00    -0.089 HD
ATOM     18  H   UNL     1      -0.850  -5.012  -0.983  0.00  0.00    -0.089 HD
ENDBRANCH  14  15
BRANCH   8  19
ATOM     19  C   UNL     1       1.090  -4.140  -2.805  0.00  0.00    +0.195 C 
BRANCH  19  20
ATOM     20  O   UNL     1       1.390  -3.671  -4.121  0.00  0.00    -0.378 OA
ATOM     21  C   UNL     1       1.543  -4.712  -5.088  0.00  0.00    +0.194 C 
ENDBRANCH  19  20
ENDBRANCH   8  19
ENDBRANCH   1  13
BRANCH   3  22
ATOM     22  C   UNL     1      -3.577  -5.339   2.452  0.00  0.00    +0.109 C 
BRANCH  22  23
ATOM     23  C   UNL     1      -4.101  -5.860   3.792  0.00  0.00    +0.056 C 
BRANCH  23  24
ATOM     24  C   UNL     1      -5.582  -6.114   3.687  0.00  0.00    -0.018 A 
ATOM     25  C   UNL     1      -6.224  -7.367   3.281  0.00  0.00    +0.007 A 
ATOM     26  C   UNL     1      -5.746  -8.620   2.894  0.00  0.00    +0.056 A 
ATOM     27  C   UNL     1      -6.639  -9.620   2.564  0.00  0.00    +0.131 A 
ATOM     28  C   UNL     1      -8.010  -9.381   2.618  0.00  0.00    +0.048 A 
ATOM     29  C   UNL     1      -8.493  -8.149   2.998  0.00  0.00    +0.030 A 
ATOM     30  C   UNL     1      -7.610  -7.129   3.334  0.00  0.00    +0.047 A 
ATOM     31  N   UNL     1      -7.782  -5.824   3.743  0.00  0.00    -0.358 N 
ATOM     32  C   UNL     1      -6.564  -5.238   3.954  0.00  0.00    +0.017 A 
ATOM     33  H   UNL     1      -8.639  -5.387   3.867  0.00  0.00    +0.166 HD
ATOM     34  C   UNL     1      -6.354  -3.818   4.415  0.00  0.00    +0.063 C 
BRANCH  27  35
ATOM     35  O   UNL     1      -6.179 -10.842   2.186  0.00  0.00    -0.406 OA
BRANCH  35  36
ATOM     36  C   UNL     1      -7.157 -11.831   1.858  0.00  0.00    +0.575 C 
ATOM     37  F   UNL     1      -7.940 -11.377   0.791  0.00  0.00    -0.133 F 
ATOM     38  F   UNL     1      -6.515 -13.019   1.494  0.00  0.00    -0.133 F 
ATOM     39  F   UNL     1      -7.974 -12.065   2.970  0.00  0.00    -0.133 F 
ENDBRANCH  35  36
ENDBRANCH  27  35
ENDBRANCH  23  24
ENDBRANCH  22  23
ENDBRANCH   3  22
TORSDOF 9
