REMARK  Name = ZINC39355757
REMARK  7 active torsions:
REMARK  status: ('A' for Active; 'I' for Inactive)
REMARK    1  A    between atoms: C_13  and  S_15
REMARK    2  A    between atoms: S_15  and  C_16
REMARK    3  A    between atoms: C_16  and  C_17
REMARK    4  A    between atoms: N_19  and  C_20
REMARK    5  A    between atoms: C_20  and  C_21
REMARK    6  A    between atoms: C_24  and  S_27
REMARK    7  A    between atoms: S_27  and  N_30
REMARK                            x       y       z     vdW  Elec       q    Type
REMARK                         _______ _______ _______ _____ _____    ______ ____
ROOT
ATOM      1  C   UNL     1       5.737  -5.560   3.671  0.00  0.00    +0.224 C 
ATOM      2  O   UNL     1       5.111  -6.492   4.129  0.00  0.00    -0.275 OA
ATOM      3  N   UNL     1       7.018  -5.362   4.041  0.00  0.00    -0.311 N 
ATOM      4  H   UNL     1       7.519  -4.617   3.674  0.00  0.00    +0.149 HD
ENDROOT
BRANCH   1   5
ATOM      5  C   UNL     1       5.084  -4.623   2.688  0.00  0.00    +0.173 C 
BRANCH   5   6
ATOM      6  S   UNL     1       3.373  -5.150   2.396  0.00  0.00    -0.075 S 
BRANCH   6  18
ATOM      7  C   UNL     1      -0.016   1.348   0.009  0.00  0.00    +0.001 A 
ATOM      8  C   UNL     1       1.156   2.116   0.002  0.00  0.00    +0.002 A 
ATOM      9  C   UNL     1       2.382   1.544  -0.019  0.00  0.00    +0.026 A 
ATOM     10  C   UNL     1       2.490   0.081  -0.035  0.00  0.00    +0.046 A 
ATOM     11  N   UNL     1       3.530  -0.719  -0.024  0.00  0.00    -0.358 N 
ATOM     12  C   UNL     1       3.070  -2.089  -0.174  0.00  0.00    +0.252 C 
ATOM     13  C   UNL     1       1.561  -2.038  -0.014  0.00  0.00    +0.117 C 
ATOM     14  C   UNL     1       1.230  -0.705  -0.014  0.00  0.00    +0.025 A 
ATOM     15  C   UNL     1       0.002  -0.004   0.002  0.00  0.00    +0.012 A 
ATOM     16  N   UNL     1       0.842  -3.139   0.220  0.00  0.00    -0.147 NA
ATOM     17  N   UNL     1       1.473  -4.102   0.821  0.00  0.00    -0.122 NA
ATOM     18  C   UNL     1       2.755  -3.971   1.242  0.00  0.00    +0.208 C 
ATOM     19  N   UNL     1       3.565  -3.019   0.839  0.00  0.00    -0.227 NA
ATOM     20  H   UNL     1       4.455  -0.441   0.070  0.00  0.00    +0.162 HD
ENDBRANCH   6  18
ENDBRANCH   5   6
ENDBRANCH   1   5
BRANCH   3  21
ATOM     21  C   UNL     1       7.654  -6.273   4.996  0.00  0.00    +0.139 C 
BRANCH  21  22
ATOM     22  C   UNL     1       9.075  -5.835   5.239  0.00  0.00    -0.030 A 
ATOM     23  C   UNL     1      10.094  -6.322   4.442  0.00  0.00    +0.007 A 
ATOM     24  C   UNL     1      11.398  -5.920   4.665  0.00  0.00    +0.029 A 
ATOM     25  C   UNL     1      11.682  -5.031   5.684  0.00  0.00    +0.105 A 
ATOM     26  C   UNL     1      10.663  -4.543   6.481  0.00  0.00    +0.029 A 
ATOM     27  C   UNL     1       9.359  -4.942   6.255  0.00  0.00    +0.007 A 
BRANCH  25  28
ATOM     28  S   UNL     1      13.344  -4.519   5.969  0.00  0.00    +0.056 S 
ATOM     29  O   UNL     1      13.415  -4.107   7.327  0.00  0.00    -0.153 OA
ATOM     30  O   UNL     1      14.179  -5.539   5.438  0.00  0.00    -0.153 OA
BRANCH  28  31
ATOM     31  N   UNL     1      13.605  -3.167   5.049  0.00  0.00    -0.204 NA
ATOM     32  H   UNL     1      14.235  -2.493   5.346  0.00  0.00    +0.144 HD
ATOM     33  H   UNL     1      13.127  -3.050   4.213  0.00  0.00    +0.144 HD
ENDBRANCH  28  31
ENDBRANCH  25  28
ENDBRANCH  21  22
ENDBRANCH   3  21
TORSDOF 7
