REMARK  Name = ZINC27566000
REMARK  7 active torsions:
REMARK  status: ('A' for Active; 'I' for Inactive)
REMARK    1  A    between atoms: C_1  and  C_2
REMARK    2  A    between atoms: C_5  and  N_9
REMARK    3  A    between atoms: C_10  and  C_12
REMARK    4  A    between atoms: C_12  and  N_13
REMARK    5  A    between atoms: C_17  and  C_19
REMARK    6  A    between atoms: N_21  and  C_22
REMARK    7  A    between atoms: N_21  and  C_23
REMARK                            x       y       z     vdW  Elec       q    Type
REMARK                         _______ _______ _______ _____ _____    ______ ____
ROOT
ATOM      1  N   UNL     1       0.625  -1.810  -1.569  0.00  0.00    -0.285 N 
ATOM      2  C   UNL     1       1.094  -0.725  -0.923  0.00  0.00    +0.201 C 
ATOM      3  O   UNL     1       2.013  -0.088  -1.394  0.00  0.00    -0.278 OA
ATOM      4  H   UNL     1      -0.265  -2.334  -1.190  0.00  0.00    +0.155 HD
ENDROOT
BRANCH   1   9
ATOM      5  C   UNL     1       3.241  -3.680  -6.245  0.00  0.00    +0.044 C 
ATOM      6  C   UNL     1       2.546  -3.183  -5.004  0.00  0.00    -0.048 A 
ATOM      7  C   UNL     1       2.305  -4.051  -3.954  0.00  0.00    +0.020 A 
ATOM      8  C   UNL     1       1.668  -3.599  -2.814  0.00  0.00    +0.040 A 
ATOM      9  C   UNL     1       1.270  -2.272  -2.723  0.00  0.00    +0.062 A 
ATOM     10  C   UNL     1       1.508  -1.404  -3.781  0.00  0.00    +0.040 A 
ATOM     11  C   UNL     1       2.151  -1.861  -4.916  0.00  0.00    +0.020 A 
ATOM     12 BR   UNL     1       0.961   0.403  -3.666  0.00  0.00    -0.048 Br
ATOM     13 BR   UNL     1       1.340  -4.787  -1.379  0.00  0.00    -0.048 Br
ENDBRANCH   1   9
BRANCH   2  14
ATOM     14  C   UNL     1       0.477  -0.301   0.386  0.00  0.00    +0.020 C 
BRANCH  14  15
ATOM     15  N   UNL     1       1.086   0.960   0.828  0.00  0.00    +0.393 N 
ATOM     16  C   UNL     1       2.514   0.770   1.164  0.00  0.00    -0.077 C 
ATOM     17  C   UNL     1       2.832   1.718   2.335  0.00  0.00    -0.020 C 
ATOM     18  C   UNL     1       1.496   2.426   2.657  0.00  0.00    -0.008 C 
ATOM     19  C   UNL     1       0.440   1.455   2.071  0.00  0.00    +0.020 C 
ATOM     20  H   UNL     1       0.958   1.664  -0.007  0.00  0.00    -0.080 HD
BRANCH  19  21
ATOM     21  C   UNL     1      -0.837   2.188   1.751  0.00  0.00    +0.202 C 
ATOM     22  O   UNL     1      -1.198   2.302   0.599  0.00  0.00    -0.277 OA
ATOM     23  N   UNL     1      -1.577   2.718   2.745  0.00  0.00    -0.309 N 
ATOM     24  C   UNL     1      -2.819   3.431   2.434  0.00  0.00    +0.131 C 
ATOM     25  C   UNL     1      -1.141   2.581   4.136  0.00  0.00    +0.131 C 
ENDBRANCH  19  21
ENDBRANCH  14  15
ENDBRANCH   2  14
TORSDOF 4
