REMARK  Name = ZINC39666178
REMARK  10 active torsions:
REMARK  status: ('A' for Active; 'I' for Inactive)
REMARK    1  A    between atoms: C_1  and  C_2
REMARK    2  A    between atoms: C_5  and  O_8
REMARK    3  A    between atoms: O_8  and  C_9
REMARK    4  A    between atoms: C_9  and  C_11
REMARK    5  A    between atoms: C_9  and  C_12
REMARK    6  A    between atoms: C_12  and  N_13
REMARK    7  A    between atoms: C_14  and  C_16
REMARK    8  A    between atoms: C_27  and  C_29
REMARK    9  A    between atoms: C_32  and  C_36
REMARK   10  A    between atoms: C_33  and  C_35
REMARK                            x       y       z     vdW  Elec       q    Type
REMARK                         _______ _______ _______ _____ _____    ______ ____
ROOT
ATOM      1  C   UNL     1       5.044  -6.666  -0.171  0.00  0.00    +0.100 C 
ATOM      2  C   UNL     1       5.769  -6.039   1.041  0.00  0.00    +0.121 C 
ATOM      3  N   UNL     1       6.338  -7.193   1.776  0.00  0.00    -0.296 N 
ATOM      4  C   UNL     1       6.815  -8.108   0.711  0.00  0.00    +0.115 C 
ATOM      5  C   UNL     1       5.736  -8.022  -0.387  0.00  0.00    -0.004 C 
ATOM      6  C   UNL     1       4.731  -9.159  -0.227  0.00  0.00    -0.010 C 
ATOM      7  C   UNL     1       5.430 -10.494  -0.502  0.00  0.00    -0.082 C 
ATOM      8  N   UNL     1       5.982 -10.488  -1.862  0.00  0.00    +0.379 N 
ATOM      9  C   UNL     1       7.014  -9.451  -1.980  0.00  0.00    -0.082 C 
ATOM     10  C   UNL     1       6.382  -8.073  -1.768  0.00  0.00    -0.010 C 
ATOM     11  C   UNL     1       6.406  -7.371   3.110  0.00  0.00    +0.247 C 
ATOM     12  O   UNL     1       6.014  -6.499   3.860  0.00  0.00    -0.270 OA
ATOM     13  H   UNL     1       6.388 -11.390  -2.062  0.00  0.00    -0.086 HD
ATOM     14  H   UNL     1       5.243 -10.302  -2.523  0.00  0.00    -0.086 HD
ENDROOT
BRANCH  11  15
ATOM     15  C   UNL     1       6.957  -8.628   3.661  0.00  0.00    +0.037 A 
ATOM     16  C   UNL     1       7.918  -9.345   2.946  0.00  0.00    +0.013 A 
ATOM     17  C   UNL     1       8.428 -10.516   3.466  0.00  0.00    +0.004 A 
ATOM     18  C   UNL     1       7.989 -10.981   4.693  0.00  0.00    -0.047 A 
ATOM     19  C   UNL     1       7.037 -10.275   5.407  0.00  0.00    -0.047 A 
ATOM     20  C   UNL     1       6.523  -9.099   4.900  0.00  0.00    +0.016 A 
ATOM     21  C   UNL     1       6.564 -10.789   6.742  0.00  0.00    +0.044 C 
ATOM     22  C   UNL     1       8.550 -12.262   5.254  0.00  0.00    +0.044 C 
ENDBRANCH  11  15
BRANCH   1  24
ATOM     23  N   UNL     1       2.689  -6.961  -0.867  0.00  0.00    -0.312 N 
ATOM     24  C   UNL     1       3.583  -6.865   0.137  0.00  0.00    +0.218 C 
ATOM     25  O   UNL     1       3.210  -6.941   1.289  0.00  0.00    -0.275 OA
ATOM     26  H   UNL     1       2.987  -6.901  -1.789  0.00  0.00    +0.149 HD
BRANCH  23  27
ATOM     27  C   UNL     1       1.268  -7.155  -0.568  0.00  0.00    +0.148 C 
BRANCH  27  28
ATOM     28  C   UNL     1       0.477  -7.230  -1.875  0.00  0.00    +0.187 C 
ATOM     29  C   UNL     1      -1.019  -7.307  -1.562  0.00  0.00    +0.053 C 
BRANCH  28  30
ATOM     30  O   UNL     1       0.872  -8.393  -2.605  0.00  0.00    -0.488 OA
BRANCH  30  35
ATOM     31  C   UNL     1       0.442  -8.160  -8.216  0.00  0.00    +0.044 C 
ATOM     32  C   UNL     1       0.557  -8.223  -6.715  0.00  0.00    -0.050 A 
ATOM     33  C   UNL     1       0.091  -7.175  -5.943  0.00  0.00    +0.007 A 
ATOM     34  C   UNL     1       0.195  -7.229  -4.566  0.00  0.00    +0.046 A 
ATOM     35  C   UNL     1       0.768  -8.337  -3.959  0.00  0.00    +0.121 A 
ATOM     36  C   UNL     1       1.234  -9.388  -4.736  0.00  0.00    +0.046 A 
ATOM     37  C   UNL     1       1.123  -9.331  -6.111  0.00  0.00    +0.007 A 
ENDBRANCH  30  35
ENDBRANCH  28  30
ENDBRANCH  27  28
ENDBRANCH  23  27
ENDBRANCH   1  24
TORSDOF 6
