REMARK  Name = ZINC13816145
REMARK  9 active torsions:
REMARK  status: ('A' for Active; 'I' for Inactive)
REMARK    1  A    between atoms: C_5  and  C_7
REMARK    2  A    between atoms: C_7  and  C_9
REMARK    3  A    between atoms: C_7  and  C_23
REMARK    4  A    between atoms: C_9  and  C_10
REMARK    5  A    between atoms: C_10  and  N_11
REMARK    6  A    between atoms: N_13  and  C_14
REMARK    7  A    between atoms: C_14  and  C_15
REMARK    8  A    between atoms: C_15  and  C_16
REMARK    9  A    between atoms: C_16  and  C_17
REMARK                            x       y       z     vdW  Elec       q    Type
REMARK                         _______ _______ _______ _____ _____    ______ ____
ROOT
ATOM      1  C   UNL     1       4.287   5.346  -0.765  0.00  0.00    +0.116 C 
ENDROOT
BRANCH   1   2
ATOM      2  N   UNL     1       3.891   5.920  -2.053  0.00  0.00    -0.358 N 
ATOM      3  C   UNL     1       4.746   6.764  -2.722  0.00  0.00    +0.169 C 
ATOM      4  N   UNL     1       4.374   7.302  -3.931  0.00  0.00    -0.358 N 
ATOM      5  H   UNL     1       3.025   5.705  -2.434  0.00  0.00    +0.162 HD
ATOM      6  H   UNL     1       6.582   7.638  -2.606  0.00  0.00    +0.159 HD
ATOM      7  H   UNL     1       3.508   7.087  -4.312  0.00  0.00    +0.162 HD
ATOM      8  N   UNL     1       5.913   7.018  -2.148  0.00  0.00    -0.371 N 
ATOM      9  H   UNL     1       6.145   6.591  -1.244  0.00  0.00    +0.159 HD
BRANCH   4  10
ATOM     10  C   UNL     1       5.285   8.201  -4.643  0.00  0.00    +0.116 C 
BRANCH  10  11
ATOM     11  C   UNL     1       4.633   8.656  -5.951  0.00  0.00    +0.027 C 
BRANCH  11  12
ATOM     12  C   UNL     1       5.584   9.595  -6.695  0.00  0.00    +0.058 C 
BRANCH  12  13
ATOM     13  C   UNL     1       4.943  10.043  -7.983  0.00  0.00    +0.059 A 
ATOM     14  C   UNL     1       4.752  11.318  -8.371  0.00  0.00    +0.107 A 
ATOM     15  N   UNL     1       4.142  11.273  -9.595  0.00  0.00    -0.351 N 
ATOM     16  H   UNL     1       3.867  12.058 -10.151  0.00  0.00    +0.166 HD
ATOM     17  C   UNL     1       3.981   9.971  -9.914  0.00  0.00    +0.196 A 
ATOM     18  N   UNL     1       4.466   9.241  -8.947  0.00  0.00    -0.241 NA
ENDBRANCH  12  13
ENDBRANCH  11  12
ENDBRANCH  10  11
ENDBRANCH   4  10
ENDBRANCH   1   2
BRANCH   1  19
ATOM     19  C   UNL     1       3.164   4.450  -0.238  0.00  0.00    +0.035 C 
BRANCH  19  20
ATOM     20  C   UNL     1       3.579   3.850   1.107  0.00  0.00    +0.071 C 
BRANCH  20  21
ATOM     21  C   UNL     1       2.527   2.874   1.567  0.00  0.00    -0.020 A 
ATOM     22  C   UNL     1       1.212   3.282   1.692  0.00  0.00    +0.007 A 
ATOM     23  C   UNL     1       0.247   2.387   2.114  0.00  0.00    +0.020 A 
ATOM     24  C   UNL     1       0.596   1.079   2.405  0.00  0.00    +0.042 A 
ATOM     25  C   UNL     1       1.912   0.672   2.286  0.00  0.00    +0.040 A 
ATOM     26  C   UNL     1       2.878   1.569   1.864  0.00  0.00    +0.046 A 
ATOM     27 CL   UNL     1       4.529   1.057   1.708  0.00  0.00    -0.083 Cl
ATOM     28 CL   UNL     1      -0.617  -0.047   2.928  0.00  0.00    -0.083 Cl
ENDBRANCH  20  21
BRANCH  20  33
ATOM     29  C   UNL     1       2.995   7.038   3.032  0.00  0.00    +0.003 A 
ATOM     30  C   UNL     1       4.002   6.923   3.978  0.00  0.00    +0.020 A 
ATOM     31  C   UNL     1       4.828   5.816   3.952  0.00  0.00    +0.111 A 
ATOM     32  N   UNL     1       4.663   4.873   3.044  0.00  0.00    -0.259 NA
ATOM     33  C   UNL     1       3.720   4.952   2.126  0.00  0.00    +0.049 A 
ATOM     34  C   UNL     1       2.857   6.031   2.090  0.00  0.00    +0.024 A 
ENDBRANCH  20  33
ENDBRANCH  19  20
ENDBRANCH   1  19
TORSDOF 9
