REMARK  Name = ZINC20708786
REMARK  8 active torsions:
REMARK  status: ('A' for Active; 'I' for Inactive)
REMARK    1  A    between atoms: C_1  and  C_2
REMARK    2  A    between atoms: C_2  and  N_3
REMARK    3  A    between atoms: N_3  and  C_4
REMARK    4  A    between atoms: N_3  and  S_10
REMARK    5  A    between atoms: S_10  and  C_13
REMARK    6  A    between atoms: C_26  and  C_29
REMARK    7  A    between atoms: C_31  and  N_36
REMARK    8  A    between atoms: C_34  and  O_35
REMARK                            x       y       z     vdW  Elec       q    Type
REMARK                         _______ _______ _______ _____ _____    ______ ____
ROOT
ATOM      1  C   UNL     1       1.159  -4.879   1.741  0.00  0.00    +0.109 A 
ATOM      2  C   UNL     1       1.148  -4.768   0.362  0.00  0.00    +0.030 A 
ATOM      3  C   UNL     1       0.404  -3.772  -0.238  0.00  0.00    +0.025 A 
ATOM      4  C   UNL     1      -0.329  -2.886   0.541  0.00  0.00    +0.031 A 
ATOM      5  C   UNL     1      -0.323  -2.996   1.923  0.00  0.00    -0.018 A 
ATOM      6  C   UNL     1       0.430  -4.001   2.515  0.00  0.00    +0.034 A 
ATOM      7  C   UNL     1      -1.098  -2.067   2.803  0.00  0.00    +0.049 C 
ATOM      8  C   UNL     1      -0.193  -1.068   3.484  0.00  0.00    -0.023 C 
ATOM      9  C   UNL     1      -0.792   0.093   3.581  0.00  0.00    -0.030 C 
ATOM     10  C   UNL     1      -2.184   0.025   2.983  0.00  0.00    +0.033 C 
ATOM     11  C   UNL     1      -2.104  -1.198   2.023  0.00  0.00    +0.029 C 
ATOM     12  C   UNL     1      -1.471  -0.713   0.716  0.00  0.00    +0.108 C 
ATOM     13  N   UNL     1      -1.074  -1.879  -0.081  0.00  0.00    -0.336 N 
ATOM     14  H   UNL     1      -1.362  -1.944  -1.140  0.00  0.00    +0.147 HD
ENDROOT
BRANCH  12  15
ATOM     15  C   UNL     1      -0.256   0.124   1.025  0.00  0.00    +0.017 A 
ATOM     16  C   UNL     1       0.959  -0.484   1.271  0.00  0.00    +0.041 A 
ATOM     17  C   UNL     1       2.074   0.283   1.554  0.00  0.00    +0.127 A 
ATOM     18  C   UNL     1       1.974   1.662   1.592  0.00  0.00    +0.036 A 
ATOM     19  C   UNL     1       0.762   2.276   1.346  0.00  0.00    +0.048 A 
ATOM     20  C   UNL     1      -0.358   1.507   1.061  0.00  0.00    +0.122 A 
BRANCH  17  21
ATOM     21  N   UNL     1       3.374  -0.371   1.818  0.00  0.00    +0.056 N 
ATOM     22  O   UNL     1       3.462  -1.586   1.785  0.00  0.00    -0.126 OA
ATOM     23  O   UNL     1       4.357   0.304   2.067  0.00  0.00    -0.126 OA
ENDBRANCH  17  21
BRANCH  20  24
ATOM     24  O   UNL     1      -1.551   2.109   0.814  0.00  0.00    -0.506 OA
ATOM     25  H   UNL     1      -1.631   3.206   0.843  0.00  0.00    +0.292 HD
ENDBRANCH  20  24
ENDBRANCH  12  15
BRANCH   1  26
ATOM     26  S   UNL     1       2.110  -6.147   2.511  0.00  0.00    +0.075 S 
ATOM     27  O   UNL     1       1.521  -6.380   3.783  0.00  0.00    -0.150 OA
ATOM     28  O   UNL     1       2.269  -7.178   1.546  0.00  0.00    -0.150 OA
BRANCH  26  29
ATOM     29  N   UNL     1       3.618  -5.526   2.793  0.00  0.00    -0.203 N 
BRANCH  29  30
ATOM     30  C   UNL     1       4.650  -5.757   1.880  0.00  0.00    +0.051 A 
ATOM     31  C   UNL     1       5.260  -4.689   1.235  0.00  0.00    +0.025 A 
ATOM     32  C   UNL     1       6.284  -4.920   0.337  0.00  0.00    +0.002 A 
ATOM     33  C   UNL     1       6.694  -6.214   0.072  0.00  0.00    +0.000 A 
ATOM     34  C   UNL     1       6.085  -7.280   0.709  0.00  0.00    +0.002 A 
ATOM     35  C   UNL     1       5.065  -7.055   1.612  0.00  0.00    +0.025 A 
ENDBRANCH  29  30
BRANCH  29  37
ATOM     36  C   UNL     1       4.439  -5.641   5.094  0.00  0.00    +0.026 C 
ATOM     37  C   UNL     1       3.871  -4.735   3.999  0.00  0.00    +0.128 C 
ENDBRANCH  29  37
ENDBRANCH  26  29
ENDBRANCH   1  26
TORSDOF 7
