REMARK  Name = ZINC08722168
REMARK  4 active torsions:
REMARK  status: ('A' for Active; 'I' for Inactive)
REMARK    1  A    between atoms: C_4  and  C_7
REMARK    2  A    between atoms: C_7  and  N_53
REMARK    3  A    between atoms: C_18  and  C_21
REMARK    4  A    between atoms: C_26  and  N_27
REMARK                            x       y       z     vdW  Elec       q    Type
REMARK                         _______ _______ _______ _____ _____    ______ ____
ROOT
ATOM      1  C   UNL     1       3.654   4.809  -1.490  0.00  0.00    -0.073 C 
ATOM      2  C   UNL     1       4.328   4.695  -2.861  0.00  0.00    +0.018 C 
ATOM      3  C   UNL     1       3.406   5.327  -3.898  0.00  0.00    -0.027 A 
ATOM      4  C   UNL     1       2.101   5.532  -3.607  0.00  0.00    -0.021 A 
ATOM      5  S   UNL     1       1.420   6.276  -5.063  0.00  0.00    -0.080 S 
ATOM      6  C   UNL     1       2.832   6.310  -6.032  0.00  0.00    +0.080 A 
ATOM      7  C   UNL     1       3.830   5.746  -5.223  0.00  0.00    +0.068 A 
ATOM      8  C   UNL     1       5.193   5.638  -5.791  0.00  0.00    +0.248 C 
ATOM      9  O   UNL     1       6.084   5.061  -5.196  0.00  0.00    -0.270 OA
ATOM     10  N   UNL     1       5.407   6.208  -6.996  0.00  0.00    -0.289 N 
ATOM     11  C   UNL     1       4.458   7.110  -7.640  0.00  0.00    +0.192 C 
ATOM     12  N   UNL     1       3.067   6.749  -7.309  0.00  0.00    -0.316 N 
ATOM     13  C   UNL     1       1.412   5.193  -2.323  0.00  0.00    -0.035 C 
ATOM     14  H   UNL     1       6.235   6.007  -7.458  0.00  0.00    +0.151 HD
ATOM     15  H   UNL     1       2.354   6.818  -7.963  0.00  0.00    +0.149 HD
ATOM     16  N   UNL     1       2.285   4.259  -1.571  0.00  0.00    +0.386 N 
ATOM     17  H   UNL     1       2.315   3.359  -2.063  0.00  0.00    -0.081 HD
ENDROOT
BRANCH  11  18
ATOM     18  C   UNL     1       4.724   8.519  -7.177  0.00  0.00    +0.024 A 
ATOM     19  C   UNL     1       5.355   8.740  -5.966  0.00  0.00    +0.059 A 
ATOM     20  C   UNL     1       5.603  10.034  -5.539  0.00  0.00    +0.167 A 
ATOM     21  C   UNL     1       5.213  11.112  -6.332  0.00  0.00    +0.168 A 
ATOM     22  C   UNL     1       4.582  10.883  -7.543  0.00  0.00    +0.082 A 
ATOM     23  C   UNL     1       4.343   9.588  -7.965  0.00  0.00    +0.136 A 
ATOM     24  O   UNL     1       5.565  12.268  -5.698  0.00  0.00    -0.453 OA
ATOM     25  C   UNL     1       5.804  11.899  -4.327  0.00  0.00    +0.466 C 
ATOM     26  O   UNL     1       6.198  10.516  -4.409  0.00  0.00    -0.453 OA
BRANCH  23  27
ATOM     27  N   UNL     1       3.674   9.347  -9.263  0.00  0.00    +0.057 N 
ATOM     28  O   UNL     1       3.438  10.280 -10.010  0.00  0.00    -0.126 OA
ATOM     29  O   UNL     1       3.359   8.215  -9.584  0.00  0.00    -0.126 OA
ENDBRANCH  23  27
ENDBRANCH  11  18
BRANCH  16  30
ATOM     30  C   UNL     1       1.745   4.045  -0.211  0.00  0.00    -0.043 C 
BRANCH  30  34
ATOM     31  C   UNL     1      -1.942   1.910  -0.515  0.00  0.00    +0.000 A 
ATOM     32  C   UNL     1      -0.750   1.219  -0.405  0.00  0.00    +0.000 A 
ATOM     33  C   UNL     1       0.443   1.910  -0.308  0.00  0.00    +0.002 A 
ATOM     34  C   UNL     1       0.444   3.292  -0.316  0.00  0.00    -0.064 A 
ATOM     35  C   UNL     1      -0.749   3.983  -0.421  0.00  0.00    +0.002 A 
ATOM     36  C   UNL     1      -1.942   3.292  -0.517  0.00  0.00    +0.000 A 
ENDBRANCH  30  34
ENDBRANCH  16  30
TORSDOF 4
