REMARK  Name = ZINC06154248
REMARK  11 active torsions:
REMARK  status: ('A' for Active; 'I' for Inactive)
REMARK    1  A    between atoms: C_1  and  C_2
REMARK    2  A    between atoms: C_5  and  N_8
REMARK    3  A    between atoms: N_8  and  S_9
REMARK    4  A    between atoms: S_9  and  C_12
REMARK    5  A    between atoms: C_16  and  C_18
REMARK    6  A    between atoms: N_20  and  C_21
REMARK    7  A    between atoms: C_21  and  C_22
REMARK    8  A    between atoms: C_22  and  C_24
REMARK    9  A    between atoms: C_22  and  N_55
REMARK   10  A    between atoms: C_29  and  N_55
REMARK   11  A    between atoms: C_30  and  N_55
REMARK                            x       y       z     vdW  Elec       q    Type
REMARK                         _______ _______ _______ _____ _____    ______ ____
ROOT
ATOM      1  C   UNL     1       3.231   7.551  -4.926  0.00  0.00    +0.109 A 
ATOM      2  C   UNL     1       3.386   8.704  -4.177  0.00  0.00    +0.029 A 
ATOM      3  C   UNL     1       3.284   8.659  -2.798  0.00  0.00    +0.003 A 
ATOM      4  C   UNL     1       3.021   7.463  -2.161  0.00  0.00    +0.013 A 
ATOM      5  C   UNL     1       2.868   6.296  -2.911  0.00  0.00    +0.039 A 
ATOM      6  C   UNL     1       2.972   6.348  -4.302  0.00  0.00    +0.041 A 
ENDROOT
BRANCH   5   7
ATOM      7  C   UNL     1       2.591   5.011  -2.235  0.00  0.00    +0.244 C 
ATOM      8  O   UNL     1       2.454   3.996  -2.890  0.00  0.00    -0.270 OA
ATOM      9  N   UNL     1       2.491   4.963  -0.891  0.00  0.00    -0.313 N 
ATOM     10  H   UNL     1       2.601   5.773  -0.368  0.00  0.00    +0.149 HD
BRANCH   9  11
ATOM     11  C   UNL     1       2.217   3.690  -0.222  0.00  0.00    +0.094 C 
BRANCH  11  12
ATOM     12  C   UNL     1       2.065   3.927   1.282  0.00  0.00    -0.014 C 
BRANCH  12  13
ATOM     13  C   UNL     1       3.377   4.402   1.851  0.00  0.00    -0.022 A 
ATOM     14  C   UNL     1       4.322   3.698   2.522  0.00  0.00    +0.009 A 
ATOM     15  C   UNL     1       5.461   4.349   2.955  0.00  0.00    +0.008 A 
ATOM     16  C   UNL     1       5.601   5.672   2.697  0.00  0.00    +0.045 A 
ATOM     17  S   UNL     1       4.092   6.037   1.815  0.00  0.00    -0.103 S 
ENDBRANCH  12  13
BRANCH  12  20
ATOM     18  C   UNL     1      -0.245   4.548   0.911  0.00  0.00    -0.096 C 
ATOM     19  C   UNL     1       0.875   5.216   2.951  0.00  0.00    -0.096 C 
ATOM     20  N   UNL     1       1.041   4.970   1.503  0.00  0.00    +0.382 N 
ATOM     21  H   UNL     1       1.348   5.839   1.050  0.00  0.00    -0.082 HD
ENDBRANCH  12  20
ENDBRANCH  11  12
ENDBRANCH   9  11
ENDBRANCH   5   7
BRANCH   1  22
ATOM     22  S   UNL     1       3.362   7.619  -6.682  0.00  0.00    +0.072 S 
ATOM     23  O   UNL     1       4.039   8.829  -6.992  0.00  0.00    -0.150 OA
ATOM     24  O   UNL     1       3.841   6.349  -7.103  0.00  0.00    -0.150 OA
BRANCH  22  25
ATOM     25  N   UNL     1       1.827   7.769  -7.283  0.00  0.00    -0.216 N 
ATOM     26  H   UNL     1       1.444   7.056  -7.818  0.00  0.00    +0.174 HD
BRANCH  25  31
ATOM     27  C   UNL     1      -1.194  12.447  -6.214  0.00  0.00    +0.044 C 
ATOM     28  C   UNL     1      -0.392  11.204  -6.498  0.00  0.00    -0.050 A 
ATOM     29  C   UNL     1       0.653  11.249  -7.403  0.00  0.00    +0.005 A 
ATOM     30  C   UNL     1       1.391  10.111  -7.666  0.00  0.00    +0.025 A 
ATOM     31  C   UNL     1       1.083   8.921  -7.019  0.00  0.00    +0.048 A 
ATOM     32  C   UNL     1       0.029   8.878  -6.115  0.00  0.00    +0.025 A 
ATOM     33  C   UNL     1      -0.701  10.021  -5.853  0.00  0.00    +0.005 A 
ENDBRANCH  25  31
ENDBRANCH  22  25
ENDBRANCH   1  22
TORSDOF 8
