REMARK  Name = ZINC15102692
REMARK  16 active torsions:
REMARK  status: ('A' for Active; 'I' for Inactive)
REMARK    1  A    between atoms: C_1  and  C_2
REMARK    2  A    between atoms: C_5  and  O_8
REMARK    3  A    between atoms: O_8  and  C_9
REMARK    4  A    between atoms: C_9  and  C_10
REMARK    5  A    between atoms: C_10  and  N_71
REMARK    6  A    between atoms: C_11  and  N_71
REMARK    7  A    between atoms: C_12  and  C_13
REMARK    8  A    between atoms: C_12  and  N_71
REMARK    9  A    between atoms: N_15  and  C_16
REMARK   10  A    between atoms: N_15  and  C_20
REMARK   11  A    between atoms: C_16  and  C_17
REMARK   12  A    between atoms: C_17  and  C_18
REMARK   13  A    between atoms: C_17  and  C_19
REMARK   14  A    between atoms: C_21  and  N_36
REMARK   15  A    between atoms: N_22  and  C_29
REMARK   16  A    between atoms: C_29  and  C_30
REMARK                            x       y       z     vdW  Elec       q    Type
REMARK                         _______ _______ _______ _____ _____    ______ ____
ROOT
ATOM      1  C   UNL     1       2.857   5.202   0.329  0.00  0.00    +0.203 C 
ATOM      2  O   UNL     1       1.685   5.503   0.418  0.00  0.00    -0.277 OA
ATOM      3  N   UNL     1       3.211   3.913   0.147  0.00  0.00    -0.266 N 
ENDROOT
BRANCH   3   4
ATOM      4  C   UNL     1       2.218   2.930  -0.052  0.00  0.00    +0.140 A 
ATOM      5  C   UNL     1       1.307   2.641   0.943  0.00  0.00    +0.128 A 
ATOM      6  N   UNL     1       0.350   1.678   0.719  0.00  0.00    -0.276 N 
ATOM      7  C   UNL     1       0.300   1.029  -0.459  0.00  0.00    +0.331 A 
ATOM      8  O   UNL     1      -0.556   0.185  -0.639  0.00  0.00    -0.246 OA
ATOM      9  N   UNL     1       1.183   1.294  -1.438  0.00  0.00    -0.273 N 
ATOM     10  H   UNL     1       1.129   0.792  -2.301  0.00  0.00    +0.173 HD
ATOM     11  C   UNL     1       2.140   2.228  -1.270  0.00  0.00    +0.277 A 
ATOM     12  O   UNL     1       2.932   2.463  -2.166  0.00  0.00    -0.266 OA
BRANCH   5  13
ATOM     13  N   UNL     1       1.355   3.307   2.144  0.00  0.00    -0.343 N 
ATOM     14  H   UNL     1       1.997   4.021   2.277  0.00  0.00    +0.144 HD
ATOM     15  H   UNL     1       0.747   3.062   2.859  0.00  0.00    +0.144 HD
ENDBRANCH   5  13
BRANCH   6  16
ATOM     16  C   UNL     1      -0.623   1.361   1.767  0.00  0.00    +0.163 C 
BRANCH  16  17
ATOM     17  C   UNL     1      -1.834   2.244   1.611  0.00  0.00    -0.028 A 
ATOM     18  C   UNL     1      -1.889   3.463   2.259  0.00  0.00    +0.005 A 
ATOM     19  C   UNL     1      -2.998   4.275   2.113  0.00  0.00    +0.000 A 
ATOM     20  C   UNL     1      -4.057   3.863   1.326  0.00  0.00    +0.000 A 
ATOM     21  C   UNL     1      -4.005   2.641   0.682  0.00  0.00    +0.000 A 
ATOM     22  C   UNL     1      -2.893   1.831   0.824  0.00  0.00    +0.005 A 
ENDBRANCH  16  17
ENDBRANCH   6  16
ENDBRANCH   3   4
BRANCH   1  23
ATOM     23  C   UNL     1       3.917   6.269   0.421  0.00  0.00    +0.019 C 
BRANCH  23  25
ATOM     24  C   UNL     1       2.563   7.913  -0.730  0.00  0.00    -0.095 C 
ATOM     25  N   UNL     1       3.259   7.587   0.533  0.00  0.00    +0.386 N 
ATOM     26  H   UNL     1       2.571   7.553   1.294  0.00  0.00    -0.081 HD
BRANCH  25  27
ATOM     27  C   UNL     1       4.262   8.628   0.840  0.00  0.00    -0.037 C 
BRANCH  27  28
ATOM     28  C   UNL     1       3.534   9.933   1.169  0.00  0.00    +0.210 C 
BRANCH  28  29
ATOM     29  O   UNL     1       2.759   9.759   2.357  0.00  0.00    -0.494 OA
BRANCH  29  34
ATOM     30  C   UNL     1      -0.198  14.202   4.155  0.00  0.00    +0.044 C 
ATOM     31  C   UNL     1       0.593  13.013   3.674  0.00  0.00    -0.050 A 
ATOM     32  C   UNL     1       0.546  11.823   4.376  0.00  0.00    +0.007 A 
ATOM     33  C   UNL     1       1.270  10.732   3.937  0.00  0.00    +0.046 A 
ATOM     34  C   UNL     1       2.045  10.831   2.791  0.00  0.00    +0.120 A 
ATOM     35  C   UNL     1       2.095  12.028   2.091  0.00  0.00    +0.046 A 
ATOM     36  C   UNL     1       1.364  13.114   2.531  0.00  0.00    +0.007 A 
ENDBRANCH  29  34
ENDBRANCH  28  29
ENDBRANCH  27  28
ENDBRANCH  25  27
ENDBRANCH  23  25
ENDBRANCH   1  23
BRANCH   3  37
ATOM     37  C   UNL     1       4.626   3.533   0.157  0.00  0.00    +0.117 C 
BRANCH  37  38
ATOM     38  C   UNL     1       5.090   3.330   1.601  0.00  0.00    +0.001 C 
ATOM     39  C   UNL     1       4.358   2.131   2.208  0.00  0.00    +0.009 C 
ATOM     40  C   UNL     1       6.597   3.071   1.620  0.00  0.00    +0.009 C 
ENDBRANCH  37  38
ENDBRANCH   3  37
TORSDOF 12
