REMARK  Name = ZINC09669687
REMARK  10 active torsions:
REMARK  status: ('A' for Active; 'I' for Inactive)
REMARK    1  A    between atoms: C_1  and  C_2
REMARK    2  A    between atoms: C_2  and  O_3
REMARK    3  A    between atoms: O_3  and  C_4
REMARK    4  A    between atoms: C_4  and  C_6
REMARK    5  A    between atoms: C_7  and  C_19
REMARK    6  A    between atoms: C_12  and  C_14
REMARK    7  A    between atoms: C_19  and  S_20
REMARK    8  A    between atoms: S_20  and  C_21
REMARK    9  A    between atoms: C_24  and  C_27
REMARK   10  A    between atoms: N_25  and  N_26
REMARK                            x       y       z     vdW  Elec       q    Type
REMARK                         _______ _______ _______ _____ _____    ______ ____
ROOT
ATOM      1  C   UNL     1       0.079  -2.818  -0.229  0.00  0.00    +0.128 C 
ENDROOT
BRANCH   1   3
ATOM      2  C   UNL     1      -1.212  -0.763   0.225  0.00  0.00    +0.082 C 
ATOM      3  C   UNL     1      -1.225  -2.074  -0.098  0.00  0.00    +0.034 C 
ATOM      4  N   UNL     1      -2.400  -2.736  -0.309  0.00  0.00    -0.272 N 
ATOM      5  C   UNL     1      -3.605  -2.159  -0.215  0.00  0.00    +0.304 C 
ATOM      6  O   UNL     1      -4.597  -2.831  -0.420  0.00  0.00    -0.252 OA
ATOM      7  N   UNL     1      -3.754  -0.857   0.100  0.00  0.00    -0.285 N 
ATOM      8  C   UNL     1      -2.545  -0.054   0.353  0.00  0.00    +0.179 C 
ATOM      9  H   UNL     1      -2.361  -3.678  -0.540  0.00  0.00    +0.156 HD
ATOM     10  H   UNL     1      -4.636  -0.459   0.163  0.00  0.00    +0.151 HD
BRANCH   8  11
ATOM     11  C   UNL     1      -2.551   1.102  -0.613  0.00  0.00    +0.130 A 
ATOM     12  C   UNL     1      -2.322   2.390  -0.299  0.00  0.00    +0.047 A 
ATOM     13  C   UNL     1      -2.422   3.128  -1.501  0.00  0.00    +0.041 A 
ATOM     14  C   UNL     1      -2.713   2.248  -2.476  0.00  0.00    +0.195 A 
ATOM     15  O   UNL     1      -2.790   1.023  -1.932  0.00  0.00    -0.466 OA
ENDBRANCH   8  11
BRANCH   2  16
ATOM     16  C   UNL     1       0.005  -0.076   0.444  0.00  0.00    +0.339 C 
ATOM     17  O   UNL     1       1.054  -0.692   0.479  0.00  0.00    -0.245 OA
BRANCH  16  18
ATOM     18  O   UNL     1       0.003   1.263   0.613  0.00  0.00    -0.462 OA
BRANCH  18  20
ATOM     19  C   UNL     1       1.067   3.399   0.997  0.00  0.00    +0.048 C 
ATOM     20  C   UNL     1       1.268   1.891   0.829  0.00  0.00    +0.229 C 
ENDBRANCH  18  20
ENDBRANCH  16  18
ENDBRANCH   2  16
ENDBRANCH   1   3
BRANCH   1  21
ATOM     21  S   UNL     1       0.397  -3.750   1.290  0.00  0.00    -0.079 S 
BRANCH  21  22
ATOM     22  C   UNL     1       1.935  -4.501   0.872  0.00  0.00    +0.209 A 
ATOM     23  N   UNL     1       2.591  -4.361  -0.257  0.00  0.00    -0.121 NA
ATOM     24  N   UNL     1       3.675  -5.050  -0.220  0.00  0.00    -0.128 NA
ATOM     25  C   UNL     1       3.775  -5.667   0.924  0.00  0.00    +0.195 A 
ATOM     26  N   UNL     1       2.673  -5.334   1.663  0.00  0.00    -0.225 N 
BRANCH  25  27
ATOM     27  C   UNL     1       4.899  -6.572   1.355  0.00  0.00    +0.280 C 
ATOM     28  C   UNL     1       6.144  -5.735   1.677  0.00  0.00    +0.281 C 
ATOM     29  O   UNL     1       7.195  -6.626   2.069  0.00  0.00    -0.484 OA
ATOM     30  C   UNL     1       7.387  -7.725   1.290  0.00  0.00    +0.162 A 
ATOM     31  C   UNL     1       8.579  -8.427   1.386  0.00  0.00    +0.049 A 
ATOM     32  C   UNL     1       8.787  -9.549   0.606  0.00  0.00    +0.004 A 
ATOM     33  C   UNL     1       7.807  -9.974  -0.272  0.00  0.00    +0.004 A 
ATOM     34  C   UNL     1       6.617  -9.278  -0.374  0.00  0.00    +0.049 A 
ATOM     35  C   UNL     1       6.403  -8.151   0.405  0.00  0.00    +0.163 A 
ATOM     36  O   UNL     1       5.228  -7.474   0.292  0.00  0.00    -0.474 OA
ENDBRANCH  25  27
BRANCH  26  37
ATOM     37  N   UNL     1       2.372  -5.752   2.928  0.00  0.00    -0.295 N 
ATOM     38  H   UNL     1       1.834  -6.605   2.909  0.00  0.00    +0.163 HD
ATOM     39  H   UNL     1       3.209  -5.864   3.481  0.00  0.00    +0.163 HD
ENDBRANCH  26  37
ENDBRANCH  21  22
ENDBRANCH   1  21
TORSDOF 9
