REMARK  Name = ZINC35934230
REMARK  12 active torsions:
REMARK  status: ('A' for Active; 'I' for Inactive)
REMARK    1  A    between atoms: C_1  and  C_2
REMARK    2  A    between atoms: C_2  and  N_3
REMARK    3  A    between atoms: C_6  and  C_11
REMARK    4  A    between atoms: C_16  and  C_17
REMARK    5  A    between atoms: N_23  and  C_25
REMARK    6  A    between atoms: C_25  and  C_27
REMARK    7  A    between atoms: C_25  and  C_34
REMARK    8  A    between atoms: C_27  and  C_28
REMARK    9  A    between atoms: N_36  and  C_37
REMARK   10  A    between atoms: N_36  and  C_38
REMARK   11  A    between atoms: C_38  and  C_39
REMARK   12  A    between atoms: C_38  and  C_40
REMARK                            x       y       z     vdW  Elec       q    Type
REMARK                         _______ _______ _______ _____ _____    ______ ____
ROOT
ATOM      1  N   UNL     1       1.972  -0.629   0.706  0.00  0.00    -0.257 N 
ATOM      2  C   UNL     1       3.214  -1.074   1.059  0.00  0.00    +0.042 C 
ATOM      3  C   UNL     1       3.477  -1.488   2.315  0.00  0.00    +0.058 C 
ATOM      4  C   UNL     1       2.347  -1.442   3.323  0.00  0.00    +0.142 C 
ATOM      5  N   UNL     1       1.046  -0.947   2.844  0.00  0.00    -0.288 N 
ATOM      6  C   UNL     1       0.939  -0.563   1.556  0.00  0.00    +0.307 C 
ATOM      7  O   UNL     1      -0.130  -0.149   1.152  0.00  0.00    -0.252 OA
ATOM      8  C   UNL     1       4.822  -1.896   2.425  0.00  0.00    +0.247 C 
ATOM      9  O   UNL     1       5.332  -2.317   3.448  0.00  0.00    -0.270 OA
ATOM     10  N   UNL     1       5.468  -1.762   1.253  0.00  0.00    -0.280 N 
ATOM     11  C   UNL     1       4.502  -1.227   0.282  0.00  0.00    +0.160 C 
ATOM     12  H   UNL     1       0.284  -0.894   3.442  0.00  0.00    +0.151 HD
ENDROOT
BRANCH   4  13
ATOM     13  C   UNL     1       2.782  -0.568   4.471  0.00  0.00    -0.011 A 
ATOM     14  C   UNL     1       2.870   0.801   4.301  0.00  0.00    +0.006 A 
ATOM     15  C   UNL     1       3.270   1.603   5.354  0.00  0.00    +0.000 A 
ATOM     16  C   UNL     1       3.581   1.036   6.576  0.00  0.00    +0.001 A 
ATOM     17  C   UNL     1       3.492  -0.333   6.745  0.00  0.00    +0.013 A 
ATOM     18  C   UNL     1       3.088  -1.134   5.694  0.00  0.00    +0.060 A 
BRANCH  18  19
ATOM     19  C   UNL     1       2.986  -2.626   5.880  0.00  0.00    +0.418 C 
ATOM     20  F   UNL     1       3.407  -2.965   7.170  0.00  0.00    -0.166 F 
ATOM     21  F   UNL     1       1.658  -3.029   5.702  0.00  0.00    -0.166 F 
ATOM     22  F   UNL     1       3.798  -3.270   4.940  0.00  0.00    -0.166 F 
ENDBRANCH  18  19
ENDBRANCH   4  13
BRANCH   1  24
ATOM     23  C   UNL     1       2.070   1.299  -0.796  0.00  0.00    +0.025 C 
ATOM     24  C   UNL     1       1.759  -0.195  -0.677  0.00  0.00    +0.111 C 
ENDBRANCH   1  24
BRANCH  10  25
ATOM     25  C   UNL     1       6.873  -2.086   0.993  0.00  0.00    +0.167 C 
BRANCH  25  26
ATOM     26  C   UNL     1       7.110  -3.549   1.269  0.00  0.00    +0.236 C 
ATOM     27  O   UNL     1       6.196  -4.250   1.646  0.00  0.00    -0.274 OA
ATOM     28  N   UNL     1       8.338  -4.077   1.097  0.00  0.00    -0.300 N 
ATOM     29  C   UNL     1       9.443  -3.229   0.641  0.00  0.00    +0.132 C 
BRANCH  28  30
ATOM     30  C   UNL     1       8.569  -5.498   1.365  0.00  0.00    +0.070 C 
ATOM     31  C   UNL     1       9.060  -6.185   0.090  0.00  0.00    +0.028 C 
ATOM     32  C   UNL     1       9.624  -5.645   2.463  0.00  0.00    +0.028 C 
ENDBRANCH  28  30
ENDBRANCH  25  26
BRANCH  25  33
ATOM     33  C   UNL     1       7.769  -1.244   1.903  0.00  0.00    +0.067 C 
BRANCH  33  34
ATOM     34  C   UNL     1       7.623   0.212   1.543  0.00  0.00    -0.045 A 
ATOM     35  C   UNL     1       8.449   0.774   0.588  0.00  0.00    +0.004 A 
ATOM     36  C   UNL     1       8.315   2.110   0.258  0.00  0.00    +0.000 A 
ATOM     37  C   UNL     1       7.355   2.884   0.882  0.00  0.00    +0.000 A 
ATOM     38  C   UNL     1       6.528   2.321   1.837  0.00  0.00    +0.000 A 
ATOM     39  C   UNL     1       6.659   0.985   2.164  0.00  0.00    +0.004 A 
ENDBRANCH  33  34
ENDBRANCH  25  33
ENDBRANCH  10  25
TORSDOF 8
