REMARK  Name = ZINC01419013
REMARK  13 active torsions:
REMARK  status: ('A' for Active; 'I' for Inactive)
REMARK    1  A    between atoms: C_1  and  N_2
REMARK    2  A    between atoms: N_2  and  C_3
REMARK    3  A    between atoms: N_2  and  C_4
REMARK    4  A    between atoms: C_7  and  N_10
REMARK    5  A    between atoms: C_11  and  C_13
REMARK    6  A    between atoms: C_13  and  C_15
REMARK    7  A    between atoms: C_13  and  N_22
REMARK    8  A    between atoms: N_22  and  C_23
REMARK    9  A    between atoms: C_23  and  C_24
REMARK   10  A    between atoms: C_27  and  O_30
REMARK   11  A    between atoms: O_30  and  C_31
REMARK   12  A    between atoms: C_32  and  C_34
REMARK   13  A    between atoms: C_34  and  N_35
REMARK                            x       y       z     vdW  Elec       q    Type
REMARK                         _______ _______ _______ _____ _____    ______ ____
ROOT
ATOM      1  N   UNL     1      -1.435   2.685  -0.451  0.00  0.00    -0.284 N 
ATOM      2  C   UNL     1      -0.136   2.327  -0.413  0.00  0.00    +0.238 C 
ATOM      3  O   UNL     1       0.168   1.164  -0.246  0.00  0.00    -0.274 OA
ENDROOT
BRANCH   1   4
ATOM      4  C   UNL     1      -2.477   1.691  -0.183  0.00  0.00    +0.166 C 
BRANCH   4   5
ATOM      5  C   UNL     1      -2.205   1.019   1.165  0.00  0.00    +0.023 C 
ATOM      6  C   UNL     1      -2.197   2.076   2.276  0.00  0.00    +0.010 C 
ATOM      7  C   UNL     1      -1.749   1.407   3.577  0.00  0.00    +0.027 C 
ATOM      8  C   UNL     1      -2.533   0.148   3.808  0.00  0.00    -0.031 C 
ATOM      9  C   UNL     1      -3.209  -0.463   2.889  0.00  0.00    -0.031 C 
ATOM     10  C   UNL     1      -3.313   0.007   1.468  0.00  0.00    +0.032 C 
ENDBRANCH   4   5
BRANCH   4  12
ATOM     11  N   UNL     1      -3.552  -0.133  -1.462  0.00  0.00    -0.284 N 
ATOM     12  C   UNL     1      -2.471   0.650  -1.273  0.00  0.00    +0.238 C 
ATOM     13  O   UNL     1      -1.495   0.517  -1.980  0.00  0.00    -0.273 OA
ATOM     14  H   UNL     1      -4.358   0.020  -0.945  0.00  0.00    +0.155 HD
BRANCH  11  18
ATOM     15  C   UNL     1      -3.429  -3.210  -4.275  0.00  0.00    +0.029 A 
ATOM     16  C   UNL     1      -2.280  -2.860  -3.579  0.00  0.00    +0.025 A 
ATOM     17  C   UNL     1      -2.321  -1.841  -2.647  0.00  0.00    +0.025 A 
ATOM     18  C   UNL     1      -3.511  -1.167  -2.407  0.00  0.00    +0.034 A 
ATOM     19  C   UNL     1      -4.661  -1.521  -3.099  0.00  0.00    +0.025 A 
ATOM     20  C   UNL     1      -4.620  -2.536  -4.034  0.00  0.00    +0.025 A 
BRANCH  15  22
ATOM     21  C   UNL     1      -2.133  -4.953  -5.473  0.00  0.00    +0.129 C 
ATOM     22  N   UNL     1      -3.388  -4.242  -5.218  0.00  0.00    -0.336 N 
ATOM     23  C   UNL     1      -4.601  -4.612  -5.953  0.00  0.00    +0.129 C 
ENDBRANCH  15  22
ENDBRANCH  11  18
ENDBRANCH   4  12
ENDBRANCH   1   4
BRANCH   1  24
ATOM     24  C   UNL     1      -1.804   4.068  -0.762  0.00  0.00    +0.143 C 
BRANCH  24  25
ATOM     25  C   UNL     1      -2.096   4.191  -2.235  0.00  0.00    -0.030 A 
ATOM     26  C   UNL     1      -1.079   4.510  -3.116  0.00  0.00    +0.009 A 
ATOM     27  C   UNL     1      -1.343   4.618  -4.468  0.00  0.00    +0.046 A 
ATOM     28  C   UNL     1      -2.632   4.417  -4.940  0.00  0.00    +0.120 A 
ATOM     29  C   UNL     1      -3.652   4.103  -4.053  0.00  0.00    +0.046 A 
ATOM     30  C   UNL     1      -3.382   3.990  -2.703  0.00  0.00    +0.009 A 
BRANCH  28  31
ATOM     31  O   UNL     1      -2.895   4.528  -6.268  0.00  0.00    -0.495 OA
ATOM     32  C   UNL     1      -1.797   4.854  -7.122  0.00  0.00    +0.277 C 
ENDBRANCH  28  31
ENDBRANCH  24  25
ENDBRANCH   1  24
BRANCH   2  33
ATOM     33  C   UNL     1       0.939   3.369  -0.583  0.00  0.00    +0.241 C 
BRANCH  33  34
ATOM     34  N   UNL     1       2.252   2.757  -0.367  0.00  0.00    -0.235 N 
ATOM     35  C   UNL     1       3.053   2.173  -1.319  0.00  0.00    +0.090 A 
ATOM     36  C   UNL     1       2.932   1.966  -2.689  0.00  0.00    +0.029 A 
ATOM     37  C   UNL     1       3.934   1.334  -3.372  0.00  0.00    +0.002 A 
ATOM     38  C   UNL     1       5.074   0.896  -2.710  0.00  0.00    +0.002 A 
ATOM     39  C   UNL     1       5.216   1.087  -1.367  0.00  0.00    +0.032 A 
ATOM     40  C   UNL     1       4.204   1.732  -0.643  0.00  0.00    +0.113 A 
ATOM     41  N   UNL     1       4.063   2.056   0.658  0.00  0.00    -0.129 NA
ATOM     42  N   UNL     1       2.942   2.657   0.850  0.00  0.00    -0.064 NA
ENDBRANCH  33  34
ENDBRANCH   2  33
TORSDOF 10
