REMARK  Name = ZINC41787009
REMARK  10 active torsions:
REMARK  status: ('A' for Active; 'I' for Inactive)
REMARK    1  A    between atoms: C_1  and  C_2
REMARK    2  A    between atoms: C_5  and  N_13
REMARK    3  A    between atoms: C_7  and  N_8
REMARK    4  A    between atoms: C_14  and  C_16
REMARK    5  A    between atoms: N_18  and  C_19
REMARK    6  A    between atoms: C_19  and  C_20
REMARK    7  A    between atoms: C_20  and  C_21
REMARK    8  A    between atoms: C_21  and  C_22
REMARK    9  A    between atoms: C_22  and  N_23
REMARK   10  A    between atoms: C_28  and  C_30
REMARK                            x       y       z     vdW  Elec       q    Type
REMARK                         _______ _______ _______ _____ _____    ______ ____
ROOT
ATOM      1  N   UNL     1      -0.036  -4.358  -0.443  0.00  0.00    -0.278 N 
ATOM      2  C   UNL     1      -0.141  -4.894  -1.675  0.00  0.00    +0.303 C 
ATOM      3  O   UNL     1      -0.289  -4.173  -2.640  0.00  0.00    -0.265 OA
ATOM      4  H   UNL     1       0.008  -4.935   0.335  0.00  0.00    +0.155 HD
ENDROOT
BRANCH   1   9
ATOM      5  C   UNL     1       0.143   1.278   0.205  0.00  0.00    +0.046 C 
ATOM      6  C   UNL     1       0.096  -0.218   0.032  0.00  0.00    -0.025 A 
ATOM      7  C   UNL     1      -0.509  -1.006   0.993  0.00  0.00    +0.007 A 
ATOM      8  C   UNL     1      -0.554  -2.378   0.838  0.00  0.00    +0.024 A 
ATOM      9  C   UNL     1       0.009  -2.970  -0.286  0.00  0.00    +0.036 A 
ATOM     10  C   UNL     1       0.616  -2.181  -1.254  0.00  0.00    +0.051 A 
ATOM     11  C   UNL     1       0.655  -0.803  -1.097  0.00  0.00    +0.073 A 
BRANCH  11  12
ATOM     12  N   UNL     1       1.263  -0.002  -2.075  0.00  0.00    -0.200 N 
ATOM     13  C   UNL     1       2.459  -0.201  -2.669  0.00  0.00    +0.250 A 
ATOM     14  N   UNL     1       2.639   0.780  -3.515  0.00  0.00    -0.116 NA
ATOM     15  N   UNL     1       1.639   1.584  -3.496  0.00  0.00    -0.023 NA
ATOM     16  N   UNL     1       0.755   1.176  -2.650  0.00  0.00    -0.039 NA
ENDBRANCH  11  12
ENDBRANCH   1   9
BRANCH   2  17
ATOM     17  C   UNL     1      -0.074  -6.375  -1.853  0.00  0.00    +0.299 C 
ATOM     18  O   UNL     1       0.074  -7.096  -0.888  0.00  0.00    -0.265 OA
ATOM     19  N   UNL     1      -0.179  -6.912  -3.085  0.00  0.00    -0.308 N 
ATOM     20  H   UNL     1      -0.297  -6.335  -3.856  0.00  0.00    +0.149 HD
BRANCH  19  21
ATOM     21  C   UNL     1      -0.113  -8.365  -3.259  0.00  0.00    +0.104 C 
BRANCH  21  22
ATOM     22  C   UNL     1      -0.257  -8.707  -4.743  0.00  0.00    +0.017 C 
BRANCH  22  23
ATOM     23  C   UNL     1      -0.189 -10.225  -4.926  0.00  0.00    -0.017 C 
BRANCH  23  24
ATOM     24  C   UNL     1      -0.333 -10.567  -6.410  0.00  0.00    -0.078 C 
BRANCH  24  25
ATOM     25  N   UNL     1      -0.267 -12.024  -6.585  0.00  0.00    +0.381 N 
ATOM     26  C   UNL     1      -1.418 -12.648  -5.920  0.00  0.00    -0.078 C 
ATOM     27  C   UNL     1      -1.312 -14.170  -6.030  0.00  0.00    -0.019 C 
ATOM     28  C   UNL     1      -1.295 -14.570  -7.508  0.00  0.00    -0.003 C 
ATOM     29  C   UNL     1      -0.135 -13.856  -8.207  0.00  0.00    -0.016 C 
ATOM     30  C   UNL     1      -0.285 -12.345  -8.017  0.00  0.00    -0.072 C 
ATOM     31  C   UNL     1       0.873 -11.627  -8.714  0.00  0.00    -0.013 C 
ATOM     32  H   UNL     1       0.586 -12.374  -6.173  0.00  0.00    -0.081 HD
ENDBRANCH  24  25
ENDBRANCH  23  24
ENDBRANCH  22  23
ENDBRANCH  21  22
ENDBRANCH  19  21
ENDBRANCH   2  17
TORSDOF 8
