REMARK  Name = ZINC03049895
REMARK  6 active torsions:
REMARK  status: ('A' for Active; 'I' for Inactive)
REMARK    1  A    between atoms: C_1  and  C_2
REMARK    2  A    between atoms: C_9  and  C_11
REMARK    3  A    between atoms: C_15  and  N_17
REMARK    4  A    between atoms: C_18  and  C_19
REMARK    5  A    between atoms: C_21  and  C_27
REMARK    6  A    between atoms: C_24  and  O_25
REMARK                            x       y       z     vdW  Elec       q    Type
REMARK                         _______ _______ _______ _____ _____    ______ ____
ROOT
ATOM      1  C   UNL     1       3.123   7.682   0.859  0.00  0.00    +0.039 A 
ATOM      2  C   UNL     1       2.249   8.367   0.010  0.00  0.00    +0.013 A 
ATOM      3  C   UNL     1       1.405   7.666  -0.828  0.00  0.00    +0.003 A 
ATOM      4  C   UNL     1       1.418   6.285  -0.834  0.00  0.00    +0.028 A 
ATOM      5  C   UNL     1       2.286   5.588   0.009  0.00  0.00    +0.065 A 
ATOM      6  C   UNL     1       3.138   6.289   0.862  0.00  0.00    +0.041 A 
ENDROOT
BRANCH   1  15
ATOM      7  C   UNL     1       7.024  12.600   4.756  0.00  0.00    +0.044 C 
ATOM      8  C   UNL     1       6.497  11.294   4.221  0.00  0.00    -0.047 A 
ATOM      9  C   UNL     1       7.005  10.096   4.702  0.00  0.00    +0.005 A 
ATOM     10  C   UNL     1       6.534   8.895   4.222  0.00  0.00    +0.032 A 
ATOM     11  C   UNL     1       5.537   8.883   3.244  0.00  0.00    +0.110 A 
ATOM     12  C   UNL     1       5.025  10.098   2.759  0.00  0.00    +0.156 A 
ATOM     13  C   UNL     1       5.512  11.298   3.255  0.00  0.00    +0.052 A 
ATOM     14  O   UNL     1       4.094   9.777   1.833  0.00  0.00    -0.435 OA
ATOM     15  C   UNL     1       4.026   8.435   1.755  0.00  0.00    +0.228 A 
ATOM     16  N   UNL     1       4.881   7.894   2.586  0.00  0.00    -0.209 NA
ENDBRANCH   1  15
BRANCH   5  17
ATOM     17  N   UNL     1       2.298   4.219   0.002  0.00  0.00    -0.255 NA
ATOM     18  C   UNL     1       1.174   3.558   0.009  0.00  0.00    +0.123 C 
BRANCH  18  19
ATOM     19  C   UNL     1       1.186   2.087   0.002  0.00  0.00    +0.036 A 
ATOM     20  C   UNL     1      -0.017   1.374   0.010  0.00  0.00    +0.016 A 
ATOM     21  C   UNL     1       0.002  -0.004   0.002  0.00  0.00    -0.049 A 
ATOM     22  C   UNL     1       1.207  -0.687  -0.013  0.00  0.00    +0.022 A 
ATOM     23  C   UNL     1       2.404   0.005  -0.020  0.00  0.00    +0.060 A 
ATOM     24  C   UNL     1       2.405   1.392  -0.013  0.00  0.00    +0.139 A 
ATOM     25 BR   UNL     1       4.041  -0.941  -0.040  0.00  0.00    -0.046 Br
ATOM     26  C   UNL     1      -1.295  -0.772   0.010  0.00  0.00    +0.044 C 
BRANCH  24  27
ATOM     27  O   UNL     1       3.579   2.073  -0.021  0.00  0.00    -0.505 OA
ATOM     28  H   UNL     1       4.532   1.525  -0.033  0.00  0.00    +0.292 HD
ENDBRANCH  24  27
ENDBRANCH  18  19
ENDBRANCH   5  17
TORSDOF 4
