REMARK  Name = ZINC19908252
REMARK  14 active torsions:
REMARK  status: ('A' for Active; 'I' for Inactive)
REMARK    1  A    between atoms: C_1  and  C_2
REMARK    2  A    between atoms: C_2  and  C_3
REMARK    3  A    between atoms: C_2  and  C_4
REMARK    4  A    between atoms: C_2  and  N_5
REMARK    5  A    between atoms: C_6  and  C_8
REMARK    6  A    between atoms: C_9  and  O_25
REMARK    7  A    between atoms: C_11  and  C_17
REMARK    8  A    between atoms: C_12  and  O_15
REMARK    9  A    between atoms: O_15  and  C_16
REMARK   10  A    between atoms: N_19  and  C_20
REMARK   11  A    between atoms: C_20  and  C_21
REMARK   12  A    between atoms: C_20  and  C_22
REMARK   13  A    between atoms: C_20  and  C_23
REMARK   14  A    between atoms: O_25  and  C_26
REMARK                            x       y       z     vdW  Elec       q    Type
REMARK                         _______ _______ _______ _____ _____    ______ ____
ROOT
ATOM      1  C   UNL     1       0.624  -2.152   0.995  0.00  0.00    +0.097 A 
ATOM      2  C   UNL     1      -0.411  -2.870   1.608  0.00  0.00    +0.148 A 
ATOM      3  C   UNL     1      -0.392  -4.255   1.601  0.00  0.00    +0.076 A 
ATOM      4  C   UNL     1       0.658  -4.935   0.982  0.00  0.00    +0.097 A 
ATOM      5  C   UNL     1       1.693  -4.217   0.368  0.00  0.00    +0.148 A 
ATOM      6  C   UNL     1       1.672  -2.833   0.372  0.00  0.00    +0.076 A 
ATOM      7 BR   UNL     1       3.066  -1.864  -0.462  0.00  0.00    -0.046 Br
ATOM      8 BR   UNL     1      -1.789  -5.224   2.428  0.00  0.00    -0.046 Br
ENDROOT
BRANCH   1  10
ATOM      9  N   UNL     1       0.002  -0.004   0.002  0.00  0.00    -0.306 N 
ATOM     10  C   UNL     1       0.604  -0.675   1.004  0.00  0.00    +0.249 C 
ATOM     11  O   UNL     1       1.131  -0.065   1.914  0.00  0.00    -0.270 OA
ATOM     12  H   UNL     1      -0.474  -0.556  -0.822  0.00  0.00    +0.150 HD
BRANCH   9  14
ATOM     13  C   UNL     1       1.418   1.990  -0.001  0.00  0.00    +0.031 C 
ATOM     14  C   UNL     1      -0.018   1.461   0.010  0.00  0.00    +0.026 C 
ATOM     15  C   UNL     1      -0.758   1.968  -1.230  0.00  0.00    +0.031 C 
ATOM     16  C   UNL     1      -0.734   1.954   1.269  0.00  0.00    +0.031 C 
ENDBRANCH   9  14
ENDBRANCH   1  10
BRANCH   4  17
ATOM     17  C   UNL     1       0.678  -6.412   0.973  0.00  0.00    +0.249 C 
ATOM     18  O   UNL     1       0.150  -7.022   0.063  0.00  0.00    -0.270 OA
ATOM     19  N   UNL     1       1.280  -7.084   1.974  0.00  0.00    -0.306 N 
ATOM     20  H   UNL     1       1.758  -6.532   2.797  0.00  0.00    +0.150 HD
BRANCH  19  21
ATOM     21  C   UNL     1       1.300  -8.549   1.966  0.00  0.00    +0.026 C 
ATOM     22  C   UNL     1       2.015  -9.042   0.707  0.00  0.00    +0.031 C 
ATOM     23  C   UNL     1       2.041  -9.056   3.205  0.00  0.00    +0.031 C 
ATOM     24  C   UNL     1      -0.135  -9.078   1.977  0.00  0.00    +0.031 C 
ENDBRANCH  19  21
ENDBRANCH   4  17
BRANCH   5  25
ATOM     25  O   UNL     1       2.714  -4.879  -0.234  0.00  0.00    -0.493 OA
ATOM     26  C   UNL     1       2.554  -5.197  -1.618  0.00  0.00    +0.277 C 
ENDBRANCH   5  25
BRANCH   2  27
ATOM     27  O   UNL     1      -1.433  -2.209   2.210  0.00  0.00    -0.493 OA
ATOM     28  C   UNL     1      -2.568  -1.895   1.401  0.00  0.00    +0.277 C 
ENDBRANCH   2  27
TORSDOF 6
