REMARK  Name = ZINC03360360
REMARK  10 active torsions:
REMARK  status: ('A' for Active; 'I' for Inactive)
REMARK    1  A    between atoms: C_1  and  N_2
REMARK    2  A    between atoms: C_3  and  N_36
REMARK    3  A    between atoms: C_4  and  C_11
REMARK    4  A    between atoms: N_7  and  C_10
REMARK    5  A    between atoms: C_11  and  C_13
REMARK    6  A    between atoms: C_13  and  S_14
REMARK    7  A    between atoms: S_14  and  C_15
REMARK    8  A    between atoms: N_25  and  C_26
REMARK    9  A    between atoms: C_29  and  O_32
REMARK   10  A    between atoms: O_32  and  C_33
REMARK                            x       y       z     vdW  Elec       q    Type
REMARK                         _______ _______ _______ _____ _____    ______ ____
ROOT
ATOM      1  C   UNL     1      -0.134   1.200  -2.443  0.00  0.00    +0.177 A 
ATOM      2  N   UNL     1       0.888   2.016  -2.369  0.00  0.00    -0.223 NA
ATOM      3  C   UNL     1       2.152   1.558  -2.267  0.00  0.00    +0.079 A 
ATOM      4  C   UNL     1       3.243   2.429  -2.189  0.00  0.00    +0.028 A 
ATOM      5  C   UNL     1       4.508   1.922  -2.087  0.00  0.00    +0.002 A 
ATOM      6  C   UNL     1       4.728   0.551  -2.059  0.00  0.00    +0.001 A 
ATOM      7  C   UNL     1       3.681  -0.327  -2.134  0.00  0.00    +0.015 A 
ATOM      8  C   UNL     1       2.380   0.163  -2.239  0.00  0.00    +0.065 A 
ATOM      9  C   UNL     1       1.218  -0.732  -2.323  0.00  0.00    +0.267 A 
ATOM     10  O   UNL     1       1.351  -1.942  -2.305  0.00  0.00    -0.267 OA
ATOM     11  N   UNL     1      -0.005  -0.161  -2.423  0.00  0.00    -0.255 N 
ENDROOT
BRANCH  11  12
ATOM     12  C   UNL     1      -1.147  -0.970  -2.506  0.00  0.00    +0.052 A 
ATOM     13  C   UNL     1      -1.839  -1.315  -1.352  0.00  0.00    +0.030 A 
ATOM     14  C   UNL     1      -2.966  -2.108  -1.435  0.00  0.00    +0.048 A 
ATOM     15  C   UNL     1      -3.400  -2.570  -2.669  0.00  0.00    +0.127 A 
ATOM     16  C   UNL     1      -2.706  -2.230  -3.821  0.00  0.00    +0.048 A 
ATOM     17  C   UNL     1      -1.582  -1.433  -3.740  0.00  0.00    +0.030 A 
BRANCH  15  18
ATOM     18  O   UNL     1      -4.507  -3.356  -2.749  0.00  0.00    -0.434 OA
BRANCH  18  19
ATOM     19  C   UNL     1      -5.172  -3.666  -1.523  0.00  0.00    +0.541 C 
ATOM     20  F   UNL     1      -4.291  -4.343  -0.672  0.00  0.00    -0.166 F 
ATOM     21  F   UNL     1      -5.596  -2.482  -0.910  0.00  0.00    -0.166 F 
ENDBRANCH  18  19
ENDBRANCH  15  18
ENDBRANCH  11  12
BRANCH   1  22
ATOM     22  S   UNL     1      -1.750   1.889  -2.581  0.00  0.00    -0.079 S 
BRANCH  22  23
ATOM     23  C   UNL     1      -1.343   3.652  -2.560  0.00  0.00    +0.157 C 
BRANCH  23  24
ATOM     24  C   UNL     1      -2.610   4.461  -2.670  0.00  0.00    +0.182 C 
ATOM     25  O   UNL     1      -3.684   3.900  -2.755  0.00  0.00    -0.291 OA
BRANCH  24  29
ATOM     26  C   UNL     1      -4.824   8.828  -2.646  0.00  0.00    +0.155 C 
ATOM     27  N   UNL     1      -3.610   8.010  -2.663  0.00  0.00    -0.284 N 
ATOM     28  C   UNL     1      -3.720   6.648  -2.663  0.00  0.00    +0.116 A 
ATOM     29  C   UNL     1      -2.549   5.871  -2.675  0.00  0.00    +0.120 A 
ATOM     30  C   UNL     1      -1.259   6.574  -2.697  0.00  0.00    +0.269 A 
ATOM     31  O   UNL     1      -0.213   5.952  -2.713  0.00  0.00    -0.267 OA
ATOM     32  N   UNL     1      -1.258   7.923  -2.700  0.00  0.00    -0.263 N 
ATOM     33  C   UNL     1      -2.411   8.612  -2.684  0.00  0.00    +0.333 A 
ATOM     34  O   UNL     1      -2.366   9.827  -2.688  0.00  0.00    -0.246 OA
ATOM     35  C   UNL     1       0.016   8.645  -2.723  0.00  0.00    +0.157 C 
BRANCH  28  36
ATOM     36  N   UNL     1      -4.944   6.054  -2.648  0.00  0.00    -0.344 N 
ATOM     37  H   UNL     1      -5.040   5.151  -2.307  0.00  0.00    +0.144 HD
ATOM     38  H   UNL     1      -5.720   6.533  -2.978  0.00  0.00    +0.144 HD
ENDBRANCH  28  36
ENDBRANCH  24  29
ENDBRANCH  23  24
ENDBRANCH  22  23
ENDBRANCH   1  22
TORSDOF 8
