REMARK  Name = ZINC03376196
REMARK  11 active torsions:
REMARK  status: ('A' for Active; 'I' for Inactive)
REMARK    1  A    between atoms: C_1  and  C_2
REMARK    2  A    between atoms: C_2  and  C_4
REMARK    3  A    between atoms: C_2  and  N_51
REMARK    4  A    between atoms: C_7  and  S_16
REMARK    5  A    between atoms: N_8  and  C_9
REMARK    6  A    between atoms: S_16  and  C_17
REMARK    7  A    between atoms: C_17  and  C_18
REMARK    8  A    between atoms: N_20  and  C_21
REMARK    9  A    between atoms: C_22  and  C_26
REMARK   10  A    between atoms: C_29  and  N_51
REMARK   11  A    between atoms: C_30  and  N_51
REMARK                            x       y       z     vdW  Elec       q    Type
REMARK                         _______ _______ _______ _____ _____    ______ ____
ROOT
ATOM      1  C   UNL     1      -1.451   3.475   2.510  0.00  0.00    +0.125 A 
ATOM      2  N   UNL     1      -2.567   2.993   2.978  0.00  0.00    -0.135 NA
ATOM      3  N   UNL     1      -2.891   3.601   4.063  0.00  0.00    -0.122 NA
ATOM      4  C   UNL     1      -1.996   4.519   4.346  0.00  0.00    +0.197 A 
ATOM      5  N   UNL     1      -1.047   4.468   3.362  0.00  0.00    -0.275 N 
ENDROOT
BRANCH   5   6
ATOM      6  C   UNL     1       0.102   5.267   3.250  0.00  0.00    +0.050 A 
ATOM      7  C   UNL     1       1.361   4.692   3.354  0.00  0.00    +0.028 A 
ATOM      8  C   UNL     1       2.490   5.479   3.237  0.00  0.00    +0.022 A 
ATOM      9  C   UNL     1       2.366   6.841   3.029  0.00  0.00    +0.041 A 
ATOM     10  C   UNL     1       1.112   7.417   2.930  0.00  0.00    +0.022 A 
ATOM     11  C   UNL     1      -0.020   6.633   3.040  0.00  0.00    +0.028 A 
ATOM     12 CL   UNL     1       3.787   7.829   2.890  0.00  0.00    -0.084 Cl
ENDBRANCH   5   6
BRANCH   1  14
ATOM     13  C   UNL     1      -1.486   3.553   0.032  0.00  0.00    -0.005 C 
ATOM     14  C   UNL     1      -0.740   3.027   1.259  0.00  0.00    -0.003 C 
BRANCH  14  17
ATOM     15  C   UNL     1      -0.013   1.086   0.008  0.00  0.00    -0.096 C 
ATOM     16  C   UNL     1      -0.072   1.015   2.428  0.00  0.00    -0.096 C 
ATOM     17  N   UNL     1      -0.727   1.550   1.216  0.00  0.00    +0.382 N 
ATOM     18  H   UNL     1      -1.695   1.209   1.182  0.00  0.00    -0.082 HD
ENDBRANCH  14  17
ENDBRANCH   1  14
BRANCH   4  19
ATOM     19  S   UNL     1      -2.014   5.610   5.729  0.00  0.00    -0.076 S 
BRANCH  19  20
ATOM     20  C   UNL     1      -3.543   5.071   6.534  0.00  0.00    +0.173 C 
BRANCH  20  21
ATOM     21  C   UNL     1      -3.770   5.889   7.780  0.00  0.00    +0.228 C 
ATOM     22  O   UNL     1      -2.977   6.751   8.092  0.00  0.00    -0.275 OA
ATOM     23  N   UNL     1      -4.856   5.662   8.546  0.00  0.00    -0.279 N 
ATOM     24  H   UNL     1      -5.490   4.972   8.296  0.00  0.00    +0.155 HD
BRANCH  23  25
ATOM     25  C   UNL     1      -5.065   6.414   9.692  0.00  0.00    +0.084 A 
ATOM     26  C   UNL     1      -6.116   6.334  10.598  0.00  0.00    +0.065 A 
ATOM     27  C   UNL     1      -6.080   7.246  11.716  0.00  0.00    +0.022 A 
ATOM     28  C   UNL     1      -5.042   8.099  11.780  0.00  0.00    +0.048 A 
ATOM     29  S   UNL     1      -4.084   7.688  10.336  0.00  0.00    -0.081 S 
BRANCH  26  30
ATOM     30  C   UNL     1      -7.205   5.367  10.428  0.00  0.00    +0.244 C 
ATOM     31  O   UNL     1      -7.204   4.610   9.475  0.00  0.00    -0.270 OA
ATOM     32  N   UNL     1      -8.208   5.317  11.327  0.00  0.00    -0.325 N 
ATOM     33  H   UNL     1      -8.209   5.921  12.086  0.00  0.00    +0.145 HD
ATOM     34  H   UNL     1      -8.929   4.678  11.214  0.00  0.00    +0.145 HD
ENDBRANCH  26  30
ENDBRANCH  23  25
ENDBRANCH  20  21
ENDBRANCH  19  20
ENDBRANCH   4  19
TORSDOF 8
