REMARK  Name = ZINC02343108
REMARK  5 active torsions:
REMARK  status: ('A' for Active; 'I' for Inactive)
REMARK    1  A    between atoms: C_1  and  N_51
REMARK    2  A    between atoms: C_12  and  C_15
REMARK    3  A    between atoms: C_18  and  O_21
REMARK    4  A    between atoms: O_21  and  C_22
REMARK    5  A    between atoms: C_22  and  C_24
REMARK                            x       y       z     vdW  Elec       q    Type
REMARK                         _______ _______ _______ _____ _____    ______ ____
ROOT
ATOM      1  C   UNL     1      -1.934   2.562  -8.373  0.00  0.00    -0.096 C 
ATOM      2  C   UNL     1      -3.096   1.770  -6.401  0.00  0.00    -0.074 C 
ATOM      3  C   UNL     1      -2.870   1.161  -5.015  0.00  0.00    +0.018 C 
ATOM      4  C   UNL     1      -2.153   2.194  -4.152  0.00  0.00    -0.027 A 
ATOM      5  C   UNL     1      -1.524   3.241  -4.735  0.00  0.00    -0.021 A 
ATOM      6  S   UNL     1      -0.848   4.174  -3.388  0.00  0.00    -0.080 S 
ATOM      7  C   UNL     1      -1.389   3.199  -2.089  0.00  0.00    +0.080 A 
ATOM      8  C   UNL     1      -2.089   2.148  -2.702  0.00  0.00    +0.068 A 
ATOM      9  C   UNL     1      -2.676   1.111  -1.822  0.00  0.00    +0.248 C 
ATOM     10  O   UNL     1      -3.388   0.231  -2.269  0.00  0.00    -0.270 OA
ATOM     11  N   UNL     1      -2.389   1.183  -0.506  0.00  0.00    -0.289 N 
ATOM     12  C   UNL     1      -1.362   2.059   0.049  0.00  0.00    +0.190 C 
ATOM     13  N   UNL     1      -1.245   3.305  -0.730  0.00  0.00    -0.316 N 
ATOM     14  C   UNL     1      -1.435   3.522  -6.202  0.00  0.00    -0.036 C 
ATOM     15  H   UNL     1      -2.893   0.623   0.105  0.00  0.00    +0.151 HD
ATOM     16  H   UNL     1      -1.074   4.159  -0.301  0.00  0.00    +0.149 HD
ATOM     17  N   UNL     1      -1.814   2.285  -6.925  0.00  0.00    +0.381 N 
ATOM     18  H   UNL     1      -1.086   1.576  -6.780  0.00  0.00    -0.082 HD
ENDROOT
BRANCH  12  19
ATOM     19  C   UNL     1      -0.038   1.339   0.031  0.00  0.00    -0.009 A 
ATOM     20  C   UNL     1       1.138   2.059  -0.072  0.00  0.00    +0.010 A 
ATOM     21  C   UNL     1       2.352   1.402  -0.094  0.00  0.00    +0.047 A 
ATOM     22  C   UNL     1       2.392   0.018  -0.014  0.00  0.00    +0.132 A 
ATOM     23  C   UNL     1       1.211  -0.703   0.089  0.00  0.00    +0.047 A 
ATOM     24  C   UNL     1      -0.001  -0.041   0.111  0.00  0.00    +0.010 A 
BRANCH  22  25
ATOM     25  O   UNL     1       3.586  -0.632  -0.037  0.00  0.00    -0.422 OA
BRANCH  25  26
ATOM     26  C   UNL     1       3.862  -1.367  -1.132  0.00  0.00    +0.346 C 
ATOM     27  O   UNL     1       3.108  -1.343  -2.085  0.00  0.00    -0.244 OA
BRANCH  26  28
ATOM     28  C   UNL     1       5.079  -2.200  -1.174  0.00  0.00    +0.078 A 
ATOM     29  C   UNL     1       5.947  -2.229  -0.080  0.00  0.00    +0.018 A 
ATOM     30  C   UNL     1       7.082  -3.010  -0.125  0.00  0.00    +0.021 A 
ATOM     31  C   UNL     1       7.364  -3.764  -1.253  0.00  0.00    +0.042 A 
ATOM     32  C   UNL     1       6.509  -3.740  -2.341  0.00  0.00    +0.040 A 
ATOM     33  C   UNL     1       5.365  -2.967  -2.307  0.00  0.00    +0.056 A 
ATOM     34 CL   UNL     1       4.290  -2.944  -3.669  0.00  0.00    -0.083 Cl
ATOM     35 CL   UNL     1       8.797  -4.744  -1.301  0.00  0.00    -0.083 Cl
ENDBRANCH  26  28
ENDBRANCH  25  26
ENDBRANCH  22  25
ENDBRANCH  12  19
TORSDOF 4
