REMARK  Name = ZINC03664523
REMARK  9 active torsions:
REMARK  status: ('A' for Active; 'I' for Inactive)
REMARK    1  A    between atoms: C_1  and  O_2
REMARK    2  A    between atoms: O_2  and  C_3
REMARK    3  A    between atoms: C_3  and  C_5
REMARK    4  A    between atoms: C_6  and  N_36
REMARK    5  A    between atoms: N_7  and  C_26
REMARK    6  A    between atoms: C_10  and  C_12
REMARK    7  A    between atoms: C_15  and  N_18
REMARK    8  A    between atoms: C_29  and  S_32
REMARK    9  A    between atoms: S_32  and  N_35
REMARK                            x       y       z     vdW  Elec       q    Type
REMARK                         _______ _______ _______ _____ _____    ______ ____
ROOT
ATOM      1  C   UNL     1       1.232   2.252   0.329  0.00  0.00    +0.084 C 
ATOM      2  C   UNL     1       2.346   1.484   0.478  0.00  0.00    +0.103 C 
ATOM      3  N   UNL     1       3.572   1.966   0.088  0.00  0.00    -0.261 N 
ATOM      4  C   UNL     1       3.663   3.018  -0.786  0.00  0.00    +0.024 C 
ATOM      5  C   UNL     1       2.612   3.841  -0.985  0.00  0.00    +0.025 C 
ATOM      6  C   UNL     1       1.317   3.637  -0.241  0.00  0.00    +0.094 C 
ATOM      7  C   UNL     1       2.692   4.912  -1.893  0.00  0.00    +0.162 C 
ATOM      8  O   UNL     1       1.730   5.641  -2.041  0.00  0.00    -0.292 OA
ATOM      9  C   UNL     1       3.944   5.173  -2.684  0.00  0.00    +0.080 C 
ATOM     10  C   UNL     1       4.687   3.849  -2.891  0.00  0.00    +0.014 C 
ATOM     11  C   UNL     1       4.965   3.229  -1.520  0.00  0.00    +0.052 C 
ENDROOT
BRANCH   6  12
ATOM     12  C   UNL     1       1.228   4.639   0.882  0.00  0.00    -0.035 A 
ATOM     13  C   UNL     1       2.168   4.626   1.895  0.00  0.00    +0.007 A 
ATOM     14  C   UNL     1       2.090   5.548   2.922  0.00  0.00    +0.033 A 
ATOM     15  C   UNL     1       1.066   6.477   2.941  0.00  0.00    +0.126 A 
ATOM     16  C   UNL     1       0.123   6.486   1.930  0.00  0.00    +0.033 A 
ATOM     17  C   UNL     1       0.204   5.567   0.900  0.00  0.00    +0.007 A 
BRANCH  15  18
ATOM     18  N   UNL     1       0.979   7.460   4.043  0.00  0.00    +0.056 N 
ATOM     19  O   UNL     1       0.076   8.278   4.060  0.00  0.00    -0.126 OA
ATOM     20  O   UNL     1       1.810   7.452   4.934  0.00  0.00    -0.126 OA
ENDBRANCH  15  18
ENDBRANCH   6  12
BRANCH   3  21
ATOM     21  C   UNL     1       4.739   1.381   0.594  0.00  0.00    +0.040 A 
ATOM     22  C   UNL     1       5.288   0.270  -0.034  0.00  0.00    +0.026 A 
ATOM     23  C   UNL     1       6.442  -0.303   0.464  0.00  0.00    +0.030 A 
ATOM     24  C   UNL     1       7.045   0.223   1.592  0.00  0.00    +0.105 A 
ATOM     25  C   UNL     1       6.498   1.326   2.222  0.00  0.00    +0.030 A 
ATOM     26  C   UNL     1       5.347   1.906   1.726  0.00  0.00    +0.026 A 
BRANCH  24  27
ATOM     27  S   UNL     1       8.514  -0.515   2.228  0.00  0.00    +0.056 S 
ATOM     28  O   UNL     1       9.127  -1.199   1.144  0.00  0.00    -0.153 OA
ATOM     29  O   UNL     1       9.185   0.493   2.971  0.00  0.00    -0.153 OA
BRANCH  27  30
ATOM     30  N   UNL     1       8.048  -1.673   3.316  0.00  0.00    -0.204 NA
ATOM     31  H   UNL     1       7.106  -1.826   3.488  0.00  0.00    +0.144 HD
ATOM     32  H   UNL     1       8.717  -2.199   3.781  0.00  0.00    +0.144 HD
ENDBRANCH  27  30
ENDBRANCH  24  27
ENDBRANCH   3  21
BRANCH   2  33
ATOM     33  N   UNL     1       2.244   0.226   1.013  0.00  0.00    -0.346 N 
ATOM     34  H   UNL     1       1.455  -0.311   0.842  0.00  0.00    +0.143 HD
ATOM     35  H   UNL     1       2.961  -0.127   1.563  0.00  0.00    +0.143 HD
ENDBRANCH   2  33
BRANCH   1  36
ATOM     36  C   UNL     1      -0.015   1.742   0.719  0.00  0.00    +0.339 C 
ATOM     37  O   UNL     1      -0.082   0.666   1.287  0.00  0.00    -0.245 OA
BRANCH  36  39
ATOM     38  C   UNL     1      -2.377   1.858   0.881  0.00  0.00    +0.280 C 
ATOM     39  O   UNL     1      -1.142   2.441   0.461  0.00  0.00    -0.465 OA
ENDBRANCH  36  39
ENDBRANCH   1  36
TORSDOF 8
