REMARK  Name = ZINC09087172
REMARK  6 active torsions:
REMARK  status: ('A' for Active; 'I' for Inactive)
REMARK    1  A    between atoms: C_1  and  C_2
REMARK    2  A    between atoms: C_2  and  O_3
REMARK    3  A    between atoms: O_3  and  C_4
REMARK    4  A    between atoms: C_4  and  C_6
REMARK    5  A    between atoms: C_9  and  N_12
REMARK    6  A    between atoms: C_31  and  C_36
REMARK                            x       y       z     vdW  Elec       q    Type
REMARK                         _______ _______ _______ _____ _____    ______ ____
ROOT
ATOM      1  N   UNL     1      -2.426   1.036   0.019  0.00  0.00    -0.210 N 
ATOM      2  C   UNL     1      -2.491  -0.336   0.013  0.00  0.00    +0.228 C 
ATOM      3  O   UNL     1      -1.593  -1.121   0.226  0.00  0.00    -0.275 OA
ATOM      4  C   UNL     1      -3.868  -0.634  -0.305  0.00  0.00    +0.074 C 
ATOM      5  C   UNL     1      -4.839  -1.736  -0.183  0.00  0.00    -0.054 C 
ATOM      6  C   UNL     1      -5.000  -2.250   1.252  0.00  0.00    -0.016 C 
ATOM      7  C   UNL     1      -6.492  -2.671   1.279  0.00  0.00    -0.020 C 
ATOM      8  C   UNL     1      -7.168  -1.609   0.388  0.00  0.00    -0.076 C 
ATOM      9  C   UNL     1      -5.960   0.395  -0.268  0.00  0.00    +0.053 C 
ATOM     10  C   UNL     1      -4.622   0.541   0.439  0.00  0.00    +0.089 C 
ATOM     11  C   UNL     1      -3.660   1.623   0.034  0.00  0.00    +0.229 C 
ATOM     12  O   UNL     1      -3.925   2.777  -0.229  0.00  0.00    -0.275 OA
ATOM     13  C   UNL     1      -6.016   1.154  -1.563  0.00  0.00    -0.027 A 
ATOM     14  C   UNL     1      -5.277   1.108  -2.725  0.00  0.00    +0.006 A 
ATOM     15  C   UNL     1      -5.579   1.956  -3.775  0.00  0.00    +0.020 A 
ATOM     16  C   UNL     1      -6.628   2.851  -3.658  0.00  0.00    +0.046 A 
ATOM     17  C   UNL     1      -7.375   2.899  -2.498  0.00  0.00    -0.011 A 
ATOM     18  C   UNL     1      -7.077   2.047  -1.437  0.00  0.00    +0.040 A 
ATOM     19  N   UNL     1      -7.682   1.904  -0.186  0.00  0.00    -0.286 N 
ATOM     20  C   UNL     1      -7.090   0.951   0.557  0.00  0.00    +0.212 C 
ATOM     21  O   UNL     1      -7.406   0.606   1.677  0.00  0.00    -0.277 OA
ATOM     22  C   UNL     1      -8.516   3.876  -2.379  0.00  0.00    +0.047 C 
ATOM     23 CL   UNL     1      -7.006   3.918  -4.974  0.00  0.00    -0.083 Cl
ATOM     24  H   UNL     1      -8.441   2.430   0.112  0.00  0.00    +0.155 HD
ATOM     25  N   UNL     1      -6.122  -1.071  -0.493  0.00  0.00    +0.395 N 
ATOM     26  H   UNL     1      -6.377  -1.243  -1.473  0.00  0.00    -0.079 HD
ENDROOT
BRANCH   1  30
ATOM     27  C   UNL     1       1.151   3.177   0.008  0.00  0.00    +0.059 A 
ATOM     28  C   UNL     1       1.171   1.780   0.000  0.00  0.00    +0.017 A 
ATOM     29  C   UNL     1      -0.013   1.076   0.008  0.00  0.00    +0.025 A 
ATOM     30  C   UNL     1      -1.227   1.754   0.017  0.00  0.00    +0.044 A 
ATOM     31  C   UNL     1      -1.251   3.144   0.030  0.00  0.00    +0.025 A 
ATOM     32  C   UNL     1      -0.071   3.855   0.022  0.00  0.00    +0.017 A 
BRANCH  27  33
ATOM     33  C   UNL     1       2.417   3.935   0.000  0.00  0.00    +0.339 C 
ATOM     34  O   UNL     1       3.478   3.344  -0.012  0.00  0.00    -0.245 OA
BRANCH  33  35
ATOM     35  O   UNL     1       2.395   5.282   0.007  0.00  0.00    -0.461 OA
BRANCH  35  37
ATOM     36  C   UNL     1       3.454   7.475   0.009  0.00  0.00    +0.048 C 
ATOM     37  C   UNL     1       3.678   5.962  -0.001  0.00  0.00    +0.229 C 
ENDBRANCH  35  37
ENDBRANCH  33  35
ENDBRANCH  27  33
ENDBRANCH   1  30
TORSDOF 4
