REMARK  Name = ZINC12895863
REMARK  12 active torsions:
REMARK  status: ('A' for Active; 'I' for Inactive)
REMARK    1  A    between atoms: C_1  and  C_2
REMARK    2  A    between atoms: C_3  and  C_30
REMARK    3  A    between atoms: C_9  and  O_19
REMARK    4  A    between atoms: C_15  and  C_17
REMARK    5  A    between atoms: C_15  and  C_18
REMARK    6  A    between atoms: O_19  and  C_20
REMARK    7  A    between atoms: C_20  and  C_21
REMARK    8  A    between atoms: N_23  and  C_24
REMARK    9  A    between atoms: C_24  and  C_25
REMARK   10  A    between atoms: C_25  and  C_27
REMARK   11  A    between atoms: C_25  and  O_29
REMARK   12  A    between atoms: C_27  and  O_28
REMARK                            x       y       z     vdW  Elec       q    Type
REMARK                         _______ _______ _______ _____ _____    ______ ____
ROOT
ATOM      1  C   UNL     1      -2.583   2.854  -2.174  0.00  0.00    +0.045 C 
ATOM      2  C   UNL     1      -1.988   2.440  -3.495  0.00  0.00    -0.027 A 
ATOM      3  C   UNL     1      -2.585   2.794  -4.663  0.00  0.00    +0.038 A 
ATOM      4  C   UNL     1      -2.015   2.398  -5.890  0.00  0.00    +0.340 A 
ATOM      5  O   UNL     1      -2.557   2.718  -6.933  0.00  0.00    -0.245 OA
ATOM      6  O   UNL     1      -0.884   1.673  -5.928  0.00  0.00    -0.421 OA
ATOM      7  C   UNL     1      -0.260   1.301  -4.787  0.00  0.00    +0.149 A 
ATOM      8  C   UNL     1      -0.795   1.674  -3.542  0.00  0.00    +0.063 A 
ATOM      9  C   UNL     1      -0.144   1.284  -2.359  0.00  0.00    +0.136 A 
ATOM     10  C   UNL     1       1.018   0.545  -2.435  0.00  0.00    +0.092 A 
ATOM     11  C   UNL     1       1.545   0.176  -3.673  0.00  0.00    +0.131 A 
ATOM     12  C   UNL     1       0.909   0.553  -4.843  0.00  0.00    +0.038 A 
ATOM     13  C   UNL     1       1.454   0.166  -6.195  0.00  0.00    +0.046 C 
ATOM     14  C   UNL     1       2.920  -0.252  -6.060  0.00  0.00    +0.052 C 
ATOM     15  C   UNL     1       3.034  -1.239  -4.891  0.00  0.00    +0.105 C 
ATOM     16  O   UNL     1       2.693  -0.551  -3.688  0.00  0.00    -0.486 OA
ATOM     17  C   UNL     1       2.070  -2.407  -5.108  0.00  0.00    +0.055 C 
ATOM     18  C   UNL     1       4.468  -1.764  -4.797  0.00  0.00    +0.055 C 
ATOM     19  C   UNL     1      -3.853   3.607  -4.648  0.00  0.00    +0.051 C 
ENDROOT
BRANCH   9  20
ATOM     20  O   UNL     1      -0.652   1.636  -1.151  0.00  0.00    -0.482 OA
BRANCH  20  21
ATOM     21  C   UNL     1       0.065   1.203   0.006  0.00  0.00    +0.324 C 
BRANCH  21  22
ATOM     22  C   UNL     1      -0.643   1.684   1.246  0.00  0.00    +0.251 C 
ATOM     23  O   UNL     1      -1.662   2.334   1.149  0.00  0.00    -0.272 OA
ATOM     24  N   UNL     1      -0.144   1.392   2.464  0.00  0.00    -0.310 N 
ATOM     25  H   UNL     1       0.671   0.872   2.542  0.00  0.00    +0.149 HD
BRANCH  24  26
ATOM     26  C   UNL     1      -0.833   1.860   3.669  0.00  0.00    +0.137 C 
BRANCH  26  27
ATOM     27  C   UNL     1      -0.064   1.396   4.908  0.00  0.00    +0.157 C 
BRANCH  27  28
ATOM     28  O   UNL     1       0.002  -0.032   4.921  0.00  0.00    -0.388 OA
ATOM     29  H   UNL     1      -0.863  -0.465   4.942  0.00  0.00    +0.210 HD
ENDBRANCH  27  28
BRANCH  27  30
ATOM     30  C   UNL     1      -0.784   1.884   6.167  0.00  0.00    +0.188 C 
BRANCH  30  31
ATOM     31  O   UNL     1      -0.006   1.552   7.319  0.00  0.00    -0.392 OA
ATOM     32  H   UNL     1      -0.403   1.832   8.155  0.00  0.00    +0.210 HD
ENDBRANCH  30  31
ENDBRANCH  27  30
ENDBRANCH  26  27
ENDBRANCH  24  26
ENDBRANCH  21  22
ENDBRANCH  20  21
ENDBRANCH   9  20
TORSDOF 8
