REMARK  Name = ZINC62930542
REMARK  6 active torsions:
REMARK  status: ('A' for Active; 'I' for Inactive)
REMARK    1  A    between atoms: C_1  and  C_2
REMARK    2  A    between atoms: C_5  and  S_9
REMARK    3  A    between atoms: S_9  and  N_12
REMARK    4  A    between atoms: N_12  and  C_13
REMARK    5  A    between atoms: C_17  and  S_19
REMARK    6  A    between atoms: S_19  and  N_22
REMARK                            x       y       z     vdW  Elec       q    Type
REMARK                         _______ _______ _______ _____ _____    ______ ____
ROOT
ATOM      1  C   UNL     1       1.979  -6.358  -0.045  0.00  0.00    +0.076 A 
ATOM      2  C   UNL     1       0.973  -7.316  -0.052  0.00  0.00    +0.028 A 
ATOM      3  C   UNL     1       1.300  -8.658  -0.062  0.00  0.00    +0.024 A 
ATOM      4  C   UNL     1       2.628  -9.048  -0.066  0.00  0.00    +0.067 A 
ATOM      5  C   UNL     1       3.631  -8.096  -0.059  0.00  0.00    +0.125 A 
ATOM      6  C   UNL     1       3.311  -6.753  -0.054  0.00  0.00    +0.056 A 
ATOM      7 CL   UNL     1       3.035 -10.736  -0.078  0.00  0.00    -0.082 Cl
ENDROOT
BRANCH   5   8
ATOM      8  S   UNL     1       5.321  -8.597  -0.064  0.00  0.00    +0.057 S 
ATOM      9  O   UNL     1       5.455  -9.564  -1.097  0.00  0.00    -0.153 OA
ATOM     10  O   UNL     1       6.097  -7.408  -0.028  0.00  0.00    -0.153 OA
BRANCH   8  11
ATOM     11  N   UNL     1       5.601  -9.388   1.364  0.00  0.00    -0.203 NA
ATOM     12  H   UNL     1       4.883  -9.494   2.009  0.00  0.00    +0.144 HD
ATOM     13  H   UNL     1       6.481  -9.746   1.556  0.00  0.00    +0.144 HD
ENDBRANCH   8  11
ENDBRANCH   5   8
BRANCH   1  14
ATOM     14  N   UNL     1       1.651  -5.000  -0.035  0.00  0.00    -0.098 NA
BRANCH  14  15
ATOM     15  S   UNL     1       0.063  -4.531  -0.024  0.00  0.00    +0.092 S 
ATOM     16  O   UNL     1      -0.476  -4.952   1.221  0.00  0.00    -0.148 OA
ATOM     17  O   UNL     1      -0.489  -4.937  -1.270  0.00  0.00    -0.148 OA
BRANCH  15  22
ATOM     18  C   UNL     1      -0.018   1.503   0.010  0.00  0.00    +0.045 C 
ATOM     19  C   UNL     1       0.002  -0.004   0.002  0.00  0.00    -0.032 A 
ATOM     20  C   UNL     1       0.006  -0.689  -1.199  0.00  0.00    +0.007 A 
ATOM     21  C   UNL     1       0.025  -2.071  -1.207  0.00  0.00    +0.029 A 
ATOM     22  C   UNL     1       0.040  -2.769  -0.013  0.00  0.00    +0.112 A 
ATOM     23  C   UNL     1       0.036  -2.086   1.188  0.00  0.00    +0.049 A 
ATOM     24  C   UNL     1       0.023  -0.702   1.196  0.00  0.00    +0.046 A 
ATOM     25 CL   UNL     1       0.025   0.157   2.704  0.00  0.00    -0.083 Cl
ENDBRANCH  15  22
ENDBRANCH  14  15
ENDBRANCH   1  14
TORSDOF 5
