REMARK  Name = ZINC20710090
REMARK  7 active torsions:
REMARK  status: ('A' for Active; 'I' for Inactive)
REMARK    1  A    between atoms: C_3  and  O_37
REMARK    2  A    between atoms: C_4  and  C_10
REMARK    3  A    between atoms: C_6  and  N_7
REMARK    4  A    between atoms: C_21  and  S_26
REMARK    5  A    between atoms: S_26  and  N_29
REMARK    6  A    between atoms: N_29  and  C_30
REMARK    7  A    between atoms: C_30  and  C_31
REMARK                            x       y       z     vdW  Elec       q    Type
REMARK                         _______ _______ _______ _____ _____    ______ ____
ROOT
ATOM      1  C   UNL     1       1.266   6.085   5.321  0.00  0.00    +0.108 C 
ATOM      2  C   UNL     1       1.405   6.785   3.981  0.00  0.00    +0.029 C 
ATOM      3  C   UNL     1       0.741   8.158   3.816  0.00  0.00    +0.033 C 
ATOM      4  C   UNL     1       0.439   8.175   2.316  0.00  0.00    -0.030 C 
ATOM      5  C   UNL     1       0.316   6.933   1.863  0.00  0.00    -0.023 C 
ATOM      6  C   UNL     1       0.486   5.995   3.002  0.00  0.00    +0.049 C 
ATOM      7  C   UNL     1       1.060   4.644   2.826  0.00  0.00    -0.018 A 
ATOM      8  C   UNL     1       0.993   3.961   1.631  0.00  0.00    +0.034 A 
ATOM      9  C   UNL     1       1.510   2.683   1.528  0.00  0.00    +0.106 A 
ATOM     10  C   UNL     1       2.108   2.089   2.624  0.00  0.00    +0.030 A 
ATOM     11  C   UNL     1       2.194   2.770   3.821  0.00  0.00    +0.025 A 
ATOM     12  C   UNL     1       1.678   4.056   3.935  0.00  0.00    +0.031 A 
ATOM     13  N   UNL     1       1.806   4.740   5.150  0.00  0.00    -0.336 N 
ATOM     14  H   UNL     1       2.325   4.245   5.984  0.00  0.00    +0.147 HD
ENDROOT
BRANCH   1  18
ATOM     15  C   UNL     1       3.463   8.194   8.321  0.00  0.00    +0.036 A 
ATOM     16  C   UNL     1       2.175   8.585   8.012  0.00  0.00    +0.048 A 
ATOM     17  C   UNL     1       1.461   7.905   7.035  0.00  0.00    +0.122 A 
ATOM     18  C   UNL     1       2.040   6.828   6.379  0.00  0.00    +0.017 A 
ATOM     19  C   UNL     1       3.329   6.442   6.692  0.00  0.00    +0.041 A 
ATOM     20  C   UNL     1       4.040   7.125   7.662  0.00  0.00    +0.127 A 
BRANCH  20  21
ATOM     21  N   UNL     1       5.421   6.709   7.996  0.00  0.00    +0.056 N 
ATOM     22  O   UNL     1       5.930   5.766   7.416  0.00  0.00    -0.126 OA
ATOM     23  O   UNL     1       6.048   7.309   8.850  0.00  0.00    -0.126 OA
ENDBRANCH  20  21
BRANCH  17  24
ATOM     24  O   UNL     1       0.195   8.290   6.726  0.00  0.00    -0.506 OA
ATOM     25  H   UNL     1      -0.370   7.750   5.951  0.00  0.00    +0.292 HD
ENDBRANCH  17  24
ENDBRANCH   1  18
BRANCH   9  26
ATOM     26  S   UNL     1       1.412   1.813  -0.002  0.00  0.00    +0.058 S 
ATOM     27  O   UNL     1       2.457   0.851   0.010  0.00  0.00    -0.153 OA
ATOM     28  O   UNL     1       1.292   2.796  -1.021  0.00  0.00    -0.153 OA
BRANCH  26  29
ATOM     29  N   UNL     1      -0.011   0.966   0.007  0.00  0.00    -0.187 NA
ATOM     30  H   UNL     1       0.012  -0.122   0.171  0.00  0.00    +0.148 HD
BRANCH  29  31
ATOM     31  C   UNL     1      -1.290   1.681   0.017  0.00  0.00    +0.137 C 
BRANCH  31  32
ATOM     32  C   UNL     1      -2.417   0.716  -0.356  0.00  0.00    +0.134 C 
ATOM     33  C   UNL     1      -3.775   1.461  -0.385  0.00  0.00    +0.035 C 
ATOM     34  C   UNL     1      -4.584   0.559  -1.359  0.00  0.00    +0.031 C 
ATOM     35  C   UNL     1      -3.496   0.080  -2.344  0.00  0.00    +0.160 C 
ATOM     36  O   UNL     1      -2.228   0.222  -1.692  0.00  0.00    -0.375 OA
ENDBRANCH  31  32
ENDBRANCH  29  31
ENDBRANCH  26  29
ENDBRANCH   9  26
TORSDOF 7
