REMARK  Name = ZINC09605884
REMARK  11 active torsions:
REMARK  status: ('A' for Active; 'I' for Inactive)
REMARK    1  A    between atoms: C_1  and  C_2
REMARK    2  A    between atoms: C_3  and  C_16
REMARK    3  A    between atoms: C_4  and  C_15
REMARK    4  A    between atoms: N_5  and  C_7
REMARK    5  A    between atoms: C_16  and  N_64
REMARK    6  A    between atoms: C_17  and  N_64
REMARK    7  A    between atoms: C_18  and  C_20
REMARK    8  A    between atoms: C_18  and  C_21
REMARK    9  A    between atoms: C_18  and  N_64
REMARK   10  A    between atoms: N_23  and  C_24
REMARK   11  A    between atoms: C_25  and  C_32
REMARK                            x       y       z     vdW  Elec       q    Type
REMARK                         _______ _______ _______ _____ _____    ______ ____
ROOT
ATOM      1  C   UNL     1       4.414   1.540  -1.462  0.00  0.00    +0.016 C 
ATOM      2  C   UNL     1       4.764   0.154  -0.918  0.00  0.00    -0.004 C 
ENDROOT
BRANCH   1   3
ATOM      3  C   UNL     1       4.876   1.650  -2.892  0.00  0.00    +0.204 C 
ATOM      4  O   UNL     1       4.073   1.870  -3.774  0.00  0.00    -0.277 OA
ATOM      5  N   UNL     1       6.182   1.503  -3.192  0.00  0.00    -0.281 N 
ATOM      6  H   UNL     1       6.824   1.326  -2.486  0.00  0.00    +0.155 HD
BRANCH   5   7
ATOM      7  C   UNL     1       6.608   1.603  -4.507  0.00  0.00    +0.084 A 
ATOM      8  C   UNL     1       7.893   1.484  -5.008  0.00  0.00    +0.068 A 
ATOM      9  C   UNL     1       8.075   1.634  -6.451  0.00  0.00    -0.023 A 
ATOM     10  C   UNL     1       6.949   1.879  -7.146  0.00  0.00    -0.004 A 
ATOM     11  S   UNL     1       5.660   1.902  -5.924  0.00  0.00    -0.077 S 
ATOM     12  C   UNL     1       7.216   2.024  -8.620  0.00  0.00    +0.043 C 
ATOM     13  C   UNL     1       8.739   2.264  -8.717  0.00  0.00    +0.010 C 
ATOM     14  C   UNL     1       9.248   1.584  -7.431  0.00  0.00    +0.037 C 
BRANCH   8  15
ATOM     15  C   UNL     1       9.031   1.216  -4.122  0.00  0.00    +0.244 C 
ATOM     16  O   UNL     1       9.357   0.069  -3.881  0.00  0.00    -0.270 OA
ATOM     17  N   UNL     1       9.715   2.240  -3.576  0.00  0.00    -0.325 N 
ATOM     18  H   UNL     1       9.455   3.155  -3.768  0.00  0.00    +0.145 HD
ATOM     19  H   UNL     1      10.468   2.063  -2.990  0.00  0.00    +0.145 HD
ENDBRANCH   8  15
ENDBRANCH   5   7
ENDBRANCH   1   3
BRANCH   1  21
ATOM     20  C   UNL     1       2.251   0.645  -2.083  0.00  0.00    -0.095 C 
ATOM     21  N   UNL     1       2.953   1.761  -1.415  0.00  0.00    +0.388 N 
ATOM     22  H   UNL     1       2.732   2.635  -1.907  0.00  0.00    -0.081 HD
BRANCH  21  23
ATOM     23  C   UNL     1       2.504   1.873  -0.011  0.00  0.00    -0.039 C 
BRANCH  23  26
ATOM     24  C   UNL     1       1.476   4.871   0.014  0.00  0.00    +0.068 C 
ATOM     25  C   UNL     1       0.609   3.638   0.015  0.00  0.00    +0.062 A 
ATOM     26  C   UNL     1       1.064   2.315   0.004  0.00  0.00    -0.021 A 
ATOM     27  C   UNL     1      -0.018   1.503   0.010  0.00  0.00    +0.038 A 
ATOM     28  N   UNL     1      -1.119   2.284   0.019  0.00  0.00    -0.263 N 
ATOM     29  N   UNL     1      -0.700   3.620   0.027  0.00  0.00    -0.176 NA
ATOM     30  C   UNL     1       0.002  -0.004   0.002  0.00  0.00    +0.065 C 
BRANCH  28  31
ATOM     31  C   UNL     1      -2.507   1.816   0.023  0.00  0.00    +0.130 C 
ATOM     32  C   UNL     1      -3.225   2.330   1.282  0.00  0.00    +0.051 C 
ATOM     33  C   UNL     1      -4.752   2.119   1.142  0.00  0.00    +0.168 C 
ATOM     34  S   UNL     1      -5.004   2.188  -0.678  0.00  0.00    -0.029 S 
ATOM     35  O   UNL     1      -5.495   0.931  -1.124  0.00  0.00    -0.174 OA
ATOM     36  O   UNL     1      -5.719   3.372  -1.002  0.00  0.00    -0.174 OA
ATOM     37  C   UNL     1      -3.254   2.375  -1.222  0.00  0.00    +0.192 C 
ENDBRANCH  28  31
ENDBRANCH  23  26
ENDBRANCH  21  23
ENDBRANCH   1  21
TORSDOF 7
