REMARK  Name = ZINC12860854
REMARK  9 active torsions:
REMARK  status: ('A' for Active; 'I' for Inactive)
REMARK    1  A    between atoms: C_1  and  C_2
REMARK    2  A    between atoms: C_4  and  C_33
REMARK    3  A    between atoms: N_5  and  C_7
REMARK    4  A    between atoms: C_10  and  C_13
REMARK    5  A    between atoms: N_15  and  N_16
REMARK    6  A    between atoms: C_17  and  C_19
REMARK    7  A    between atoms: N_28  and  C_30
REMARK    8  A    between atoms: C_30  and  C_31
REMARK    9  A    between atoms: C_30  and  C_32
REMARK                            x       y       z     vdW  Elec       q    Type
REMARK                         _______ _______ _______ _____ _____    ______ ____
ROOT
ATOM      1  N   UNL     1       2.392  -4.296  -0.045  0.00  0.00    -0.229 N 
ATOM      2  C   UNL     1       2.442  -2.949  -0.038  0.00  0.00    +0.281 C 
ATOM      3  O   UNL     1       3.517  -2.381  -0.045  0.00  0.00    -0.267 OA
ATOM      4  H   UNL     1       1.534  -4.749  -0.040  0.00  0.00    +0.173 HD
ENDROOT
BRANCH   2   5
ATOM      5  C   UNL     1       1.192  -2.164  -0.021  0.00  0.00    +0.155 A 
ATOM      6  C   UNL     1       1.237  -0.693  -0.013  0.00  0.00    +0.020 A 
ATOM      7  C   UNL     1       2.428   0.025  -0.021  0.00  0.00    +0.011 A 
ATOM      8  C   UNL     1       2.389   1.403  -0.013  0.00  0.00    +0.001 A 
ATOM      9  C   UNL     1       1.176   2.079   0.002  0.00  0.00    +0.001 A 
ATOM     10  C   UNL     1      -0.017   1.387   0.010  0.00  0.00    +0.014 A 
ATOM     11  C   UNL     1       0.002  -0.004   0.002  0.00  0.00    +0.050 A 
ATOM     12  C   UNL     1      -1.221  -0.819   0.009  0.00  0.00    +0.275 A 
ATOM     13  O   UNL     1      -2.319  -0.294   0.022  0.00  0.00    -0.266 OA
ATOM     14  N   UNL     1      -1.098  -2.162   0.000  0.00  0.00    -0.226 N 
ATOM     15  N   UNL     1       0.029  -2.768  -0.014  0.00  0.00    -0.163 NA
BRANCH  14  16
ATOM     16  C   UNL     1      -2.320  -2.970   0.007  0.00  0.00    +0.105 C 
ATOM     17  C   UNL     1      -2.359  -3.847  -1.246  0.00  0.00    +0.032 C 
ATOM     18  C   UNL     1      -2.335  -3.860   1.252  0.00  0.00    +0.032 C 
ENDBRANCH  14  16
ENDBRANCH   2   5
BRANCH   1  21
ATOM     19  C   UNL     1       3.527  -6.388  -0.068  0.00  0.00    +0.260 C 
ATOM     20  O   UNL     1       2.453  -6.956  -0.061  0.00  0.00    -0.269 OA
ATOM     21  N   UNL     1       3.578  -5.042  -0.061  0.00  0.00    -0.230 N 
ATOM     22  H   UNL     1       4.435  -4.588  -0.067  0.00  0.00    +0.173 HD
BRANCH  19  26
ATOM     23  C   UNL     1       7.124  -8.648  -0.117  0.00  0.00    +0.066 A 
ATOM     24  C   UNL     1       5.895  -9.300  -0.109  0.00  0.00    +0.028 A 
ATOM     25  C   UNL     1       4.727  -8.570  -0.092  0.00  0.00    +0.015 A 
ATOM     26  C   UNL     1       4.778  -7.174  -0.085  0.00  0.00    +0.038 A 
ATOM     27  C   UNL     1       6.013  -6.523  -0.099  0.00  0.00    +0.015 A 
ATOM     28  C   UNL     1       7.178  -7.259  -0.110  0.00  0.00    +0.028 A 
BRANCH  23  33
ATOM     29  C   UNL     1      10.390 -12.272   0.761  0.00  0.00    +0.067 C 
ATOM     30  C   UNL     1       9.746 -11.003   0.263  0.00  0.00    +0.061 A 
ATOM     31  C   UNL     1      10.359 -10.034  -0.540  0.00  0.00    +0.047 A 
ATOM     32  C   UNL     1       9.456  -9.056  -0.776  0.00  0.00    +0.042 A 
ATOM     33  N   UNL     1       8.308  -9.392  -0.133  0.00  0.00    -0.237 N 
ATOM     34  N   UNL     1       8.519 -10.620   0.507  0.00  0.00    -0.171 NA
ATOM     35  C   UNL     1       9.683  -7.815  -1.600  0.00  0.00    +0.066 C 
ENDBRANCH  23  33
ENDBRANCH  19  26
ENDBRANCH   1  21
TORSDOF 5
