REMARK  Name = ZINC38806310
REMARK  12 active torsions:
REMARK  status: ('A' for Active; 'I' for Inactive)
REMARK    1  A    between atoms: C_1  and  C_2
REMARK    2  A    between atoms: C_2  and  C_30
REMARK    3  A    between atoms: C_5  and  C_26
REMARK    4  A    between atoms: C_6  and  N_13
REMARK    5  A    between atoms: C_9  and  C_11
REMARK    6  A    between atoms: C_9  and  C_12
REMARK    7  A    between atoms: C_14  and  C_16
REMARK    8  A    between atoms: C_21  and  C_22
REMARK    9  A    between atoms: C_22  and  O_24
REMARK   10  A    between atoms: O_24  and  C_25
REMARK   11  A    between atoms: C_26  and  O_28
REMARK   12  A    between atoms: O_28  and  C_29
REMARK                            x       y       z     vdW  Elec       q    Type
REMARK                         _______ _______ _______ _____ _____    ______ ____
ROOT
ATOM      1  C   UNL     1       0.825   2.904   1.856  0.00  0.00    -0.010 C 
ATOM      2  C   UNL     1       0.929   1.429   1.458  0.00  0.00    -0.069 C 
ATOM      3  C   UNL     1      -0.430   0.943   0.940  0.00  0.00    +0.024 C 
ATOM      4  C   UNL     1      -1.393   0.978   2.116  0.00  0.00    -0.024 A 
ATOM      5  C   UNL     1      -2.819   1.214   2.064  0.00  0.00    +0.091 A 
ATOM      6  C   UNL     1      -3.502   1.206   3.275  0.00  0.00    +0.086 A 
ATOM      7  S   UNL     1      -2.310   0.900   4.418  0.00  0.00    -0.079 S 
ATOM      8  C   UNL     1      -0.901   0.762   3.359  0.00  0.00    -0.016 A 
ATOM      9  C   UNL     1       0.518   0.464   3.709  0.00  0.00    -0.041 C 
ATOM     10  N   UNL     1       1.416   0.619   2.566  0.00  0.00    +0.389 N 
ATOM     11  C   UNL     1       0.597  -0.994   4.203  0.00  0.00    -0.005 C 
ATOM     12  C   UNL     1       0.963   1.375   4.861  0.00  0.00    -0.005 C 
ATOM     13  C   UNL     1       1.939   1.323   0.299  0.00  0.00    -0.010 C 
ATOM     14  H   UNL     1       1.652  -0.309   2.211  0.00  0.00    -0.084 HD
ATOM     15  H   UNL     1       2.296   1.018   2.897  0.00  0.00    -0.084 HD
ENDROOT
BRANCH   6  16
ATOM     16  N   UNL     1      -4.855   1.405   3.487  0.00  0.00    -0.275 N 
ATOM     17  C   UNL     1      -5.355   1.363   4.738  0.00  0.00    +0.249 C 
ATOM     18  O   UNL     1      -4.617   1.151   5.680  0.00  0.00    -0.270 OA
ATOM     19  H   UNL     1      -5.444   1.575   2.735  0.00  0.00    +0.156 HD
BRANCH  17  20
ATOM     20  C   UNL     1      -6.801   1.576   4.964  0.00  0.00    +0.051 A 
ATOM     21  C   UNL     1      -7.425   2.721   4.477  0.00  0.00    +0.014 A 
ATOM     22  C   UNL     1      -8.776   2.916   4.691  0.00  0.00    +0.001 A 
ATOM     23  C   UNL     1      -9.517   1.979   5.389  0.00  0.00    +0.001 A 
ATOM     24  C   UNL     1      -8.915   0.836   5.881  0.00  0.00    +0.016 A 
ATOM     25  C   UNL     1      -7.555   0.620   5.669  0.00  0.00    +0.071 A 
BRANCH  25  26
ATOM     26  C   UNL     1      -6.908  -0.604   6.186  0.00  0.00    +0.340 C 
ATOM     27  O   UNL     1      -5.751  -0.845   5.905  0.00  0.00    -0.245 OA
BRANCH  26  28
ATOM     28  O   UNL     1      -7.601  -1.453   6.970  0.00  0.00    -0.464 OA
ATOM     29  C   UNL     1      -6.912  -2.616   7.435  0.00  0.00    +0.280 C 
ENDBRANCH  26  28
ENDBRANCH  25  26
ENDBRANCH  17  20
ENDBRANCH   6  16
BRANCH   5  30
ATOM     30  C   UNL     1      -3.521   1.450   0.801  0.00  0.00    +0.342 C 
ATOM     31  O   UNL     1      -3.980   0.513   0.176  0.00  0.00    -0.245 OA
BRANCH  30  32
ATOM     32  O   UNL     1      -3.657   2.706   0.330  0.00  0.00    -0.464 OA
ATOM     33  C   UNL     1      -4.353   2.862  -0.909  0.00  0.00    +0.280 C 
ENDBRANCH  30  32
ENDBRANCH   5  30
TORSDOF 6
