REMARK  Name = ZINC61992600
REMARK  8 active torsions:
REMARK  status: ('A' for Active; 'I' for Inactive)
REMARK    1  A    between atoms: C_1  and  N_2
REMARK    2  A    between atoms: N_2  and  C_3
REMARK    3  A    between atoms: N_2  and  C_18
REMARK    4  A    between atoms: C_3  and  C_4
REMARK    5  A    between atoms: C_4  and  N_5
REMARK    6  A    between atoms: N_5  and  S_6
REMARK    7  A    between atoms: S_6  and  C_9
REMARK    8  A    between atoms: C_10  and  N_17
REMARK                            x       y       z     vdW  Elec       q    Type
REMARK                         _______ _______ _______ _____ _____    ______ ____
ROOT
ATOM      1  S   UNL     1       0.137   0.378   5.986  0.00  0.00    +0.061 S 
ATOM      2  O   UNL     1       0.733  -0.169   7.154  0.00  0.00    -0.153 OA
ATOM      3  O   UNL     1      -0.043   1.776   5.806  0.00  0.00    -0.153 OA
ENDROOT
BRANCH   1   4
ATOM      4  C   UNL     1      -1.458  -0.357   5.843  0.00  0.00    +0.140 A 
ATOM      5  C   UNL     1      -2.479   0.319   5.187  0.00  0.00    +0.053 A 
ATOM      6  C   UNL     1      -3.735  -0.264   5.076  0.00  0.00    +0.040 A 
ATOM      7  C   UNL     1      -3.965  -1.514   5.618  0.00  0.00    +0.021 A 
ATOM      8  C   UNL     1      -2.947  -2.185   6.272  0.00  0.00    +0.032 A 
ATOM      9  C   UNL     1      -1.693  -1.609   6.379  0.00  0.00    +0.047 A 
ATOM     10 BR   UNL     1      -0.302  -2.533   7.266  0.00  0.00    -0.048 Br
ATOM     11 BR   UNL     1      -5.675  -2.309   5.468  0.00  0.00    -0.050 Br
BRANCH   5  12
ATOM     12  N   UNL     1      -2.244   1.582   4.640  0.00  0.00    -0.356 N 
ATOM     13  H   UNL     1      -1.343   1.842   4.389  0.00  0.00    +0.142 HD
ATOM     14  H   UNL     1      -2.980   2.200   4.512  0.00  0.00    +0.142 HD
ENDBRANCH   5  12
ENDBRANCH   1   4
BRANCH   1  15
ATOM     15  N   UNL     1       1.037  -0.152   4.701  0.00  0.00    -0.192 NA
ATOM     16  H   UNL     1       1.815  -0.712   4.852  0.00  0.00    +0.148 HD
BRANCH  15  17
ATOM     17  C   UNL     1       0.659   0.224   3.337  0.00  0.00    +0.087 C 
BRANCH  17  18
ATOM     18  C   UNL     1       1.824  -0.062   2.387  0.00  0.00    -0.062 C 
BRANCH  18  20
ATOM     19  C   UNL     1       1.237   1.767   0.951  0.00  0.00    -0.096 C 
ATOM     20  N   UNL     1       1.445   0.315   1.019  0.00  0.00    +0.381 N 
ATOM     21  H   UNL     1       0.592  -0.160   0.763  0.00  0.00    -0.082 HD
BRANCH  20  22
ATOM     22  C   UNL     1       2.517  -0.070   0.091  0.00  0.00    -0.069 C 
ATOM     23  C   UNL     1       2.125  -0.893  -1.138  0.00  0.00    -0.017 C 
ATOM     24  C   UNL     1       2.886  -1.553   0.014  0.00  0.00    -0.017 C 
ENDBRANCH  20  22
ENDBRANCH  18  20
ENDBRANCH  17  18
ENDBRANCH  15  17
ENDBRANCH   1  15
TORSDOF 7
