REMARK  Name = ZINC11678088
REMARK  11 active torsions:
REMARK  status: ('A' for Active; 'I' for Inactive)
REMARK    1  A    between atoms: C_1  and  C_2
REMARK    2  A    between atoms: C_4  and  O_41
REMARK    3  A    between atoms: C_6  and  N_64
REMARK    4  A    between atoms: C_9  and  O_12
REMARK    5  A    between atoms: O_12  and  C_13
REMARK    6  A    between atoms: C_16  and  C_37
REMARK    7  A    between atoms: C_16  and  O_40
REMARK    8  A    between atoms: C_20  and  O_36
REMARK    9  A    between atoms: C_23  and  O_24
REMARK   10  A    between atoms: C_31  and  O_35
REMARK   11  A    between atoms: C_37  and  C_39
REMARK                            x       y       z     vdW  Elec       q    Type
REMARK                         _______ _______ _______ _____ _____    ______ ____
ROOT
ATOM      1  C   UNL     1       2.980  -1.867  -2.154  0.00  0.00    +0.158 C 
ATOM      2  C   UNL     1       4.208  -2.474  -2.829  0.00  0.00    +0.079 C 
ATOM      3  C   UNL     1       3.973  -3.981  -2.992  0.00  0.00    +0.130 C 
ATOM      4  C   UNL     1       2.889  -4.186  -4.047  0.00  0.00    +0.082 C 
ATOM      5  C   UNL     1       1.677  -3.344  -3.736  0.00  0.00    +0.007 A 
ATOM      6  C   UNL     1       1.720  -2.280  -2.871  0.00  0.00    +0.030 A 
ATOM      7  C   UNL     1       0.563  -1.529  -2.624  0.00  0.00    +0.134 A 
ATOM      8  C   UNL     1      -0.639  -1.854  -3.248  0.00  0.00    +0.078 A 
ATOM      9  C   UNL     1      -0.684  -2.950  -4.133  0.00  0.00    +0.078 A 
ATOM     10  C   UNL     1       0.476  -3.686  -4.370  0.00  0.00    +0.132 A 
ATOM     11  C   UNL     1      -1.947  -3.309  -4.800  0.00  0.00    +0.198 C 
ATOM     12  O   UNL     1      -1.986  -4.255  -5.564  0.00  0.00    -0.286 OA
ATOM     13  C   UNL     1      -3.167  -2.517  -4.540  0.00  0.00    +0.037 A 
ATOM     14  C   UNL     1      -4.365  -2.848  -5.166  0.00  0.00    +0.012 A 
ATOM     15  C   UNL     1      -5.506  -2.103  -4.918  0.00  0.00    +0.004 A 
ATOM     16  C   UNL     1      -5.468  -1.030  -4.052  0.00  0.00    +0.046 A 
ATOM     17  C   UNL     1      -4.281  -0.681  -3.415  0.00  0.00    +0.128 A 
ATOM     18  C   UNL     1      -3.121  -1.423  -3.656  0.00  0.00    +0.075 A 
ATOM     19  C   UNL     1      -1.857  -1.065  -2.988  0.00  0.00    +0.202 C 
ATOM     20  O   UNL     1      -1.818  -0.119  -2.225  0.00  0.00    -0.286 OA
ENDROOT
BRANCH   3  21
ATOM     21  C   UNL     1       3.523  -4.569  -1.679  0.00  0.00    +0.162 C 
ATOM     22  O   UNL     1       2.346  -4.720  -1.457  0.00  0.00    -0.295 OA
ATOM     23  C   UNL     1       4.543  -4.971  -0.645  0.00  0.00    +0.089 C 
ENDBRANCH   3  21
BRANCH  10  24
ATOM     24  O   UNL     1       0.441  -4.742  -5.220  0.00  0.00    -0.506 OA
ATOM     25  H   UNL     1       0.228  -5.583  -4.794  0.00  0.00    +0.292 HD
ENDBRANCH  10  24
BRANCH  17  26
ATOM     26  O   UNL     1      -4.250   0.375  -2.565  0.00  0.00    -0.506 OA
ATOM     27  H   UNL     1      -4.037   1.217  -2.990  0.00  0.00    +0.292 HD
ENDBRANCH  17  26
BRANCH   7  28
ATOM     28  O   UNL     1       0.614  -0.476  -1.770  0.00  0.00    -0.506 OA
ATOM     29  H   UNL     1       0.493  -0.717  -0.842  0.00  0.00    +0.292 HD
ENDBRANCH   7  28
BRANCH   3  30
ATOM     30  O   UNL     1       5.182  -4.614  -3.414  0.00  0.00    -0.381 OA
ATOM     31  H   UNL     1       5.104  -5.570  -3.537  0.00  0.00    +0.211 HD
ENDBRANCH   3  30
BRANCH   1  32
ATOM     32  O   UNL     1       3.088  -0.443  -2.173  0.00  0.00    -0.343 OA
BRANCH  32  38
ATOM     33  C   UNL     1       2.924   0.221   2.521  0.00  0.00    +0.040 C 
ATOM     34  C   UNL     1       3.793   0.447   1.282  0.00  0.00    +0.145 C 
ATOM     35  C   UNL     1       4.068   1.944   1.117  0.00  0.00    +0.129 C 
ATOM     36  C   UNL     1       4.887   2.167  -0.158  0.00  0.00    -0.039 C 
ATOM     37  C   UNL     1       4.125   1.581  -1.350  0.00  0.00    +0.048 C 
ATOM     38  C   UNL     1       3.848   0.098  -1.090  0.00  0.00    +0.250 C 
ATOM     39  O   UNL     1       3.110  -0.041   0.126  0.00  0.00    -0.346 OA
BRANCH  36  42
ATOM     40  H   UNL     1       5.630   3.779  -1.201  0.00  0.00    -0.090 HD
ATOM     41  H   UNL     1       4.210   4.096  -0.395  0.00  0.00    -0.090 HD
ATOM     42  N   UNL     1       5.105   3.612  -0.344  0.00  0.00    +0.382 N 
ATOM     43  H   UNL     1       5.639   3.978   0.453  0.00  0.00    -0.090 HD
ENDBRANCH  36  42
BRANCH  35  44
ATOM     44  O   UNL     1       4.802   2.421   2.246  0.00  0.00    -0.391 OA
ATOM     45  H   UNL     1       4.344   2.308   3.090  0.00  0.00    +0.210 HD
ENDBRANCH  35  44
ENDBRANCH  32  38
ENDBRANCH   1  32
TORSDOF 9
