REMARK  Name = ZINC24704663
REMARK  5 active torsions:
REMARK  status: ('A' for Active; 'I' for Inactive)
REMARK    1  A    between atoms: C_6  and  C_7
REMARK    2  A    between atoms: N_12  and  C_13
REMARK    3  A    between atoms: C_13  and  C_14
REMARK    4  A    between atoms: N_16  and  N_17
REMARK    5  A    between atoms: C_18  and  C_20
REMARK                            x       y       z     vdW  Elec       q    Type
REMARK                         _______ _______ _______ _____ _____    ______ ____
ROOT
ATOM      1  C   UNL     1       0.000   1.256   0.075  0.00  0.00    +0.249 C 
ATOM      2  O   UNL     1       0.001   0.043   0.115  0.00  0.00    -0.272 OA
ATOM      3  N   UNL     1      -1.167   1.930   0.095  0.00  0.00    -0.233 N 
ATOM      4  H   UNL     1      -1.167   3.029   0.058  0.00  0.00    +0.173 HD
ENDROOT
BRANCH   3   5
ATOM      5  N   UNL     1      -2.379   1.230   0.161  0.00  0.00    -0.230 N 
ATOM      6  C   UNL     1      -3.546   1.904   0.181  0.00  0.00    +0.267 C 
ATOM      7  O   UNL     1      -3.546   3.120   0.141  0.00  0.00    -0.268 OA
ATOM      8  H   UNL     1      -2.378   0.131   0.197  0.00  0.00    +0.173 HD
BRANCH   6   9
ATOM      9  C   UNL     1      -4.814   1.172   0.250  0.00  0.00    +0.076 A 
ATOM     10  C   UNL     1      -6.105   1.666   0.280  0.00  0.00    +0.024 A 
ATOM     11  C   UNL     1      -7.150   0.759   0.348  0.00  0.00    -0.036 A 
ATOM     12  C   UNL     1      -6.816  -0.564   0.380  0.00  0.00    -0.006 A 
ATOM     13  S   UNL     1      -5.095  -0.589   0.310  0.00  0.00    -0.088 S 
ATOM     14  C   UNL     1      -7.752  -1.731   0.453  0.00  0.00    +0.043 C 
ATOM     15  C   UNL     1      -9.139  -1.214   0.862  0.00  0.00    +0.005 C 
ATOM     16  C   UNL     1      -9.488  -0.003  -0.007  0.00  0.00    +0.005 C 
ATOM     17  C   UNL     1      -8.614   1.190   0.385  0.00  0.00    +0.036 C 
ENDBRANCH   6   9
ENDBRANCH   3   5
BRANCH   1  18
ATOM     18  C   UNL     1       1.304   2.008  -0.003  0.00  0.00    +0.223 C 
BRANCH  18  24
ATOM     19  C   UNL     1       3.105   0.599   1.090  0.00  0.00    +0.165 A 
ATOM     20  N   UNL     1       4.024  -0.236   0.692  0.00  0.00    -0.128 NA
ATOM     21  N   UNL     1       3.950  -0.329  -0.705  0.00  0.00    -0.121 NA
ATOM     22  C   UNL     1       2.950   0.479  -1.113  0.00  0.00    +0.203 A 
ATOM     23  S   UNL     1       2.447   0.727  -2.730  0.00  0.00    -0.009 SA
ATOM     24  N   UNL     1       2.417   1.056  -0.017  0.00  0.00    -0.292 N 
BRANCH  19  30
ATOM     25  C   UNL     1       3.829   0.820   3.464  0.00  0.00    +0.013 A 
ATOM     26  C   UNL     1       3.579   1.190   4.769  0.00  0.00    +0.021 A 
ATOM     27  C   UNL     1       2.348   1.718   5.119  0.00  0.00    +0.041 A 
ATOM     28  C   UNL     1       1.362   1.883   4.160  0.00  0.00    +0.021 A 
ATOM     29  C   UNL     1       1.603   1.522   2.850  0.00  0.00    +0.013 A 
ATOM     30  C   UNL     1       2.841   0.989   2.493  0.00  0.00    +0.019 A 
ATOM     31 CL   UNL     1       2.038   2.175   6.764  0.00  0.00    -0.084 Cl
ENDBRANCH  19  30
ENDBRANCH  18  24
ENDBRANCH   1  18
TORSDOF 5
