REMARK  Name = ZINC39685711
REMARK  15 active torsions:
REMARK  status: ('A' for Active; 'I' for Inactive)
REMARK    1  A    between atoms: C_1  and  C_2
REMARK    2  A    between atoms: C_2  and  C_3
REMARK    3  A    between atoms: C_2  and  C_4
REMARK    4  A    between atoms: C_4  and  C_6
REMARK    5  A    between atoms: C_4  and  N_13
REMARK    6  A    between atoms: N_8  and  C_9
REMARK    7  A    between atoms: C_9  and  C_10
REMARK    8  A    between atoms: C_9  and  C_11
REMARK    9  A    between atoms: C_9  and  C_12
REMARK   10  A    between atoms: C_14  and  C_16
REMARK   11  A    between atoms: C_27  and  C_29
REMARK   12  A    between atoms: C_31  and  O_37
REMARK   13  A    between atoms: C_33  and  O_35
REMARK   14  A    between atoms: O_35  and  C_36
REMARK   15  A    between atoms: O_37  and  C_38
REMARK                            x       y       z     vdW  Elec       q    Type
REMARK                         _______ _______ _______ _____ _____    ______ ____
ROOT
ATOM      1  C   UNL     1       0.585  -4.338   1.819  0.00  0.00    +0.100 C 
ATOM      2  C   UNL     1       1.789  -4.112   0.877  0.00  0.00    +0.121 C 
ATOM      3  N   UNL     1       2.893  -3.695   1.774  0.00  0.00    -0.296 N 
ATOM      4  C   UNL     1       2.733  -4.547   2.977  0.00  0.00    +0.115 C 
ATOM      5  C   UNL     1       1.209  -4.627   3.195  0.00  0.00    -0.004 C 
ATOM      6  C   UNL     1       0.816  -6.022   3.671  0.00  0.00    -0.010 C 
ATOM      7  C   UNL     1       1.399  -6.263   5.066  0.00  0.00    -0.082 C 
ATOM      8  N   UNL     1       0.890  -5.246   5.994  0.00  0.00    +0.379 N 
ATOM      9  C   UNL     1       1.351  -3.916   5.580  0.00  0.00    -0.082 C 
ATOM     10  C   UNL     1       0.765  -3.575   4.207  0.00  0.00    -0.010 C 
ATOM     11  C   UNL     1       3.830  -2.754   1.547  0.00  0.00    +0.247 C 
ATOM     12  O   UNL     1       3.762  -2.055   0.554  0.00  0.00    -0.270 OA
ATOM     13  H   UNL     1      -0.119  -5.267   5.993  0.00  0.00    -0.086 HD
ATOM     14  H   UNL     1       1.227  -5.443   6.925  0.00  0.00    -0.086 HD
ENDROOT
BRANCH  11  15
ATOM     15  C   UNL     1       4.941  -2.570   2.506  0.00  0.00    +0.044 A 
ATOM     16  C   UNL     1       5.307  -3.611   3.359  0.00  0.00    +0.059 A 
ATOM     17  C   UNL     1       6.349  -3.436   4.255  0.00  0.00    +0.124 A 
ATOM     18  C   UNL     1       7.027  -2.227   4.305  0.00  0.00    +0.091 A 
ATOM     19  C   UNL     1       6.666  -1.189   3.458  0.00  0.00    +0.124 A 
ATOM     20  C   UNL     1       5.630  -1.358   2.555  0.00  0.00    +0.059 A 
BRANCH  19  21
ATOM     21  O   UNL     1       7.334  -0.006   3.511  0.00  0.00    -0.495 OA
ATOM     22  C   UNL     1       8.396   0.097   4.462  0.00  0.00    +0.277 C 
ENDBRANCH  19  21
BRANCH  17  23
ATOM     23  O   UNL     1       6.707  -4.449   5.087  0.00  0.00    -0.495 OA
ATOM     24  C   UNL     1       7.789  -4.200   5.985  0.00  0.00    +0.277 C 
ENDBRANCH  17  23
ENDBRANCH  11  15
BRANCH   1  26
ATOM     25  N   UNL     1      -1.583  -3.203   2.177  0.00  0.00    -0.303 N 
ATOM     26  C   UNL     1      -0.272  -3.101   1.881  0.00  0.00    +0.219 C 
ATOM     27  O   UNL     1       0.217  -2.012   1.663  0.00  0.00    -0.275 OA
ATOM     28  H   UNL     1      -1.975  -4.073   2.351  0.00  0.00    +0.149 HD
BRANCH  25  29
ATOM     29  C   UNL     1      -2.417  -2.000   2.237  0.00  0.00    +0.161 C 
BRANCH  29  30
ATOM     30  C   UNL     1      -3.598  -2.252   3.138  0.00  0.00    +0.234 C 
ATOM     31  O   UNL     1      -3.947  -3.388   3.377  0.00  0.00    -0.274 OA
ATOM     32  N   UNL     1      -4.267  -1.214   3.679  0.00  0.00    -0.309 N 
ATOM     33  H   UNL     1      -3.947  -0.308   3.543  0.00  0.00    +0.149 HD
BRANCH  32  34
ATOM     34  C   UNL     1      -5.476  -1.453   4.470  0.00  0.00    +0.026 C 
ATOM     35  C   UNL     1      -5.132  -2.337   5.671  0.00  0.00    +0.031 C 
ATOM     36  C   UNL     1      -6.036  -0.118   4.964  0.00  0.00    +0.031 C 
ATOM     37  C   UNL     1      -6.522  -2.156   3.603  0.00  0.00    +0.031 C 
ENDBRANCH  32  34
ENDBRANCH  29  30
BRANCH  29  39
ATOM     38  C   UNL     1      -1.720  -1.272  -0.049  0.00  0.00    +0.009 C 
ATOM     39  C   UNL     1      -2.912  -1.652   0.832  0.00  0.00    +0.012 C 
ATOM     40  C   UNL     1      -3.627  -2.863   0.229  0.00  0.00    +0.009 C 
ENDBRANCH  29  39
ENDBRANCH  25  29
ENDBRANCH   1  26
TORSDOF 8
