REMARK  Name = ZINC29221722
REMARK  10 active torsions:
REMARK  status: ('A' for Active; 'I' for Inactive)
REMARK    1  A    between atoms: C_1  and  C_2
REMARK    2  A    between atoms: C_2  and  C_3
REMARK    3  A    between atoms: C_3  and  N_4
REMARK    4  A    between atoms: C_5  and  C_7
REMARK    5  A    between atoms: C_7  and  N_8
REMARK    6  A    between atoms: C_11  and  N_14
REMARK    7  A    between atoms: C_15  and  C_17
REMARK    8  A    between atoms: C_17  and  C_19
REMARK    9  A    between atoms: C_17  and  S_25
REMARK   10  A    between atoms: S_25  and  C_26
REMARK                            x       y       z     vdW  Elec       q    Type
REMARK                         _______ _______ _______ _____ _____    ______ ____
ROOT
ATOM      1  N   UNL     1       1.390   4.085   2.381  0.00  0.00    -0.311 N 
ATOM      2  C   UNL     1       2.064   3.866   1.234  0.00  0.00    +0.231 C 
ATOM      3  O   UNL     1       3.265   4.030   1.197  0.00  0.00    -0.274 OA
ATOM      4  H   UNL     1       0.300   3.937   2.415  0.00  0.00    +0.149 HD
ENDROOT
BRANCH   1   8
ATOM      5  N   UNL     1       2.396   4.472   6.454  0.00  0.00    +0.385 N 
ATOM      6  C   UNL     1       1.889   5.676   5.784  0.00  0.00    -0.076 C 
ATOM      7  C   UNL     1       1.149   5.277   4.505  0.00  0.00    +0.003 C 
ATOM      8  C   UNL     1       2.108   4.521   3.581  0.00  0.00    +0.069 C 
ATOM      9  C   UNL     1       2.659   3.299   4.320  0.00  0.00    +0.003 C 
ATOM     10  C   UNL     1       3.355   3.756   5.604  0.00  0.00    -0.076 C 
ATOM     11  H   UNL     1       1.541   3.803   6.633  0.00  0.00    -0.081 HD
BRANCH   5  12
ATOM     12  C   UNL     1       2.991   4.805   7.755  0.00  0.00    +0.019 C 
BRANCH  12  14
ATOM     13  N   UNL     1       2.247   5.784   9.901  0.00  0.00    -0.317 N 
ATOM     14  C   UNL     1       1.916   5.300   8.688  0.00  0.00    +0.196 C 
ATOM     15  O   UNL     1       0.753   5.262   8.346  0.00  0.00    -0.278 OA
ATOM     16  H   UNL     1       3.302   5.819  10.210  0.00  0.00    +0.149 HD
BRANCH  13  17
ATOM     17  C   UNL     1       1.202   6.265  10.807  0.00  0.00    +0.104 C 
BRANCH  17  19
ATOM     18  C   UNL     1       0.749   7.261  13.054  0.00  0.00    +0.005 C 
ATOM     19  C   UNL     1       1.841   6.758  12.107  0.00  0.00    +0.015 C 
ENDBRANCH  17  19
ENDBRANCH  13  17
ENDBRANCH  12  14
ENDBRANCH   5  12
ENDBRANCH   1   8
BRANCH   2  20
ATOM     20  C   UNL     1       1.326   3.418  -0.000  0.00  0.00    +0.167 C 
BRANCH  20  21
ATOM     21  C   UNL     1       1.060   1.937   0.083  0.00  0.00    -0.025 A 
ATOM     22  C   UNL     1      -0.239   1.465   0.061  0.00  0.00    +0.005 A 
ATOM     23  C   UNL     1      -0.482   0.106   0.137  0.00  0.00    +0.000 A 
ATOM     24  C   UNL     1       0.574  -0.781   0.234  0.00  0.00    +0.000 A 
ATOM     25  C   UNL     1       1.873  -0.309   0.256  0.00  0.00    +0.000 A 
ATOM     26  C   UNL     1       2.116   1.050   0.180  0.00  0.00    +0.005 A 
ENDBRANCH  20  21
BRANCH  20  27
ATOM     27  S   UNL     1       2.332   3.771  -1.468  0.00  0.00    -0.108 S 
BRANCH  27  28
ATOM     28  C   UNL     1       1.286   3.333  -2.817  0.00  0.00    +0.009 A 
ATOM     29  C   UNL     1       0.009   2.840  -2.577  0.00  0.00    +0.015 A 
ATOM     30  C   UNL     1      -0.810   2.503  -3.636  0.00  0.00    +0.001 A 
ATOM     31  C   UNL     1      -0.357   2.647  -4.935  0.00  0.00    +0.000 A 
ATOM     32  C   UNL     1       0.915   3.133  -5.178  0.00  0.00    +0.001 A 
ATOM     33  C   UNL     1       1.737   3.476  -4.123  0.00  0.00    +0.015 A 
ENDBRANCH  27  28
ENDBRANCH  20  27
ENDBRANCH   2  20
TORSDOF 9
