REMARK  Name = ZINC08911669
REMARK  13 active torsions:
REMARK  status: ('A' for Active; 'I' for Inactive)
REMARK    1  A    between atoms: C_1  and  C_2
REMARK    2  A    between atoms: C_2  and  O_3
REMARK    3  A    between atoms: O_3  and  C_4
REMARK    4  A    between atoms: C_7  and  C_13
REMARK    5  A    between atoms: C_9  and  O_10
REMARK    6  A    between atoms: O_10  and  C_11
REMARK    7  A    between atoms: C_11  and  C_12
REMARK    8  A    between atoms: C_13  and  C_14
REMARK    9  A    between atoms: C_14  and  N_15
REMARK   10  A    between atoms: C_16  and  C_18
REMARK   11  A    between atoms: C_21  and  C_24
REMARK   12  A    between atoms: C_24  and  S_25
REMARK   13  A    between atoms: S_25  and  C_26
REMARK                            x       y       z     vdW  Elec       q    Type
REMARK                         _______ _______ _______ _____ _____    ______ ____
ROOT
ATOM      1  C   UNL     1       7.644  -1.027   3.797  0.00  0.00    +0.037 A 
ATOM      2  C   UNL     1       7.539  -2.418   3.828  0.00  0.00    +0.013 A 
ATOM      3  C   UNL     1       8.681  -3.192   3.862  0.00  0.00    +0.005 A 
ATOM      4  C   UNL     1       9.927  -2.591   3.877  0.00  0.00    -0.037 A 
ATOM      5  C   UNL     1      10.037  -1.212   3.852  0.00  0.00    +0.005 A 
ATOM      6  C   UNL     1       8.904  -0.427   3.812  0.00  0.00    +0.013 A 
ENDROOT
BRANCH   1   8
ATOM      7  N   UNL     1       5.209  -0.774   3.741  0.00  0.00    -0.311 N 
ATOM      8  C   UNL     1       6.424  -0.192   3.755  0.00  0.00    +0.244 C 
ATOM      9  O   UNL     1       6.518   1.020   3.733  0.00  0.00    -0.270 OA
ATOM     10  H   UNL     1       5.124  -1.870   3.760  0.00  0.00    +0.149 HD
BRANCH   7  11
ATOM     11  C   UNL     1       4.000   0.053   3.699  0.00  0.00    +0.109 C 
BRANCH  11  12
ATOM     12  C   UNL     1       2.765  -0.849   3.690  0.00  0.00    +0.054 C 
BRANCH  12  16
ATOM     13  C   UNL     1      -0.760   1.571   3.574  0.00  0.00    +0.162 A 
ATOM     14  C   UNL     1      -0.213   1.196   4.791  0.00  0.00    +0.050 A 
ATOM     15  C   UNL     1       0.927   0.415   4.825  0.00  0.00    +0.007 A 
ATOM     16  C   UNL     1       1.522   0.003   3.647  0.00  0.00    -0.042 A 
ATOM     17  C   UNL     1       0.979   0.369   2.430  0.00  0.00    +0.053 A 
ATOM     18  C   UNL     1      -0.165   1.151   2.388  0.00  0.00    +0.162 A 
BRANCH  13  19
ATOM     19  O   UNL     1      -1.878   2.344   3.538  0.00  0.00    -0.489 OA
BRANCH  19  21
ATOM     20  C   UNL     1      -3.679   3.595   4.554  0.00  0.00    +0.048 C 
ATOM     21  C   UNL     1      -2.435   2.738   4.794  0.00  0.00    +0.226 C 
ENDBRANCH  19  21
ENDBRANCH  13  19
BRANCH  18  22
ATOM     22  O   UNL     1      -0.700   1.512   1.192  0.00  0.00    -0.489 OA
BRANCH  22  23
ATOM     23  C   UNL     1      -0.033   1.049   0.016  0.00  0.00    +0.226 C 
ATOM     24  C   UNL     1      -0.776   1.551  -1.224  0.00  0.00    +0.048 C 
ENDBRANCH  22  23
ENDBRANCH  18  22
ENDBRANCH  12  16
ENDBRANCH  11  12
ENDBRANCH   7  11
ENDBRANCH   1   8
BRANCH   4  25
ATOM     25  C   UNL     1      11.170  -3.442   3.921  0.00  0.00    +0.112 C 
BRANCH  25  26
ATOM     26  S   UNL     1      11.631  -3.749   5.644  0.00  0.00    -0.083 S 
BRANCH  26  27
ATOM     27  C   UNL     1      13.070  -4.736   5.405  0.00  0.00    +0.168 A 
ATOM     28  N   UNL     1      13.842  -5.257   6.407  0.00  0.00    -0.333 N 
ATOM     29  C   UNL     1      14.867  -5.961   5.811  0.00  0.00    +0.070 A 
ATOM     30  C   UNL     1      15.951  -6.698   6.270  0.00  0.00    +0.045 A 
ATOM     31  C   UNL     1      16.797  -7.280   5.349  0.00  0.00    +0.084 A 
ATOM     32  N   UNL     1      16.589  -7.153   4.050  0.00  0.00    -0.365 N 
ATOM     33  C   UNL     1      15.580  -6.460   3.562  0.00  0.00    +0.112 A 
ATOM     34  C   UNL     1      14.674  -5.838   4.421  0.00  0.00    +0.106 A 
ATOM     35  N   UNL     1      13.562  -5.081   4.239  0.00  0.00    -0.221 NA
ATOM     36  H   UNL     1      17.295  -7.650   3.368  0.00  0.00    +0.165 HD
ATOM     37  H   UNL     1      13.775  -5.206   7.503  0.00  0.00    +0.168 HD
ENDBRANCH  26  27
ENDBRANCH  25  26
ENDBRANCH   4  25
TORSDOF 11
