REMARK  Name = ZINC63478643
REMARK  9 active torsions:
REMARK  status: ('A' for Active; 'I' for Inactive)
REMARK    1  A    between atoms: C_1  and  O_2
REMARK    2  A    between atoms: O_2  and  C_3
REMARK    3  A    between atoms: C_7  and  C_12
REMARK    4  A    between atoms: C_12  and  C_13
REMARK    5  A    between atoms: C_13  and  N_14
REMARK    6  A    between atoms: C_15  and  C_17
REMARK    7  A    between atoms: C_17  and  S_18
REMARK    8  A    between atoms: S_18  and  C_19
REMARK    9  A    between atoms: N_24  and  C_25
REMARK                            x       y       z     vdW  Elec       q    Type
REMARK                         _______ _______ _______ _____ _____    ______ ____
ROOT
ATOM      1  N   UNL     1       2.943  -1.863   7.779  0.00  0.00    -0.314 N 
ATOM      2  C   UNL     1       2.282  -1.801   8.952  0.00  0.00    +0.223 C 
ATOM      3  O   UNL     1       1.101  -2.072   8.997  0.00  0.00    -0.275 OA
ATOM      4  H   UNL     1       3.888  -1.647   7.743  0.00  0.00    +0.149 HD
ENDROOT
BRANCH   1   5
ATOM      5  C   UNL     1       2.235  -2.258   6.559  0.00  0.00    +0.108 C 
BRANCH   5   6
ATOM      6  C   UNL     1       3.208  -2.249   5.379  0.00  0.00    +0.052 C 
BRANCH   6  11
ATOM      7  C   UNL     1       0.624  -0.617   1.039  0.00  0.00    +0.122 A 
ATOM      8  C   UNL     1       1.200   0.178   2.049  0.00  0.00    +0.046 A 
ATOM      9  C   UNL     1       1.834  -0.371   3.107  0.00  0.00    +0.013 A 
ATOM     10  C   UNL     1       1.923  -1.834   3.206  0.00  0.00    -0.001 A 
ATOM     11  C   UNL     1       2.479  -2.655   4.124  0.00  0.00    -0.040 C 
ATOM     12  C   UNL     1       2.224  -4.064   3.638  0.00  0.00    +0.144 C 
ATOM     13  N   UNL     1       1.482  -3.928   2.379  0.00  0.00    -0.380 N 
ATOM     14  C   UNL     1       1.310  -2.649   2.133  0.00  0.00    +0.046 A 
ATOM     15  C   UNL     1       0.664  -1.974   1.067  0.00  0.00    +0.071 A 
ATOM     16  H   UNL     1       1.170  -4.659   1.823  0.00  0.00    +0.160 HD
BRANCH   7  18
ATOM     17  C   UNL     1      -0.017   1.425   0.010  0.00  0.00    +0.277 C 
ATOM     18  O   UNL     1       0.002  -0.004   0.002  0.00  0.00    -0.495 OA
ENDBRANCH   7  18
ENDBRANCH   6  11
ENDBRANCH   5   6
ENDBRANCH   1   5
BRANCH   2  19
ATOM     19  C   UNL     1       3.010  -1.394  10.207  0.00  0.00    +0.168 C 
BRANCH  19  20
ATOM     20  S   UNL     1       1.857  -1.406  11.607  0.00  0.00    -0.107 S 
BRANCH  20  21
ATOM     21  C   UNL     1       2.876  -0.901  13.020  0.00  0.00    +0.260 C 
ATOM     22  N   UNL     1       3.522   0.399  12.760  0.00  0.00    -0.218 N 
ATOM     23  N   UNL     1       4.900   0.156  12.794  0.00  0.00    -0.063 NA
ATOM     24  N   UNL     1       5.168  -1.020  13.021  0.00  0.00    -0.056 NA
ATOM     25  N   UNL     1       4.022  -1.814  13.189  0.00  0.00    -0.174 N 
ATOM     26  H   UNL     1       3.082   1.248  12.598  0.00  0.00    +0.173 HD
BRANCH  25  27
ATOM     27  C   UNL     1       3.975  -3.182  13.460  0.00  0.00    +0.057 A 
ATOM     28  C   UNL     1       2.735  -3.820  13.592  0.00  0.00    +0.026 A 
ATOM     29  C   UNL     1       2.659  -5.151  13.855  0.00  0.00    +0.010 A 
ATOM     30  C   UNL     1       3.837  -5.906  13.999  0.00  0.00    -0.018 A 
ATOM     31  C   UNL     1       3.788  -7.283  14.271  0.00  0.00    +0.008 A 
ATOM     32  C   UNL     1       4.946  -7.986  14.405  0.00  0.00    +0.001 A 
ATOM     33  C   UNL     1       6.184  -7.359  14.275  0.00  0.00    +0.001 A 
ATOM     34  C   UNL     1       6.271  -6.027  14.013  0.00  0.00    +0.008 A 
ATOM     35  C   UNL     1       5.096  -5.269  13.868  0.00  0.00    -0.016 A 
ATOM     36  C   UNL     1       5.148  -3.893  13.590  0.00  0.00    +0.033 A 
ENDBRANCH  25  27
ENDBRANCH  20  21
ENDBRANCH  19  20
ENDBRANCH   2  19
TORSDOF 8
