REMARK  Name = ZINC38008977
REMARK  6 active torsions:
REMARK  status: ('A' for Active; 'I' for Inactive)
REMARK    1  A    between atoms: C_1  and  C_2
REMARK    2  A    between atoms: C_6  and  N_9
REMARK    3  A    between atoms: C_7  and  C_8
REMARK    4  A    between atoms: N_9  and  S_10
REMARK    5  A    between atoms: S_10  and  C_13
REMARK    6  A    between atoms: N_19  and  N_20
REMARK                            x       y       z     vdW  Elec       q    Type
REMARK                         _______ _______ _______ _____ _____    ______ ____
ROOT
ATOM      1  S   UNL     1       0.073  -4.452   2.378  0.00  0.00    +0.092 S 
ATOM      2  O   UNL     1      -1.169  -4.871   1.830  0.00  0.00    -0.148 OA
ATOM      3  O   UNL     1       1.321  -4.838   1.818  0.00  0.00    -0.148 OA
ENDROOT
BRANCH   1   4
ATOM      4  C   UNL     1       0.088  -4.986   4.057  0.00  0.00    +0.115 A 
ATOM      5  C   UNL     1       1.288  -5.179   4.730  0.00  0.00    +0.046 A 
ATOM      6  C   UNL     1       1.266  -5.597   6.045  0.00  0.00    +0.086 A 
ATOM      7  N   UNL     1       0.122  -5.814   6.667  0.00  0.00    -0.349 N 
ATOM      8  C   UNL     1      -1.042  -5.641   6.061  0.00  0.00    +0.112 A 
ATOM      9  C   UNL     1      -1.094  -5.215   4.737  0.00  0.00    +0.071 A 
ATOM     10  N   UNL     1      -2.222  -5.881   6.754  0.00  0.00    -0.269 N 
ATOM     11  H   UNL     1      -3.077  -5.756   6.314  0.00  0.00    +0.167 HD
ATOM     12  H   UNL     1       0.135  -6.107   7.592  0.00  0.00    +0.167 HD
BRANCH  10  13
ATOM     13  N   UNL     1      -2.178  -6.293   8.056  0.00  0.00    -0.255 NA
ATOM     14  H   UNL     1      -1.653  -5.645   8.623  0.00  0.00    +0.140 HD
ATOM     15  H   UNL     1      -3.108  -6.426   8.425  0.00  0.00    +0.140 HD
ENDBRANCH  10  13
ENDBRANCH   1   4
BRANCH   1  16
ATOM     16  N   UNL     1       0.051  -2.796   2.390  0.00  0.00    -0.098 NA
BRANCH  16  22
ATOM     17  C   UNL     1      -0.018   1.503   0.010  0.00  0.00    +0.044 C 
ATOM     18  C   UNL     1       0.002  -0.004   0.002  0.00  0.00    -0.046 A 
ATOM     19  C   UNL     1       0.006  -0.688  -1.200  0.00  0.00    +0.004 A 
ATOM     20  C   UNL     1       0.024  -2.071  -1.212  0.00  0.00    +0.002 A 
ATOM     21  C   UNL     1       0.039  -2.773  -0.023  0.00  0.00    +0.027 A 
ATOM     22  C   UNL     1       0.036  -2.089   1.186  0.00  0.00    +0.077 A 
ATOM     23  C   UNL     1       0.023  -0.700   1.194  0.00  0.00    -0.023 A 
ATOM     24  C   UNL     1       0.025   0.046   2.504  0.00  0.00    +0.046 C 
ENDBRANCH  16  22
ENDBRANCH   1  16
TORSDOF 4
