REMARK  Name = ZINC63526510
REMARK  8 active torsions:
REMARK  status: ('A' for Active; 'I' for Inactive)
REMARK    1  A    between atoms: C_1  and  C_2
REMARK    2  A    between atoms: C_4  and  C_17
REMARK    3  A    between atoms: C_7  and  O_12
REMARK    4  A    between atoms: O_12  and  C_13
REMARK    5  A    between atoms: C_17  and  C_18
REMARK    6  A    between atoms: C_18  and  N_19
REMARK    7  A    between atoms: C_20  and  C_22
REMARK    8  A    between atoms: N_26  and  C_29
REMARK                            x       y       z     vdW  Elec       q    Type
REMARK                         _______ _______ _______ _____ _____    ______ ____
ROOT
ATOM      1  N   UNL     1       0.833  -0.972  -4.969  0.00  0.00    -0.311 N 
ATOM      2  C   UNL     1       1.643  -1.403  -5.956  0.00  0.00    +0.249 C 
ATOM      3  O   UNL     1       2.682  -1.974  -5.684  0.00  0.00    -0.270 OA
ATOM      4  H   UNL     1       0.039  -0.457  -5.183  0.00  0.00    +0.149 HD
ENDROOT
BRANCH   2   5
ATOM      5  C   UNL     1       1.271  -1.183  -7.363  0.00  0.00    +0.102 A 
ATOM      6  C   UNL     1       2.029  -1.723  -8.393  0.00  0.00    +0.031 A 
ATOM      7  C   UNL     1       1.632  -1.487  -9.727  0.00  0.00    +0.038 A 
ATOM      8  C   UNL     1       0.503  -0.736 -10.006  0.00  0.00    +0.038 A 
ATOM      9  N   UNL     1      -0.231  -0.206  -9.004  0.00  0.00    -0.280 N 
ATOM     10  C   UNL     1       0.087  -0.394  -7.713  0.00  0.00    +0.268 A 
ATOM     11  O   UNL     1      -0.603   0.093  -6.836  0.00  0.00    -0.266 OA
ATOM     12  C   UNL     1       0.052  -0.491 -11.423  0.00  0.00    +0.055 C 
ATOM     13  C   UNL     1       1.210  -0.635 -12.406  0.00  0.00    +0.014 C 
ATOM     14  C   UNL     1       1.863  -2.011 -12.221  0.00  0.00    +0.080 C 
ATOM     15  C   UNL     1       2.441  -2.049 -10.822  0.00  0.00    +0.165 C 
ATOM     16  O   UNL     1       3.536  -2.526 -10.610  0.00  0.00    -0.292 OA
BRANCH   9  17
ATOM     17  C   UNL     1      -1.362   0.558  -9.321  0.00  0.00    +0.050 A 
ATOM     18  C   UNL     1      -2.486  -0.054  -9.859  0.00  0.00    +0.026 A 
ATOM     19  C   UNL     1      -3.600   0.702 -10.170  0.00  0.00    +0.002 A 
ATOM     20  C   UNL     1      -3.595   2.067  -9.945  0.00  0.00    +0.000 A 
ATOM     21  C   UNL     1      -2.477   2.679  -9.409  0.00  0.00    +0.002 A 
ATOM     22  C   UNL     1      -1.363   1.928  -9.091  0.00  0.00    +0.026 A 
ENDBRANCH   9  17
ENDBRANCH   2   5
BRANCH   1  23
ATOM     23  C   UNL     1       1.151  -1.280  -3.573  0.00  0.00    +0.109 C 
BRANCH  23  24
ATOM     24  C   UNL     1       0.079  -0.679  -2.661  0.00  0.00    +0.052 C 
BRANCH  24  27
ATOM     25  C   UNL     1      -0.463   0.931   0.100  0.00  0.00    +0.035 C 
ATOM     26  C   UNL     1      -0.387  -0.593  -0.001  0.00  0.00    +0.103 C 
ATOM     27  C   UNL     1       0.406  -0.996  -1.224  0.00  0.00    -0.037 C 
ATOM     28  C   UNL     1       1.468  -1.698  -0.768  0.00  0.00    +0.003 A 
ATOM     29  C   UNL     1       2.594  -2.352  -1.445  0.00  0.00    +0.056 A 
ATOM     30  C   UNL     1       3.530  -2.998  -0.709  0.00  0.00    +0.131 A 
ATOM     31  C   UNL     1       3.466  -3.067   0.694  0.00  0.00    +0.048 A 
ATOM     32  C   UNL     1       2.470  -2.497   1.405  0.00  0.00    +0.029 A 
ATOM     33  C   UNL     1       1.401  -1.772   0.710  0.00  0.00    +0.043 A 
ATOM     34  N   UNL     1       0.340  -1.141   1.150  0.00  0.00    -0.378 N 
ATOM     35  H   UNL     1       0.079  -1.051   2.080  0.00  0.00    +0.160 HD
BRANCH  30  36
ATOM     36  O   UNL     1       4.567  -3.600  -1.349  0.00  0.00    -0.406 OA
BRANCH  36  37
ATOM     37  C   UNL     1       5.532  -4.269  -0.534  0.00  0.00    +0.575 C 
ATOM     38  F   UNL     1       4.902  -5.283   0.196  0.00  0.00    -0.133 F 
ATOM     39  F   UNL     1       6.523  -4.828  -1.349  0.00  0.00    -0.133 F 
ATOM     40  F   UNL     1       6.114  -3.353   0.347  0.00  0.00    -0.133 F 
ENDBRANCH  36  37
ENDBRANCH  30  36
ENDBRANCH  24  27
ENDBRANCH  23  24
ENDBRANCH   1  23
TORSDOF 7
