REMARK  Name = ZINC08396021
REMARK  10 active torsions:
REMARK  status: ('A' for Active; 'I' for Inactive)
REMARK    1  A    between atoms: C_1  and  C_2
REMARK    2  A    between atoms: C_3  and  C_9
REMARK    3  A    between atoms: C_4  and  O_8
REMARK    4  A    between atoms: C_9  and  C_10
REMARK    5  A    between atoms: C_9  and  C_27
REMARK    6  A    between atoms: C_13  and  O_16
REMARK    7  A    between atoms: O_16  and  S_17
REMARK    8  A    between atoms: S_17  and  C_20
REMARK    9  A    between atoms: C_28  and  C_34
REMARK   10  A    between atoms: C_32  and  O_33
REMARK                            x       y       z     vdW  Elec       q    Type
REMARK                         _______ _______ _______ _____ _____    ______ ____
ROOT
ATOM      1  C   UNL     1      -0.014  -0.337  -2.547  0.00  0.00    +0.093 C 
ENDROOT
BRANCH   1   4
ATOM      2  C   UNL     1      -0.975   1.854  -0.470  0.00  0.00    +0.068 C 
ATOM      3  C   UNL     1      -0.741   0.396  -0.172  0.00  0.00    +0.068 A 
ATOM      4  C   UNL     1      -0.317  -0.570  -1.090  0.00  0.00    +0.048 A 
ATOM      5  C   UNL     1      -0.227  -1.757  -0.433  0.00  0.00    +0.213 A 
ATOM      6  N   UNL     1      -0.583  -1.542   0.852  0.00  0.00    -0.247 N 
ATOM      7  H   UNL     1      -0.614  -2.209   1.556  0.00  0.00    +0.192 HD
ATOM      8  N   UNL     1      -0.895  -0.183   0.991  0.00  0.00    -0.176 NA
BRANCH   5   9
ATOM      9  O   UNL     1       0.151  -2.945  -0.972  0.00  0.00    -0.492 OA
ATOM     10  H   UNL     1       1.089  -3.148  -0.857  0.00  0.00    +0.294 HD
ENDBRANCH   5   9
ENDBRANCH   1   4
BRANCH   1  11
ATOM     11  C   UNL     1       1.361  -0.865  -2.865  0.00  0.00    +0.048 A 
ATOM     12  C   UNL     1       2.437  -0.827  -2.047  0.00  0.00    +0.041 A 
ATOM     13  N   UNL     1       3.472  -1.399  -2.699  0.00  0.00    -0.278 N 
ATOM     14  N   UNL     1       3.019  -1.804  -3.961  0.00  0.00    -0.136 NA
ATOM     15  H   UNL     1       4.371  -1.511  -2.353  0.00  0.00    +0.189 HD
ATOM     16  C   UNL     1       1.750  -1.489  -4.060  0.00  0.00    +0.236 A 
ATOM     17  C   UNL     1       2.475  -0.248  -0.656  0.00  0.00    +0.065 C 
BRANCH  16  18
ATOM     18  O   UNL     1       0.951  -1.723  -5.136  0.00  0.00    -0.491 OA
ATOM     19  H   UNL     1       1.002  -1.042  -5.820  0.00  0.00    +0.294 HD
ENDBRANCH  16  18
ENDBRANCH   1  11
BRANCH   1  20
ATOM     20  C   UNL     1      -1.035  -1.053  -3.394  0.00  0.00    -0.035 A 
ATOM     21  C   UNL     1      -1.052  -2.435  -3.434  0.00  0.00    +0.008 A 
ATOM     22  C   UNL     1      -1.987  -3.093  -4.209  0.00  0.00    +0.049 A 
ATOM     23  C   UNL     1      -2.910  -2.366  -4.947  0.00  0.00    +0.157 A 
ATOM     24  C   UNL     1      -2.891  -0.980  -4.905  0.00  0.00    +0.049 A 
ATOM     25  C   UNL     1      -1.958  -0.326  -4.124  0.00  0.00    +0.008 A 
BRANCH  23  26
ATOM     26  O   UNL     1      -3.830  -3.012  -5.711  0.00  0.00    -0.342 OA
BRANCH  26  27
ATOM     27  S   UNL     1      -5.128  -3.328  -4.982  0.00  0.00    +0.151 S 
ATOM     28  O   UNL     1      -5.882  -4.172  -5.841  0.00  0.00    -0.131 OA
ATOM     29  O   UNL     1      -4.769  -3.711  -3.661  0.00  0.00    -0.131 OA
BRANCH  27  30
ATOM     30  C   UNL     1      -6.027  -1.819  -4.841  0.00  0.00    +0.128 A 
ATOM     31  C   UNL     1      -5.841  -1.003  -3.741  0.00  0.00    +0.033 A 
ATOM     32  C   UNL     1      -6.545   0.180  -3.631  0.00  0.00    +0.040 A 
ATOM     33  C   UNL     1      -7.438   0.549  -4.622  0.00  0.00    +0.124 A 
ATOM     34  C   UNL     1      -7.625  -0.269  -5.724  0.00  0.00    +0.040 A 
ATOM     35  C   UNL     1      -6.915  -1.449  -5.835  0.00  0.00    +0.033 A 
ATOM     36  F   UNL     1      -8.128   1.706  -4.515  0.00  0.00    -0.205 F 
ENDBRANCH  27  30
ENDBRANCH  26  27
ENDBRANCH  23  26
ENDBRANCH   1  20
TORSDOF 8
