REMARK  Name = ZINC15006235
REMARK  11 active torsions:
REMARK  status: ('A' for Active; 'I' for Inactive)
REMARK    1  A    between atoms: C_1  and  N_2
REMARK    2  A    between atoms: N_2  and  C_3
REMARK    3  A    between atoms: N_2  and  C_31
REMARK    4  A    between atoms: C_3  and  C_4
REMARK    5  A    between atoms: C_8  and  O_10
REMARK    6  A    between atoms: O_10  and  C_11
REMARK    7  A    between atoms: C_11  and  C_12
REMARK    8  A    between atoms: C_12  and  N_13
REMARK    9  A    between atoms: C_19  and  C_21
REMARK   10  A    between atoms: C_24  and  C_27
REMARK   11  A    between atoms: C_31  and  C_32
REMARK                            x       y       z     vdW  Elec       q    Type
REMARK                         _______ _______ _______ _____ _____    ______ ____
ROOT
ATOM      1  C   UNL     1      -1.570   5.000   5.260  0.00  0.00    +0.244 C 
ENDROOT
BRANCH   1   2
ATOM      2  O   UNL     1      -0.665   4.483   4.283  0.00  0.00    -0.491 OA
BRANCH   2   7
ATOM      3  C   UNL     1      -0.351   1.412   2.357  0.00  0.00    -0.061 A 
ATOM      4  C   UNL     1      -1.450   0.708   2.814  0.00  0.00    +0.002 A 
ATOM      5  C   UNL     1      -2.286   1.267   3.763  0.00  0.00    +0.004 A 
ATOM      6  C   UNL     1      -2.025   2.531   4.256  0.00  0.00    +0.045 A 
ATOM      7  C   UNL     1      -0.923   3.239   3.799  0.00  0.00    +0.121 A 
ATOM      8  C   UNL     1      -0.083   2.674   2.851  0.00  0.00    +0.047 A 
BRANCH   3   9
ATOM      9  C   UNL     1       0.559   0.800   1.323  0.00  0.00    -0.043 C 
BRANCH   9  11
ATOM     10  C   UNL     1      -1.224   0.537  -0.294  0.00  0.00    -0.096 C 
ATOM     11  N   UNL     1       0.081   1.154  -0.021  0.00  0.00    +0.382 N 
ATOM     12  H   UNL     1      -0.046   2.246  -0.057  0.00  0.00    -0.082 HD
BRANCH  11  13
ATOM     13  C   UNL     1       1.065   0.779  -1.045  0.00  0.00    -0.056 C 
BRANCH  13  14
ATOM     14  C   UNL     1       0.654   1.380  -2.391  0.00  0.00    +0.057 C 
ATOM     15  C   UNL     1       1.754   1.129  -3.446  0.00  0.00    +0.029 C 
ATOM     16  C   UNL     1       2.587   2.431  -3.345  0.00  0.00    +0.097 C 
ATOM     17  C   UNL     1       1.612   3.454  -2.804  0.00  0.00    +0.213 C 
ATOM     18  O   UNL     1       1.777   4.655  -2.839  0.00  0.00    -0.276 OA
ATOM     19  N   UNL     1       0.538   2.838  -2.282  0.00  0.00    -0.314 N 
ATOM     20  H   UNL     1      -0.352   3.286  -1.816  0.00  0.00    +0.149 HD
ENDBRANCH  13  14
ENDBRANCH  11  13
ENDBRANCH   9  11
ENDBRANCH   3   9
ENDBRANCH   2   7
ENDBRANCH   1   2
BRANCH   1  21
ATOM     21  C   UNL     1      -1.120   6.400   5.682  0.00  0.00    +0.125 C 
BRANCH  21  22
ATOM     22  N   UNL     1      -1.202   7.309   4.530  0.00  0.00    -0.296 NA
ATOM     23  C   UNL     1      -0.357   8.493   4.733  0.00  0.00    +0.103 C 
ATOM     24  C   UNL     1      -0.327   9.322   3.444  0.00  0.00    +0.123 C 
ATOM     25  N   UNL     1      -1.712   9.608   3.041  0.00  0.00    -0.295 N 
ATOM     26  C   UNL     1      -2.657   8.484   2.950  0.00  0.00    +0.123 C 
ATOM     27  C   UNL     1      -2.595   7.689   4.258  0.00  0.00    +0.103 C 
ATOM     28  C   UNL     1      -2.106  10.867   2.763  0.00  0.00    +0.247 C 
ATOM     29  O   UNL     1      -3.275  11.100   2.529  0.00  0.00    -0.270 OA
BRANCH  28  30
ATOM     30  C   UNL     1      -1.115  11.964   2.744  0.00  0.00    +0.037 A 
ATOM     31  C   UNL     1      -1.488  13.253   3.126  0.00  0.00    +0.013 A 
ATOM     32  C   UNL     1      -0.557  14.271   3.110  0.00  0.00    +0.013 A 
ATOM     33  C   UNL     1       0.742  14.018   2.706  0.00  0.00    +0.055 A 
ATOM     34  C   UNL     1       1.117  12.744   2.321  0.00  0.00    +0.013 A 
ATOM     35  C   UNL     1       0.197  11.716   2.337  0.00  0.00    +0.013 A 
BRANCH  33  36
ATOM     36  C   UNL     1       1.752  15.136   2.685  0.00  0.00    +0.417 C 
ATOM     37  F   UNL     1       1.731  15.761   1.433  0.00  0.00    -0.166 F 
ATOM     38  F   UNL     1       1.434  16.070   3.677  0.00  0.00    -0.166 F 
ATOM     39  F   UNL     1       3.028  14.617   2.926  0.00  0.00    -0.166 F 
ENDBRANCH  33  36
ENDBRANCH  28  30
ENDBRANCH  21  22
ENDBRANCH   1  21
TORSDOF 10
