REMARK  Name = ZINC08595717
REMARK  14 active torsions:
REMARK  status: ('A' for Active; 'I' for Inactive)
REMARK    1  A    between atoms: C_1  and  C_2
REMARK    2  A    between atoms: C_2  and  O_3
REMARK    3  A    between atoms: O_3  and  C_4
REMARK    4  A    between atoms: C_7  and  C_10
REMARK    5  A    between atoms: N_18  and  C_31
REMARK    6  A    between atoms: C_19  and  C_21
REMARK    7  A    between atoms: C_24  and  O_29
REMARK    8  A    between atoms: C_26  and  O_27
REMARK    9  A    between atoms: O_27  and  C_28
REMARK   10  A    between atoms: O_29  and  C_30
REMARK   11  A    between atoms: C_34  and  C_37
REMARK   12  A    between atoms: C_37  and  O_39
REMARK   13  A    between atoms: O_39  and  C_40
REMARK   14  A    between atoms: C_40  and  C_41
REMARK                            x       y       z     vdW  Elec       q    Type
REMARK                         _______ _______ _______ _____ _____    ______ ____
ROOT
ATOM      1  C   UNL     1      -2.094  -5.928  -0.059  0.00  0.00    +0.099 A 
ATOM      2  C   UNL     1      -2.985  -6.716   0.677  0.00  0.00    +0.035 A 
ATOM      3  C   UNL     1      -2.705  -8.025   0.330  0.00  0.00    +0.127 A 
ATOM      4  N   UNL     1      -1.685  -7.967  -0.576  0.00  0.00    -0.272 N 
ATOM      5  H   UNL     1      -1.273  -8.736  -1.001  0.00  0.00    +0.189 HD
ATOM      6  N   UNL     1      -1.355  -6.743  -0.787  0.00  0.00    -0.173 NA
ATOM      7  C   UNL     1      -3.611  -8.908   1.072  0.00  0.00    +0.270 C 
ATOM      8  O   UNL     1      -3.620 -10.121   0.990  0.00  0.00    -0.268 OA
ATOM      9  N   UNL     1      -4.431  -8.186   1.857  0.00  0.00    -0.254 N 
ATOM     10  C   UNL     1      -4.108  -6.764   1.676  0.00  0.00    +0.150 C 
ENDROOT
BRANCH   1  14
ATOM     11  C   UNL     1      -1.829  -1.683   0.020  0.00  0.00    +0.121 A 
ATOM     12  C   UNL     1      -0.672  -2.449  -0.025  0.00  0.00    +0.046 A 
ATOM     13  C   UNL     1      -0.755  -3.825  -0.051  0.00  0.00    +0.013 A 
ATOM     14  C   UNL     1      -2.002  -4.447  -0.032  0.00  0.00    +0.003 A 
ATOM     15  C   UNL     1      -3.161  -3.676   0.013  0.00  0.00    +0.013 A 
ATOM     16  C   UNL     1      -3.072  -2.300   0.044  0.00  0.00    +0.046 A 
BRANCH  11  17
ATOM     17  O   UNL     1      -1.745  -0.327   0.045  0.00  0.00    -0.492 OA
BRANCH  17  19
ATOM     18  C   UNL     1      -0.540   1.768   0.051  0.00  0.00    +0.048 C 
ATOM     19  C   UNL     1      -0.434   0.242   0.017  0.00  0.00    +0.225 C 
ENDBRANCH  17  19
ENDBRANCH  11  17
ENDBRANCH   1  14
BRANCH  10  20
ATOM     20  C   UNL     1      -3.665  -6.161   2.984  0.00  0.00    +0.020 A 
ATOM     21  C   UNL     1      -4.122  -4.912   3.358  0.00  0.00    +0.013 A 
ATOM     22  C   UNL     1      -3.717  -4.356   4.557  0.00  0.00    +0.046 A 
ATOM     23  C   UNL     1      -2.851  -5.053   5.388  0.00  0.00    +0.124 A 
ATOM     24  C   UNL     1      -2.392  -6.306   5.015  0.00  0.00    +0.091 A 
ATOM     25  C   UNL     1      -2.804  -6.864   3.814  0.00  0.00    +0.129 A 
BRANCH  25  26
ATOM     26  O   UNL     1      -2.360  -8.095   3.449  0.00  0.00    -0.495 OA
ATOM     27  C   UNL     1      -1.566  -8.807   4.400  0.00  0.00    +0.277 C 
ENDBRANCH  25  26
BRANCH  23  28
ATOM     28  O   UNL     1      -2.454  -4.506   6.567  0.00  0.00    -0.495 OA
ATOM     29  C   UNL     1      -2.966  -3.211   6.887  0.00  0.00    +0.277 C 
ENDBRANCH  23  28
ENDBRANCH  10  20
BRANCH   9  30
ATOM     30  C   UNL     1      -5.417  -8.698   2.697  0.00  0.00    +0.038 A 
ATOM     31  C   UNL     1      -6.203  -7.833   3.454  0.00  0.00    +0.024 A 
ATOM     32  C   UNL     1      -7.178  -8.336   4.285  0.00  0.00    +0.017 A 
ATOM     33  C   UNL     1      -7.379  -9.717   4.368  0.00  0.00    +0.059 A 
ATOM     34  C   UNL     1      -6.589 -10.583   3.606  0.00  0.00    +0.017 A 
ATOM     35  C   UNL     1      -5.619 -10.073   2.773  0.00  0.00    +0.024 A 
BRANCH  33  36
ATOM     36  C   UNL     1      -8.423 -10.259   5.257  0.00  0.00    +0.339 C 
ATOM     37  O   UNL     1      -9.109  -9.505   5.919  0.00  0.00    -0.245 OA
BRANCH  36  38
ATOM     38  O   UNL     1      -8.616 -11.590   5.336  0.00  0.00    -0.461 OA
BRANCH  38  39
ATOM     39  C   UNL     1      -9.644 -12.046   6.218  0.00  0.00    +0.229 C 
ATOM     40  C   UNL     1      -9.714 -13.573   6.174  0.00  0.00    +0.048 C 
ENDBRANCH  38  39
ENDBRANCH  36  38
ENDBRANCH  33  36
ENDBRANCH   9  30
TORSDOF 10
