REMARK  Name = ZINC09045312
REMARK  8 active torsions:
REMARK  status: ('A' for Active; 'I' for Inactive)
REMARK    1  A    between atoms: C_4  and  C_7
REMARK    2  A    between atoms: C_7  and  N_8
REMARK    3  A    between atoms: C_15  and  C_27
REMARK    4  A    between atoms: C_17  and  C_23
REMARK    5  A    between atoms: C_17  and  C_25
REMARK    6  A    between atoms: C_18  and  N_22
REMARK    7  A    between atoms: C_19  and  C_20
REMARK    8  A    between atoms: C_32  and  N_33
REMARK                            x       y       z     vdW  Elec       q    Type
REMARK                         _______ _______ _______ _____ _____    ______ ____
ROOT
ATOM      1  N   UNL     1       4.681  -0.713  -1.028  0.00  0.00    -0.294 NA
ATOM      2  C   UNL     1       3.620  -1.737  -1.035  0.00  0.00    +0.112 C 
ATOM      3  C   UNL     1       3.344  -2.116   0.399  0.00  0.00    -0.006 C 
ATOM      4  C   UNL     1       4.324  -2.108   1.284  0.00  0.00    -0.026 C 
ATOM      5  C   UNL     1       5.746  -1.785   0.925  0.00  0.00    +0.044 C 
ATOM      6  C   UNL     1       5.922  -1.274  -0.487  0.00  0.00    +0.094 C 
ATOM      7  C   UNL     1       6.287  -0.803   1.965  0.00  0.00    +0.070 C 
ATOM      8  C   UNL     1       6.293  -1.485   3.334  0.00  0.00    +0.188 C 
ATOM      9  C   UNL     1       4.970  -2.114   3.649  0.00  0.00    +0.054 C 
ATOM     10  C   UNL     1       4.043  -2.423   2.706  0.00  0.00    +0.074 C 
ENDROOT
BRANCH   7  11
ATOM     11  C   UNL     1       7.691  -0.397   1.595  0.00  0.00    -0.011 A 
ATOM     12  C   UNL     1       8.643  -1.365   1.331  0.00  0.00    +0.007 A 
ATOM     13  C   UNL     1       9.930  -0.993   0.991  0.00  0.00    +0.020 A 
ATOM     14  C   UNL     1      10.265   0.347   0.914  0.00  0.00    +0.043 A 
ATOM     15  C   UNL     1       9.312   1.314   1.178  0.00  0.00    +0.053 A 
ATOM     16  C   UNL     1       8.024   0.942   1.513  0.00  0.00    +0.131 A 
ATOM     17 CL   UNL     1      11.882   0.814   0.487  0.00  0.00    -0.083 Cl
BRANCH  16  18
ATOM     18  N   UNL     1       7.003   1.977   1.789  0.00  0.00    +0.057 N 
ATOM     19  O   UNL     1       6.968   2.985   1.122  0.00  0.00    -0.126 OA
ATOM     20  O   UNL     1       6.204   1.814   2.682  0.00  0.00    -0.126 OA
ENDBRANCH  16  18
ENDBRANCH   7  11
BRANCH   9  21
ATOM     21  N   UNL     1       4.681  -2.390   4.955  0.00  0.00    -0.358 N 
ATOM     22  H   UNL     1       5.324  -2.180   5.650  0.00  0.00    +0.142 HD
ATOM     23  H   UNL     1       3.831  -2.797   5.189  0.00  0.00    +0.142 HD
ENDBRANCH   9  21
BRANCH  10  24
ATOM     24  C   UNL     1       2.808  -3.046   3.081  0.00  0.00    +0.101 C 
ATOM     25  N   UNL     1       1.830  -3.540   3.377  0.00  0.00    -0.191 NA
ENDBRANCH  10  24
BRANCH   8  26
ATOM     26  C   UNL     1       7.334  -2.526   3.346  0.00  0.00    +0.091 C 
ATOM     27  N   UNL     1       8.137  -3.329   3.356  0.00  0.00    -0.194 NA
ENDBRANCH   8  26
BRANCH   8  28
ATOM     28  C   UNL     1       6.606  -0.484   4.367  0.00  0.00    +0.091 C 
ATOM     29  N   UNL     1       6.848   0.288   5.164  0.00  0.00    -0.194 NA
ENDBRANCH   8  28
BRANCH   1  30
ATOM     30  C   UNL     1       4.894  -0.167  -2.375  0.00  0.00    +0.120 C 
BRANCH  30  34
ATOM     31  C   UNL     1       1.443   2.045  -3.579  0.00  0.00    +0.000 A 
ATOM     32  C   UNL     1       2.470   2.679  -2.906  0.00  0.00    +0.000 A 
ATOM     33  C   UNL     1       3.587   1.964  -2.516  0.00  0.00    +0.005 A 
ATOM     34  C   UNL     1       3.676   0.613  -2.799  0.00  0.00    -0.033 A 
ATOM     35  C   UNL     1       2.648  -0.021  -3.471  0.00  0.00    +0.005 A 
ATOM     36  C   UNL     1       1.532   0.695  -3.862  0.00  0.00    +0.000 A 
ENDBRANCH  30  34
ENDBRANCH   1  30
TORSDOF 8
