REMARK  Name = ZINC02857136
REMARK  11 active torsions:
REMARK  status: ('A' for Active; 'I' for Inactive)
REMARK    1  A    between atoms: C_1  and  C_2
REMARK    2  A    between atoms: C_2  and  N_3
REMARK    3  A    between atoms: C_4  and  C_28
REMARK    4  A    between atoms: C_5  and  N_8
REMARK    5  A    between atoms: N_8  and  C_9
REMARK    6  A    between atoms: C_9  and  N_11
REMARK    7  A    between atoms: N_11  and  C_12
REMARK    8  A    between atoms: C_13  and  C_23
REMARK    9  A    between atoms: C_23  and  O_25
REMARK   10  A    between atoms: O_25  and  C_26
REMARK   11  A    between atoms: C_26  and  C_27
REMARK                            x       y       z     vdW  Elec       q    Type
REMARK                         _______ _______ _______ _____ _____    ______ ____
ROOT
ATOM      1  N   UNL     1      -3.270   1.770   4.344  0.00  0.00    -0.291 N 
ATOM      2  H   UNL     1      -3.435   2.543   4.905  0.00  0.00    +0.154 HD
ENDROOT
BRANCH   1   3
ATOM      3  C   UNL     1      -2.356   1.849   3.306  0.00  0.00    +0.086 A 
ATOM      4  C   UNL     1      -1.594   2.931   2.912  0.00  0.00    +0.091 A 
ATOM      5  C   UNL     1      -0.669   2.756   1.784  0.00  0.00    -0.021 A 
ATOM      6  C   UNL     1      -0.737   1.547   1.206  0.00  0.00    -0.004 A 
ATOM      7  S   UNL     1      -1.894   0.619   2.180  0.00  0.00    -0.077 S 
ATOM      8  C   UNL     1      -0.017   1.046  -0.015  0.00  0.00    +0.043 C 
ATOM      9  C   UNL     1      -0.785   1.582  -1.236  0.00  0.00    +0.005 C 
ATOM     10  C   UNL     1      -0.918   3.104  -1.089  0.00  0.00    +0.000 C 
ATOM     11  C   UNL     1       0.500   3.633  -1.091  0.00  0.00    +0.000 C 
ATOM     12  C   UNL     1       1.190   3.562   0.260  0.00  0.00    +0.005 C 
ATOM     13  C   UNL     1       0.259   3.914   1.413  0.00  0.00    +0.037 C 
BRANCH   4  14
ATOM     14  C   UNL     1      -1.699   4.216   3.605  0.00  0.00    +0.342 C 
ATOM     15  O   UNL     1      -2.501   5.048   3.225  0.00  0.00    -0.245 OA
BRANCH  14  16
ATOM     16  O   UNL     1      -0.906   4.478   4.664  0.00  0.00    -0.461 OA
BRANCH  16  17
ATOM     17  C   UNL     1      -1.065   5.772   5.303  0.00  0.00    +0.229 C 
ATOM     18  C   UNL     1      -0.090   5.886   6.476  0.00  0.00    +0.048 C 
ENDBRANCH  16  17
ENDBRANCH  14  16
ENDBRANCH   4  14
ENDBRANCH   1   3
BRANCH   1  19
ATOM     19  C   UNL     1      -3.929   0.617   4.574  0.00  0.00    +0.139 C 
ATOM     20  S   UNL     1      -3.638  -0.749   3.584  0.00  0.00    -0.018 S 
BRANCH  19  21
ATOM     21  N   UNL     1      -4.819   0.540   5.584  0.00  0.00    -0.294 N 
ATOM     22  H   UNL     1      -4.937   1.292   6.184  0.00  0.00    +0.154 HD
BRANCH  21  25
ATOM     23  N   UNL     1      -7.182  -2.059   6.224  0.00  0.00    -0.258 N 
ATOM     24  C   UNL     1      -6.885  -0.720   6.207  0.00  0.00    +0.144 A 
ATOM     25  C   UNL     1      -5.569  -0.623   5.766  0.00  0.00    +0.083 A 
ATOM     26  C   UNL     1      -5.160  -1.947   5.538  0.00  0.00    +0.158 A 
ATOM     27  N   UNL     1      -6.160  -2.733   5.835  0.00  0.00    -0.177 NA
BRANCH  24  28
ATOM     28  C   UNL     1      -7.774   0.385   6.578  0.00  0.00    +0.261 C 
ATOM     29  O   UNL     1      -8.479   0.908   5.735  0.00  0.00    -0.269 OA
ATOM     30  N   UNL     1      -7.811   0.821   7.852  0.00  0.00    -0.324 N 
ATOM     31  H   UNL     1      -7.198   0.454   8.509  0.00  0.00    +0.145 HD
ATOM     32  H   UNL     1      -8.451   1.502   8.114  0.00  0.00    +0.145 HD
ENDBRANCH  24  28
BRANCH  23  34
ATOM     33  C   UNL     1      -9.422  -2.634   5.429  0.00  0.00    +0.029 C 
ATOM     34  C   UNL     1      -8.468  -2.633   6.625  0.00  0.00    +0.141 C 
ENDBRANCH  23  34
ENDBRANCH  21  25
ENDBRANCH  19  21
ENDBRANCH   1  19
TORSDOF 9
