REMARK  Name = ZINC35494659
REMARK  8 active torsions:
REMARK  status: ('A' for Active; 'I' for Inactive)
REMARK    1  A    between atoms: C_1  and  C_2
REMARK    2  A    between atoms: C_3  and  C_13
REMARK    3  A    between atoms: C_4  and  C_7
REMARK    4  A    between atoms: C_13  and  N_14
REMARK    5  A    between atoms: N_14  and  C_15
REMARK    6  A    between atoms: C_15  and  C_16
REMARK    7  A    between atoms: C_20  and  C_22
REMARK    8  A    between atoms: C_28  and  C_30
REMARK                            x       y       z     vdW  Elec       q    Type
REMARK                         _______ _______ _______ _____ _____    ______ ____
ROOT
ATOM      1  N   UNL     1      -3.125  -0.479  -1.592  0.00  0.00    -0.290 N 
ATOM      2  C   UNL     1      -3.296   0.653  -2.303  0.00  0.00    +0.237 C 
ATOM      3  O   UNL     1      -3.902   0.623  -3.353  0.00  0.00    -0.274 OA
ENDROOT
BRANCH   2   4
ATOM      4  C   UNL     1      -2.733   1.955  -1.795  0.00  0.00    +0.169 C 
ATOM      5  C   UNL     1      -3.692   2.558  -0.767  0.00  0.00    +0.128 C 
ATOM      6  C   UNL     1      -4.903   3.106  -1.480  0.00  0.00    +0.223 C 
ATOM      7  O   UNL     1      -5.993   3.056  -0.951  0.00  0.00    -0.275 OA
ATOM      8  N   UNL     1      -4.773   3.649  -2.704  0.00  0.00    -0.240 N 
ATOM      9  C   UNL     1      -3.592   3.636  -3.345  0.00  0.00    +0.306 C 
ATOM     10  O   UNL     1      -3.450   4.320  -4.340  0.00  0.00    -0.252 OA
ATOM     11  N   UNL     1      -2.567   2.885  -2.913  0.00  0.00    -0.287 N 
ATOM     12  H   UNL     1      -5.543   4.057  -3.130  0.00  0.00    +0.159 HD
ATOM     13  H   UNL     1      -1.703   2.960  -3.349  0.00  0.00    +0.151 HD
ENDBRANCH   2   4
BRANCH   1  14
ATOM     14  C   UNL     1      -2.496  -0.425  -0.270  0.00  0.00    +0.149 C 
BRANCH  14  17
ATOM     15  C   UNL     1      -0.941  -0.827  -2.936  0.00  0.00    +0.089 C 
ATOM     16  C   UNL     1      -0.355  -0.910  -1.550  0.00  0.00    +0.139 A 
ATOM     17  C   UNL     1      -1.028  -0.737  -0.399  0.00  0.00    +0.039 A 
ATOM     18  C   UNL     1      -0.115  -0.898   0.671  0.00  0.00    +0.118 A 
ATOM     19  N   UNL     1       1.063  -1.159   0.157  0.00  0.00    -0.078 NA
ATOM     20  O   UNL     1       0.926  -1.175  -1.252  0.00  0.00    -0.359 OA
BRANCH  18  21
ATOM     21  C   UNL     1      -0.433  -0.790   2.117  0.00  0.00    +0.004 A 
ATOM     22  C   UNL     1      -1.337   0.171   2.564  0.00  0.00    +0.010 A 
ATOM     23  C   UNL     1      -1.630   0.268   3.909  0.00  0.00    +0.001 A 
ATOM     24  C   UNL     1      -1.028  -0.588   4.813  0.00  0.00    +0.000 A 
ATOM     25  C   UNL     1      -0.129  -1.544   4.375  0.00  0.00    +0.001 A 
ATOM     26  C   UNL     1       0.167  -1.653   3.031  0.00  0.00    +0.010 A 
ENDBRANCH  18  21
ENDBRANCH  14  17
ENDBRANCH   1  14
BRANCH   1  27
ATOM     27  C   UNL     1      -3.568  -1.763  -2.140  0.00  0.00    +0.162 C 
BRANCH  27  28
ATOM     28  C   UNL     1      -4.995  -2.019  -1.729  0.00  0.00    +0.053 A 
ATOM     29  C   UNL     1      -5.407  -2.733  -0.662  0.00  0.00    +0.135 A 
ATOM     30  N   UNL     1      -6.745  -2.727  -0.640  0.00  0.00    -0.236 NA
ATOM     31  H   UNL     1      -6.148  -1.019  -3.167  0.00  0.00    +0.167 HD
ATOM     32  C   UNL     1      -7.191  -2.030  -1.662  0.00  0.00    +0.138 A 
ATOM     33  N   UNL     1      -6.119  -1.565  -2.366  0.00  0.00    -0.340 N 
BRANCH  32  34
ATOM     34  C   UNL     1      -8.613  -1.787  -1.988  0.00  0.00    +0.017 A 
ATOM     35  C   UNL     1      -8.955  -1.032  -3.111  0.00  0.00    +0.011 A 
ATOM     36  C   UNL     1     -10.283  -0.809  -3.411  0.00  0.00    +0.001 A 
ATOM     37  C   UNL     1     -11.275  -1.333  -2.601  0.00  0.00    +0.000 A 
ATOM     38  C   UNL     1     -10.943  -2.083  -1.487  0.00  0.00    +0.001 A 
ATOM     39  C   UNL     1      -9.619  -2.317  -1.179  0.00  0.00    +0.011 A 
ENDBRANCH  32  34
ENDBRANCH  27  28
ENDBRANCH   1  27
TORSDOF 7
