REMARK  Name = ZINC22753228
REMARK  6 active torsions:
REMARK  status: ('A' for Active; 'I' for Inactive)
REMARK    1  A    between atoms: C_7  and  C_11
REMARK    2  A    between atoms: C_11  and  C_12
REMARK    3  A    between atoms: N_14  and  N_15
REMARK    4  A    between atoms: C_16  and  C_18
REMARK    5  A    between atoms: C_20  and  C_30
REMARK    6  A    between atoms: N_21  and  C_23
REMARK                            x       y       z     vdW  Elec       q    Type
REMARK                         _______ _______ _______ _____ _____    ______ ____
ROOT
ATOM      1  N   UNL     1      -3.462   3.030   3.069  0.00  0.00    -0.229 N 
ATOM      2  C   UNL     1      -4.383   3.989   3.290  0.00  0.00    +0.280 C 
ATOM      3  O   UNL     1      -4.857   4.604   2.354  0.00  0.00    -0.267 OA
ATOM      4  H   UNL     1      -3.033   2.475   3.916  0.00  0.00    +0.173 HD
ENDROOT
BRANCH   2   5
ATOM      5  C   UNL     1      -4.817   4.294   4.668  0.00  0.00    +0.150 A 
ATOM      6  C   UNL     1      -5.763   5.269   5.050  0.00  0.00    +0.066 A 
ATOM      7  C   UNL     1      -5.841   5.186   6.416  0.00  0.00    +0.110 A 
ATOM      8  N   UNL     1      -4.966   4.207   6.801  0.00  0.00    -0.228 N 
ATOM      9  N   UNL     1      -4.387   3.708   5.769  0.00  0.00    -0.161 NA
BRANCH   8  10
ATOM     10  C   UNL     1      -4.737   3.809   8.124  0.00  0.00    +0.066 A 
ATOM     11  C   UNL     1      -3.439   3.598   8.572  0.00  0.00    +0.029 A 
ATOM     12  C   UNL     1      -3.216   3.211   9.878  0.00  0.00    +0.022 A 
ATOM     13  C   UNL     1      -4.284   3.023  10.738  0.00  0.00    +0.041 A 
ATOM     14  C   UNL     1      -5.578   3.227  10.293  0.00  0.00    +0.022 A 
ATOM     15  C   UNL     1      -5.807   3.620   8.989  0.00  0.00    +0.029 A 
ATOM     16 CL   UNL     1      -3.999   2.529  12.378  0.00  0.00    -0.084 Cl
ENDBRANCH   8  10
BRANCH   7  17
ATOM     17  C   UNL     1      -6.697   5.998   7.298  0.00  0.00    +0.153 A 
ATOM     18  C   UNL     1      -7.744   6.774   6.903  0.00  0.00    +0.051 A 
ATOM     19  C   UNL     1      -8.271   7.366   8.068  0.00  0.00    +0.042 A 
ATOM     20  C   UNL     1      -7.530   6.928   9.104  0.00  0.00    +0.196 A 
ATOM     21  O   UNL     1      -6.583   6.097   8.637  0.00  0.00    -0.461 OA
ENDBRANCH   7  17
ENDBRANCH   2   5
BRANCH   1  24
ATOM     22  C   UNL     1      -2.129   1.783   1.541  0.00  0.00    +0.233 C 
ATOM     23  O   UNL     1      -1.656   1.170   2.475  0.00  0.00    -0.274 OA
ATOM     24  N   UNL     1      -3.050   2.742   1.762  0.00  0.00    -0.234 N 
ATOM     25  H   UNL     1      -3.479   3.298   0.915  0.00  0.00    +0.173 HD
BRANCH  22  26
ATOM     26  C   UNL     1      -1.686   1.473   0.134  0.00  0.00    +0.134 C 
BRANCH  26  33
ATOM     27  C   UNL     1      -1.999  -3.204   0.227  0.00  0.00    +0.001 A 
ATOM     28  C   UNL     1      -0.759  -3.828   0.241  0.00  0.00    +0.002 A 
ATOM     29  C   UNL     1       0.401  -3.087   0.230  0.00  0.00    +0.026 A 
ATOM     30  C   UNL     1       0.333  -1.697   0.204  0.00  0.00    +0.047 A 
ATOM     31  C   UNL     1      -0.925  -1.069   0.189  0.00  0.00    +0.003 A 
ATOM     32  C   UNL     1      -2.089  -1.840   0.201  0.00  0.00    +0.010 A 
ATOM     33  C   UNL     1      -0.658   0.371   0.163  0.00  0.00    -0.014 A 
ATOM     34  C   UNL     1       0.675   0.523   0.163  0.00  0.00    +0.087 A 
ATOM     35  N   UNL     1       1.284  -0.702   0.187  0.00  0.00    -0.360 N 
ATOM     36  H   UNL     1       2.353  -0.962   0.194  0.00  0.00    +0.165 HD
ENDBRANCH  26  33
ENDBRANCH  22  26
ENDBRANCH   1  24
TORSDOF 6
