REMARK  Name = ZINC04283054
REMARK  8 active torsions:
REMARK  status: ('A' for Active; 'I' for Inactive)
REMARK    1  A    between atoms: C_4  and  N_16
REMARK    2  A    between atoms: C_5  and  C_7
REMARK    3  A    between atoms: N_9  and  C_10
REMARK    4  A    between atoms: C_17  and  C_19
REMARK    5  A    between atoms: N_21  and  N_22
REMARK    6  A    between atoms: C_23  and  C_24
REMARK    7  A    between atoms: C_27  and  O_31
REMARK    8  A    between atoms: C_29  and  O_30
REMARK                            x       y       z     vdW  Elec       q    Type
REMARK                         _______ _______ _______ _____ _____    ______ ____
ROOT
ATOM      1  N   UNL     1      -3.865   7.530   0.080  0.00  0.00    -0.277 N 
ATOM      2  C   UNL     1      -3.771   6.322  -0.511  0.00  0.00    +0.305 C 
ATOM      3  O   UNL     1      -4.741   5.834  -1.053  0.00  0.00    -0.265 OA
ATOM      4  H   UNL     1      -3.108   7.891   0.568  0.00  0.00    +0.155 HD
ENDROOT
BRANCH   1   8
ATOM      5  C   UNL     1      -7.409   9.709  -0.188  0.00  0.00    +0.001 A 
ATOM      6  C   UNL     1      -7.444   8.327  -0.090  0.00  0.00    +0.002 A 
ATOM      7  C   UNL     1      -6.272   7.603  -0.007  0.00  0.00    +0.024 A 
ATOM      8  C   UNL     1      -5.047   8.258  -0.009  0.00  0.00    +0.046 A 
ATOM      9  C   UNL     1      -5.008   9.657  -0.108  0.00  0.00    +0.058 A 
ATOM     10  C   UNL     1      -6.202  10.376  -0.197  0.00  0.00    +0.015 A 
BRANCH   9  11
ATOM     11  C   UNL     1      -3.714  10.364  -0.117  0.00  0.00    +0.246 C 
ATOM     12  O   UNL     1      -2.675   9.732  -0.139  0.00  0.00    -0.270 OA
ATOM     13  N   UNL     1      -3.682  11.711  -0.101  0.00  0.00    -0.308 N 
ATOM     14  H   UNL     1      -4.510  12.216  -0.084  0.00  0.00    +0.149 HD
BRANCH  13  15
ATOM     15  C   UNL     1      -2.396  12.414  -0.110  0.00  0.00    +0.073 C 
ATOM     16  C   UNL     1      -1.869  12.531   1.321  0.00  0.00    +0.022 C 
ATOM     17  C   UNL     1      -0.526  13.264   1.312  0.00  0.00    +0.002 C 
ATOM     18  C   UNL     1      -0.714  14.663   0.722  0.00  0.00    +0.000 C 
ATOM     19  C   UNL     1      -1.241  14.547  -0.710  0.00  0.00    +0.002 C 
ATOM     20  C   UNL     1      -2.584  13.813  -0.700  0.00  0.00    +0.022 C 
ENDBRANCH  13  15
ENDBRANCH   9  11
ENDBRANCH   1   8
BRANCH   2  21
ATOM     21  C   UNL     1      -2.475   5.586  -0.500  0.00  0.00    +0.318 C 
ATOM     22  O   UNL     1      -1.503   6.074   0.042  0.00  0.00    -0.263 OA
ATOM     23  N   UNL     1      -2.380   4.378  -1.091  0.00  0.00    -0.199 N 
ATOM     24  H   UNL     1      -3.156   3.989  -1.524  0.00  0.00    +0.178 HD
BRANCH  23  25
ATOM     25  N   UNL     1      -1.162   3.687  -1.081  0.00  0.00    -0.187 NA
ATOM     26  C   UNL     1      -1.071   2.522  -1.651  0.00  0.00    +0.142 C 
BRANCH  26  27
ATOM     27  C   UNL     1       0.209   1.795  -1.640  0.00  0.00    +0.036 A 
ATOM     28  C   UNL     1       0.310   0.542  -2.252  0.00  0.00    +0.016 A 
ATOM     29  C   UNL     1       1.510  -0.132  -2.245  0.00  0.00    +0.046 A 
ATOM     30  C   UNL     1       2.624   0.429  -1.630  0.00  0.00    +0.120 A 
ATOM     31  C   UNL     1       2.535   1.672  -1.020  0.00  0.00    +0.091 A 
ATOM     32  C   UNL     1       1.334   2.359  -1.020  0.00  0.00    +0.129 A 
BRANCH  32  33
ATOM     33  O   UNL     1       1.245   3.575  -0.423  0.00  0.00    -0.506 OA
ATOM     34  H   UNL     1       0.995   3.538   0.510  0.00  0.00    +0.292 HD
ENDBRANCH  32  33
BRANCH  30  35
ATOM     35  O   UNL     1       3.805  -0.242  -1.626  0.00  0.00    -0.507 OA
ATOM     36  H   UNL     1       4.370  -0.047  -2.386  0.00  0.00    +0.292 HD
ENDBRANCH  30  35
ENDBRANCH  26  27
ENDBRANCH  23  25
ENDBRANCH   2  21
TORSDOF 8
