REMARK  Name = ZINC14477700
REMARK  7 active torsions:
REMARK  status: ('A' for Active; 'I' for Inactive)
REMARK    1  A    between atoms: C_1  and  C_2
REMARK    2  A    between atoms: C_2  and  C_3
REMARK    3  A    between atoms: C_2  and  C_4
REMARK    4  A    between atoms: C_4  and  C_5
REMARK    5  A    between atoms: C_5  and  O_6
REMARK    6  A    between atoms: O_6  and  C_7
REMARK    7  A    between atoms: C_20  and  C_23
REMARK                            x       y       z     vdW  Elec       q    Type
REMARK                         _______ _______ _______ _____ _____    ______ ____
ROOT
ATOM      1  C   UNL     1      -0.385  -2.418   0.188  0.00  0.00    +0.121 A 
ATOM      2  C   UNL     1       0.490  -3.495   0.187  0.00  0.00    +0.047 A 
ATOM      3  C   UNL     1      -0.010  -4.781   0.141  0.00  0.00    +0.027 A 
ATOM      4  C   UNL     1      -1.381  -4.994   0.095  0.00  0.00    +0.032 A 
ATOM      5  C   UNL     1      -2.261  -3.923   0.094  0.00  0.00    -0.016 A 
ATOM      6  C   UNL     1      -1.752  -2.633   0.147  0.00  0.00    +0.051 A 
ATOM      7  C   UNL     1      -3.745  -4.107   0.044  0.00  0.00    +0.049 C 
ATOM      8  C   UNL     1      -4.380  -3.846   1.389  0.00  0.00    -0.023 C 
ATOM      9  C   UNL     1      -5.387  -4.643   1.588  0.00  0.00    -0.030 C 
ATOM     10  C   UNL     1      -5.560  -5.578   0.407  0.00  0.00    +0.033 C 
ATOM     11  C   UNL     1      -4.162  -5.554  -0.279  0.00  0.00    +0.029 C 
ATOM     12  C   UNL     1      -3.254  -6.538   0.464  0.00  0.00    +0.106 C 
ATOM     13  N   UNL     1      -1.871  -6.307   0.053  0.00  0.00    -0.336 N 
ATOM     14  H   UNL     1      -1.301  -7.041  -0.227  0.00  0.00    +0.147 HD
ENDROOT
BRANCH  12  15
ATOM     15  C   UNL     1      -3.386  -6.324   1.950  0.00  0.00    -0.009 A 
ATOM     16  C   UNL     1      -2.619  -5.363   2.581  0.00  0.00    +0.008 A 
ATOM     17  C   UNL     1      -2.740  -5.165   3.943  0.00  0.00    +0.020 A 
ATOM     18  C   UNL     1      -3.630  -5.930   4.677  0.00  0.00    +0.042 A 
ATOM     19  C   UNL     1      -4.398  -6.892   4.046  0.00  0.00    +0.040 A 
ATOM     20  C   UNL     1      -4.280  -7.085   2.682  0.00  0.00    +0.047 A 
ATOM     21 CL   UNL     1      -5.248  -8.288   1.888  0.00  0.00    -0.083 Cl
ATOM     22 CL   UNL     1      -3.782  -5.683   6.389  0.00  0.00    -0.083 Cl
ENDBRANCH  12  15
BRANCH   1  23
ATOM     23  O   UNL     1       0.101  -1.149   0.234  0.00  0.00    -0.492 OA
BRANCH  23  24
ATOM     24  C   UNL     1       1.521  -1.000   0.281  0.00  0.00    +0.229 C 
BRANCH  24  25
ATOM     25  C   UNL     1       1.876   0.488   0.329  0.00  0.00    +0.044 C 
BRANCH  25  27
ATOM     26  C   UNL     1       3.756   2.133   0.301  0.00  0.00    +0.007 C 
ATOM     27  C   UNL     1       3.397   0.648   0.379  0.00  0.00    -0.014 C 
ATOM     28  C   UNL     1       3.929   0.062   1.689  0.00  0.00    +0.007 C 
ENDBRANCH  25  27
ENDBRANCH  24  25
ENDBRANCH  23  24
ENDBRANCH   1  23
TORSDOF 5
