REMARK  Name = ZINC15144248
REMARK  9 active torsions:
REMARK  status: ('A' for Active; 'I' for Inactive)
REMARK    1  A    between atoms: C_1  and  C_2
REMARK    2  A    between atoms: C_2  and  C_4
REMARK    3  A    between atoms: C_2  and  N_55
REMARK    4  A    between atoms: N_6  and  C_7
REMARK    5  A    between atoms: C_8  and  C_17
REMARK    6  A    between atoms: C_19  and  N_55
REMARK    7  A    between atoms: C_20  and  C_21
REMARK    8  A    between atoms: C_20  and  N_55
REMARK    9  A    between atoms: N_23  and  C_24
REMARK                            x       y       z     vdW  Elec       q    Type
REMARK                         _______ _______ _______ _____ _____    ______ ____
ROOT
ATOM      1  C   UNL     1       1.238   1.380   2.692  0.00  0.00    -0.004 C 
ATOM      2  C   UNL     1      -0.181   0.881   2.416  0.00  0.00    +0.017 C 
ENDROOT
BRANCH   2   3
ATOM      3  C   UNL     1      -1.064   1.200   3.596  0.00  0.00    +0.204 C 
ATOM      4  O   UNL     1      -2.037   1.910   3.451  0.00  0.00    -0.277 OA
ATOM      5  N   UNL     1      -0.772   0.696   4.811  0.00  0.00    -0.280 N 
ATOM      6  H   UNL     1       0.006   0.128   4.927  0.00  0.00    +0.155 HD
BRANCH   5   7
ATOM      7  C   UNL     1      -1.585   0.989   5.897  0.00  0.00    +0.090 A 
ATOM      8  C   UNL     1      -1.451   0.570   7.211  0.00  0.00    +0.084 A 
ATOM      9  C   UNL     1      -2.446   1.023   8.172  0.00  0.00    -0.018 A 
ATOM     10  C   UNL     1      -3.414   1.813   7.660  0.00  0.00    -0.004 A 
ATOM     11  S   UNL     1      -3.009   1.974   5.942  0.00  0.00    -0.077 S 
ATOM     12  C   UNL     1      -4.577   2.421   8.380  0.00  0.00    +0.043 C 
ATOM     13  C   UNL     1      -4.077   3.105   9.659  0.00  0.00    +0.005 C 
ATOM     14  C   UNL     1      -4.096   2.084  10.792  0.00  0.00    +0.001 C 
ATOM     15  C   UNL     1      -3.789   0.690  10.249  0.00  0.00    +0.005 C 
ATOM     16  C   UNL     1      -2.388   0.648   9.648  0.00  0.00    +0.037 C 
BRANCH   8  17
ATOM     17  C   UNL     1      -0.370  -0.281   7.610  0.00  0.00    +0.102 C 
ATOM     18  N   UNL     1       0.487  -0.955   7.926  0.00  0.00    -0.191 NA
ENDBRANCH   8  17
ENDBRANCH   5   7
ENDBRANCH   2   3
BRANCH   2  20
ATOM     19  C   UNL     1      -0.615   3.006   1.339  0.00  0.00    -0.094 C 
ATOM     20  N   UNL     1      -0.737   1.538   1.214  0.00  0.00    +0.391 N 
ATOM     21  H   UNL     1      -1.730   1.292   1.129  0.00  0.00    -0.080 HD
BRANCH  20  22
ATOM     22  C   UNL     1      -0.021   1.073   0.008  0.00  0.00    +0.020 C 
BRANCH  22  23
ATOM     23  C   UNL     1      -0.743   1.582  -1.213  0.00  0.00    +0.201 C 
ATOM     24  O   UNL     1      -1.734   2.271  -1.088  0.00  0.00    -0.278 OA
ATOM     25  N   UNL     1      -0.288   1.272  -2.443  0.00  0.00    -0.286 N 
ATOM     26  H   UNL     1       0.547   0.790  -2.544  0.00  0.00    +0.155 HD
BRANCH  25  27
ATOM     27  C   UNL     1      -1.022   1.647  -3.575  0.00  0.00    +0.047 A 
ATOM     28  C   UNL     1      -2.392   1.853  -3.480  0.00  0.00    +0.024 A 
ATOM     29  C   UNL     1      -3.112   2.225  -4.598  0.00  0.00    +0.002 A 
ATOM     30  C   UNL     1      -2.472   2.385  -5.813  0.00  0.00    +0.001 A 
ATOM     31  C   UNL     1      -1.109   2.176  -5.913  0.00  0.00    +0.017 A 
ATOM     32  C   UNL     1      -0.382   1.807  -4.798  0.00  0.00    +0.039 A 
ATOM     33 BR   UNL     1       1.482   1.520  -4.935  0.00  0.00    -0.048 Br
ENDBRANCH  25  27
ENDBRANCH  22  23
ENDBRANCH  20  22
ENDBRANCH   2  20
TORSDOF 7
