REMARK  Name = ZINC08758020
REMARK  6 active torsions:
REMARK  status: ('A' for Active; 'I' for Inactive)
REMARK    1  A    between atoms: C_4  and  C_7
REMARK    2  A    between atoms: C_7  and  C_8
REMARK    3  A    between atoms: C_7  and  N_64
REMARK    4  A    between atoms: C_25  and  C_27
REMARK    5  A    between atoms: C_27  and  S_28
REMARK    6  A    between atoms: S_28  and  C_29
REMARK                            x       y       z     vdW  Elec       q    Type
REMARK                         _______ _______ _______ _____ _____    ______ ____
ROOT
ATOM      1  C   UNL     1      -3.671  -0.620   0.114  0.00  0.00    -0.058 C 
ATOM      2  C   UNL     1      -2.311   0.080   0.193  0.00  0.00    +0.089 C 
ATOM      3  N   UNL     1      -1.272  -0.909   0.510  0.00  0.00    -0.305 N 
ATOM      4  C   UNL     1      -1.220  -1.962  -0.514  0.00  0.00    +0.089 C 
ATOM      5  C   UNL     1      -2.579  -2.661  -0.593  0.00  0.00    -0.058 C 
ATOM      6  C   UNL     1      -0.051  -0.308   0.657  0.00  0.00    +0.198 A 
ATOM      7  N   UNL     1       1.054  -1.077   0.853  0.00  0.00    -0.295 N 
ATOM      8  H   UNL     1       0.974  -2.043   0.887  0.00  0.00    +0.172 HD
ATOM      9  C   UNL     1       2.261  -0.491   1.000  0.00  0.00    +0.253 A 
ATOM     10  O   UNL     1       3.263  -1.165   1.176  0.00  0.00    -0.268 OA
ATOM     11  C   UNL     1       2.343   0.912   0.945  0.00  0.00    +0.094 A 
ATOM     12  C   UNL     1       1.201   1.632   0.747  0.00  0.00    +0.060 A 
ATOM     13  N   UNL     1       0.034   1.007   0.608  0.00  0.00    -0.220 NA
ATOM     14  N   UNL     1      -3.611  -1.660  -0.934  0.00  0.00    +0.389 N 
ATOM     15  H   UNL     1      -3.366  -1.219  -1.828  0.00  0.00    -0.080 HD
ENDROOT
BRANCH  14  16
ATOM     16  C   UNL     1      -4.929  -2.317  -1.069  0.00  0.00    -0.007 C 
BRANCH  16  20
ATOM     17  C   UNL     1      -7.857   0.630  -2.060  0.00  0.00    +0.000 A 
ATOM     18  C   UNL     1      -8.144  -0.340  -1.117  0.00  0.00    +0.000 A 
ATOM     19  C   UNL     1      -7.197  -1.294  -0.797  0.00  0.00    +0.002 A 
ATOM     20  C   UNL     1      -5.962  -1.278  -1.418  0.00  0.00    -0.057 A 
ATOM     21  C   UNL     1      -5.673  -0.305  -2.357  0.00  0.00    +0.002 A 
ATOM     22  C   UNL     1      -6.623   0.646  -2.681  0.00  0.00    +0.000 A 
ENDBRANCH  16  20
BRANCH  16  23
ATOM     23  C   UNL     1      -4.854  -3.342  -2.171  0.00  0.00    -0.057 A 
ATOM     24  C   UNL     1      -4.216  -3.034  -3.358  0.00  0.00    +0.002 A 
ATOM     25  C   UNL     1      -4.144  -3.976  -4.368  0.00  0.00    +0.000 A 
ATOM     26  C   UNL     1      -4.717  -5.222  -4.194  0.00  0.00    +0.000 A 
ATOM     27  C   UNL     1      -5.359  -5.528  -3.008  0.00  0.00    +0.000 A 
ATOM     28  C   UNL     1      -5.427  -4.588  -1.997  0.00  0.00    +0.002 A 
ENDBRANCH  16  23
ENDBRANCH  14  16
BRANCH  12  29
ATOM     29  C   UNL     1       1.261   3.136   0.684  0.00  0.00    +0.132 C 
BRANCH  29  30
ATOM     30  S   UNL     1       1.083   3.676  -1.035  0.00  0.00    -0.093 S 
BRANCH  30  31
ATOM     31  C   UNL     1       1.187   5.422  -0.819  0.00  0.00    +0.136 A 
ATOM     32  N   UNL     1       1.123   6.370  -1.728  0.00  0.00    -0.233 NA
ATOM     33  C   UNL     1       1.218   7.681  -1.415  0.00  0.00    +0.079 A 
ATOM     34  C   UNL     1       1.164   8.792  -2.288  0.00  0.00    +0.029 A 
ATOM     35  C   UNL     1       1.277  10.069  -1.803  0.00  0.00    +0.002 A 
ATOM     36  C   UNL     1       1.447  10.318  -0.449  0.00  0.00    +0.001 A 
ATOM     37  C   UNL     1       1.504   9.254   0.433  0.00  0.00    +0.017 A 
ATOM     38  C   UNL     1       1.391   7.972  -0.043  0.00  0.00    +0.040 A 
ATOM     39  S   UNL     1       1.398   6.354   0.691  0.00  0.00    -0.061 S 
ENDBRANCH  30  31
ENDBRANCH  29  30
ENDBRANCH  12  29
TORSDOF 6
