REMARK  Name = ZINC39656108
REMARK  6 active torsions:
REMARK  status: ('A' for Active; 'I' for Inactive)
REMARK    1  A    between atoms: C_1  and  C_2
REMARK    2  A    between atoms: C_8  and  C_11
REMARK    3  A    between atoms: C_11  and  C_12
REMARK    4  A    between atoms: C_12  and  N_13
REMARK    5  A    between atoms: C_14  and  C_16
REMARK    6  A    between atoms: C_27  and  C_29
REMARK                            x       y       z     vdW  Elec       q    Type
REMARK                         _______ _______ _______ _____ _____    ______ ____
ROOT
ATOM      1  C   UNL     1       4.694  -0.090  -7.526  0.00  0.00    +0.100 C 
ATOM      2  C   UNL     1       5.691   0.322  -6.420  0.00  0.00    +0.121 C 
ATOM      3  N   UNL     1       6.129  -0.958  -5.816  0.00  0.00    -0.297 N 
ATOM      4  C   UNL     1       6.266  -1.882  -6.967  0.00  0.00    +0.115 C 
ATOM      5  C   UNL     1       5.077  -1.536  -7.885  0.00  0.00    -0.004 C 
ATOM      6  C   UNL     1       5.496  -1.623  -9.349  0.00  0.00    -0.010 C 
ATOM      7  C   UNL     1       5.816  -3.080  -9.697  0.00  0.00    -0.082 C 
ATOM      8  N   UNL     1       4.633  -3.914  -9.456  0.00  0.00    +0.379 N 
ATOM      9  C   UNL     1       4.292  -3.898  -8.028  0.00  0.00    -0.082 C 
ATOM     10  C   UNL     1       3.907  -2.476  -7.609  0.00  0.00    -0.010 C 
ATOM     11  C   UNL     1       6.354  -1.222  -4.513  0.00  0.00    +0.260 C 
ATOM     12  O   UNL     1       6.104  -0.384  -3.673  0.00  0.00    -0.271 OA
ATOM     13  H   UNL     1       3.856  -3.556  -9.990  0.00  0.00    -0.086 HD
ATOM     14  H   UNL     1       4.827  -4.862  -9.743  0.00  0.00    -0.086 HD
ENDROOT
BRANCH  11  15
ATOM     15  C   UNL     1       6.915  -2.558  -4.101  0.00  0.00    +0.296 C 
ATOM     16  C   UNL     1       8.371  -2.676  -4.573  0.00  0.00    +0.283 C 
ATOM     17  O   UNL     1       8.876  -3.948  -4.154  0.00  0.00    -0.484 OA
ATOM     18  C   UNL     1       8.624  -4.313  -2.867  0.00  0.00    +0.162 A 
ATOM     19  C   UNL     1       9.369  -5.330  -2.289  0.00  0.00    +0.049 A 
ATOM     20  C   UNL     1       9.122  -5.714  -0.985  0.00  0.00    +0.004 A 
ATOM     21  C   UNL     1       8.133  -5.085  -0.252  0.00  0.00    +0.004 A 
ATOM     22  C   UNL     1       7.388  -4.069  -0.821  0.00  0.00    +0.049 A 
ATOM     23  C   UNL     1       7.631  -3.678  -2.130  0.00  0.00    +0.163 A 
ATOM     24  O   UNL     1       6.895  -2.671  -2.674  0.00  0.00    -0.473 OA
ENDBRANCH  11  15
BRANCH   1  26
ATOM     25  N   UNL     1       2.264   0.244  -7.844  0.00  0.00    -0.315 N 
ATOM     26  C   UNL     1       3.281  -0.035  -7.005  0.00  0.00    +0.218 C 
ATOM     27  O   UNL     1       3.059  -0.243  -5.831  0.00  0.00    -0.275 OA
ATOM     28  H   UNL     1       2.441   0.410  -8.783  0.00  0.00    +0.149 HD
BRANCH  25  29
ATOM     29  C   UNL     1       0.890   0.297  -7.338  0.00  0.00    +0.109 C 
BRANCH  29  30
ATOM     30  C   UNL     1      -0.065   0.630  -8.486  0.00  0.00    +0.056 C 
BRANCH  30  38
ATOM     31  C   UNL     1      -2.166   5.409  -6.127  0.00  0.00    +0.044 C 
ATOM     32  C   UNL     1      -2.603   4.003  -6.446  0.00  0.00    -0.050 A 
ATOM     33  C   UNL     1      -3.890   3.592  -6.127  0.00  0.00    +0.005 A 
ATOM     34  C   UNL     1      -4.309   2.311  -6.409  0.00  0.00    +0.026 A 
ATOM     35  C   UNL     1      -3.437   1.417  -7.021  0.00  0.00    +0.047 A 
ATOM     36  N   UNL     1      -3.550   0.105  -7.423  0.00  0.00    -0.360 N 
ATOM     37  C   UNL     1      -2.374  -0.314  -7.982  0.00  0.00    +0.087 A 
ATOM     38  C   UNL     1      -1.478   0.685  -7.965  0.00  0.00    -0.021 A 
ATOM     39  C   UNL     1      -2.133   1.838  -7.344  0.00  0.00    +0.003 A 
ATOM     40  C   UNL     1      -1.731   3.143  -7.053  0.00  0.00    +0.013 A 
ATOM     41  H   UNL     1      -4.346  -0.441  -7.323  0.00  0.00    +0.165 HD
ENDBRANCH  30  38
ENDBRANCH  29  30
ENDBRANCH  25  29
ENDBRANCH   1  26
TORSDOF 5
