REMARK  Name = ZINC39639348
REMARK  9 active torsions:
REMARK  status: ('A' for Active; 'I' for Inactive)
REMARK    1  A    between atoms: C_1  and  C_2
REMARK    2  A    between atoms: C_2  and  C_3
REMARK    3  A    between atoms: C_3  and  C_5
REMARK    4  A    between atoms: C_3  and  C_11
REMARK    5  A    between atoms: C_15  and  C_24
REMARK    6  A    between atoms: N_26  and  C_27
REMARK    7  A    between atoms: C_27  and  C_29
REMARK    8  A    between atoms: C_27  and  C_30
REMARK    9  A    between atoms: C_33  and  C_36
REMARK                            x       y       z     vdW  Elec       q    Type
REMARK                         _______ _______ _______ _____ _____    ______ ____
ROOT
ATOM      1  C   UNL     1       2.253  -0.013  -1.206  0.00  0.00    +0.223 C 
ATOM      2  O   UNL     1       3.205  -0.745  -1.376  0.00  0.00    -0.275 OA
ATOM      3  N   UNL     1       2.441   1.313  -1.060  0.00  0.00    -0.300 N 
ATOM      4  C   UNL     1       1.407   2.369  -0.936  0.00  0.00    +0.121 C 
ATOM      5  C   UNL     1       1.972   3.344   0.121  0.00  0.00    +0.100 C 
ATOM      6  C   UNL     1       3.494   3.130   0.081  0.00  0.00    -0.004 C 
ATOM      7  C   UNL     1       3.727   2.046  -0.982  0.00  0.00    +0.115 C 
ATOM      8  C   UNL     1       3.996   2.646   1.438  0.00  0.00    -0.010 C 
ATOM      9  C   UNL     1       5.519   2.494   1.389  0.00  0.00    -0.082 C 
ATOM     10  N   UNL     1       6.130   3.785   1.051  0.00  0.00    +0.379 N 
ATOM     11  C   UNL     1       5.714   4.199  -0.295  0.00  0.00    -0.082 C 
ATOM     12  C   UNL     1       4.200   4.422  -0.317  0.00  0.00    -0.010 C 
ATOM     13  H   UNL     1       5.837   4.481   1.721  0.00  0.00    -0.086 HD
ATOM     14  H   UNL     1       7.135   3.698   1.079  0.00  0.00    -0.086 HD
ENDROOT
BRANCH   5  15
ATOM     15  C   UNL     1       1.428   3.010   1.487  0.00  0.00    +0.219 C 
ATOM     16  O   UNL     1       1.157   1.861   1.767  0.00  0.00    -0.275 OA
ATOM     17  N   UNL     1       1.244   3.987   2.397  0.00  0.00    -0.308 N 
ATOM     18  H   UNL     1       1.461   4.905   2.173  0.00  0.00    +0.149 HD
BRANCH  17  19
ATOM     19  C   UNL     1       0.716   3.662   3.724  0.00  0.00    +0.100 C 
ATOM     20  C   UNL     1       1.865   3.229   4.638  0.00  0.00    +0.033 C 
BRANCH  19  21
ATOM     21  C   UNL     1       0.041   4.876   4.307  0.00  0.00    -0.027 A 
ATOM     22  C   UNL     1       0.599   6.129   4.132  0.00  0.00    +0.006 A 
ATOM     23  C   UNL     1      -0.020   7.242   4.667  0.00  0.00    +0.004 A 
ATOM     24  C   UNL     1      -1.198   7.104   5.377  0.00  0.00    -0.050 A 
ATOM     25  C   UNL     1      -1.758   5.852   5.551  0.00  0.00    +0.004 A 
ATOM     26  C   UNL     1      -1.140   4.739   5.012  0.00  0.00    +0.006 A 
ATOM     27  C   UNL     1      -1.873   8.319   5.961  0.00  0.00    +0.044 C 
ENDBRANCH  19  21
ENDBRANCH  17  19
ENDBRANCH   5  15
BRANCH   1  28
ATOM     28  C   UNL     1       0.860  -0.587  -1.159  0.00  0.00    +0.105 C 
BRANCH  28  29
ATOM     29  C   UNL     1       0.304  -0.672  -2.557  0.00  0.00    -0.036 A 
ATOM     30  C   UNL     1       0.945  -1.442  -3.510  0.00  0.00    +0.004 A 
ATOM     31  C   UNL     1       0.435  -1.520  -4.792  0.00  0.00    +0.000 A 
ATOM     32  C   UNL     1      -0.716  -0.829  -5.121  0.00  0.00    +0.000 A 
ATOM     33  C   UNL     1      -1.358  -0.060  -4.168  0.00  0.00    +0.000 A 
ATOM     34  C   UNL     1      -0.850   0.014  -2.884  0.00  0.00    +0.004 A 
ENDBRANCH  28  29
BRANCH  28  36
ATOM     35  C   UNL     1       1.336  -1.884   0.923  0.00  0.00    +0.005 C 
ATOM     36  C   UNL     1       0.906  -1.986  -0.542  0.00  0.00    +0.014 C 
ENDBRANCH  28  36
ENDBRANCH   1  28
TORSDOF 6
