REMARK  Name = ZINC36390209
REMARK  9 active torsions:
REMARK  status: ('A' for Active; 'I' for Inactive)
REMARK    1  A    between atoms: C_1  and  C_2
REMARK    2  A    between atoms: C_5  and  C_30
REMARK    3  A    between atoms: N_8  and  C_10
REMARK    4  A    between atoms: C_10  and  C_11
REMARK    5  A    between atoms: N_13  and  N_14
REMARK    6  A    between atoms: C_17  and  C_21
REMARK    7  A    between atoms: C_17  and  C_22
REMARK    8  A    between atoms: C_22  and  C_23
REMARK    9  A    between atoms: C_23  and  C_24
REMARK                            x       y       z     vdW  Elec       q    Type
REMARK                         _______ _______ _______ _____ _____    ______ ____
ROOT
ATOM      1  N   UNL     1       1.994   0.560   6.000  0.00  0.00    -0.137 N 
ATOM      2  C   UNL     1       2.515   1.595   6.689  0.00  0.00    +0.263 C 
ATOM      3  O   UNL     1       3.564   2.163   6.475  0.00  0.00    -0.271 OA
ATOM      4  C   UNL     1       1.516   1.900   7.787  0.00  0.00    +0.112 C 
ATOM      5  N   UNL     1       0.447   0.910   7.569  0.00  0.00    -0.284 N 
ATOM      6  C   UNL     1       0.814   0.177   6.502  0.00  0.00    +0.326 C 
ATOM      7  O   UNL     1       0.150  -0.733   6.046  0.00  0.00    -0.251 OA
ATOM      8  C   UNL     1       2.154   1.709   9.165  0.00  0.00    +0.041 C 
ATOM      9  H   UNL     1      -0.364   0.808   8.091  0.00  0.00    +0.151 HD
ENDROOT
BRANCH   1  12
ATOM     10  C   UNL     1       2.146   0.211   3.650  0.00  0.00    +0.213 C 
ATOM     11  O   UNL     1       1.198   0.950   3.493  0.00  0.00    -0.276 OA
ATOM     12  N   UNL     1       2.609  -0.036   4.892  0.00  0.00    -0.225 N 
ATOM     13  H   UNL     1       3.368  -0.627   5.018  0.00  0.00    +0.173 HD
BRANCH  10  14
ATOM     14  C   UNL     1       2.808  -0.431   2.458  0.00  0.00    +0.020 C 
BRANCH  14  20
ATOM     15  C   UNL     1      -0.019   1.526   0.010  0.00  0.00    +0.005 C 
ATOM     16  C   UNL     1       0.002  -0.004   0.002  0.00  0.00    -0.031 C 
ATOM     17  C   UNL     1       0.721  -0.499  -1.257  0.00  0.00    +0.003 C 
ATOM     18  C   UNL     1       2.177  -0.027  -1.220  0.00  0.00    -0.031 C 
ATOM     19  C   UNL     1       2.839  -0.534   0.063  0.00  0.00    -0.075 C 
ATOM     20  N   UNL     1       2.123  -0.005   1.230  0.00  0.00    +0.386 N 
ATOM     21  C   UNL     1       0.744  -0.512   1.240  0.00  0.00    -0.075 C 
ATOM     22  C   UNL     1       2.924  -0.581  -2.434  0.00  0.00    +0.005 C 
ATOM     23  H   UNL     1       2.109   1.003   1.187  0.00  0.00    -0.081 HD
ENDBRANCH  14  20
ENDBRANCH  10  14
ENDBRANCH   1  12
BRANCH   4  24
ATOM     24  C   UNL     1       0.970   3.322   7.638  0.00  0.00    +0.040 C 
BRANCH  24  25
ATOM     25  C   UNL     1      -0.034   3.603   8.758  0.00  0.00    +0.038 C 
BRANCH  25  26
ATOM     26  C   UNL     1      -0.572   5.003   8.611  0.00  0.00    -0.047 A 
ATOM     27  C   UNL     1       0.071   6.059   9.230  0.00  0.00    +0.003 A 
ATOM     28  C   UNL     1      -0.421   7.343   9.096  0.00  0.00    +0.000 A 
ATOM     29  C   UNL     1      -1.557   7.572   8.341  0.00  0.00    +0.000 A 
ATOM     30  C   UNL     1      -2.199   6.517   7.721  0.00  0.00    +0.000 A 
ATOM     31  C   UNL     1      -1.704   5.233   7.852  0.00  0.00    +0.003 A 
ENDBRANCH  25  26
ENDBRANCH  24  25
ENDBRANCH   4  24
TORSDOF 6
