REMARK  Name = ZINC35729741
REMARK  10 active torsions:
REMARK  status: ('A' for Active; 'I' for Inactive)
REMARK    1  A    between atoms: C_1  and  C_2
REMARK    2  A    between atoms: C_3  and  C_29
REMARK    3  A    between atoms: C_4  and  C_11
REMARK    4  A    between atoms: N_9  and  C_10
REMARK    5  A    between atoms: C_14  and  N_17
REMARK    6  A    between atoms: N_20  and  C_21
REMARK    7  A    between atoms: C_29  and  O_31
REMARK    8  A    between atoms: O_31  and  C_32
REMARK    9  A    between atoms: C_32  and  C_33
REMARK   10  A    between atoms: C_32  and  C_34
REMARK                            x       y       z     vdW  Elec       q    Type
REMARK                         _______ _______ _______ _____ _____    ______ ____
ROOT
ATOM      1  C   UNL     1      -2.193  -3.655  -2.055  0.00  0.00    -0.022 A 
ATOM      2  C   UNL     1      -1.975  -3.635  -3.420  0.00  0.00    +0.007 A 
ATOM      3  C   UNL     1      -3.042  -3.723  -4.293  0.00  0.00    +0.024 A 
ATOM      4  C   UNL     1      -4.335  -3.832  -3.798  0.00  0.00    +0.035 A 
ATOM      5  C   UNL     1      -4.550  -3.852  -2.426  0.00  0.00    +0.024 A 
ATOM      6  C   UNL     1      -3.479  -3.769  -1.559  0.00  0.00    +0.007 A 
ENDROOT
BRANCH   1  10
ATOM      7  C   UNL     1       1.073  -0.329  -1.236  0.00  0.00    +0.061 C 
ATOM      8  C   UNL     1       0.637  -1.768  -1.329  0.00  0.00    +0.021 C 
ATOM      9  C   UNL     1      -0.630  -2.101  -0.998  0.00  0.00    +0.078 C 
ATOM     10  C   UNL     1      -1.026  -3.560  -1.106  0.00  0.00    +0.141 C 
ATOM     11  N   UNL     1       0.010  -4.500  -1.564  0.00  0.00    -0.315 N 
ATOM     12  C   UNL     1       1.232  -4.015  -1.857  0.00  0.00    +0.137 C 
ATOM     13  S   UNL     1       2.447  -5.097  -2.392  0.00  0.00    -0.018 S 
ATOM     14  N   UNL     1       1.527  -2.713  -1.750  0.00  0.00    -0.289 N 
ATOM     15  C   UNL     1       2.883  -2.280  -2.097  0.00  0.00    +0.137 C 
ATOM     16  H   UNL     1      -0.183  -5.447  -1.653  0.00  0.00    +0.149 HD
BRANCH   9  17
ATOM     17  C   UNL     1      -1.554  -1.122  -0.567  0.00  0.00    +0.339 C 
ATOM     18  O   UNL     1      -1.214   0.043  -0.488  0.00  0.00    -0.245 OA
BRANCH  17  19
ATOM     19  O   UNL     1      -2.814  -1.480  -0.243  0.00  0.00    -0.459 OA
BRANCH  19  20
ATOM     20  C   UNL     1      -3.695  -0.439   0.185  0.00  0.00    +0.171 C 
ATOM     21  C   UNL     1      -5.132  -0.797  -0.199  0.00  0.00    +0.052 C 
ATOM     22  C   UNL     1      -3.597  -0.281   1.704  0.00  0.00    +0.052 C 
ENDBRANCH  19  20
ENDBRANCH  17  19
ENDBRANCH   9  17
ENDBRANCH   1  10
BRANCH   4  23
ATOM     23  N   UNL     1      -5.418  -3.920  -4.679  0.00  0.00    -0.269 N 
ATOM     24  C   UNL     1      -5.289  -4.593  -5.840  0.00  0.00    +0.308 C 
ATOM     25  O   UNL     1      -4.214  -5.070  -6.150  0.00  0.00    -0.252 OA
ATOM     26  N   UNL     1      -6.351  -4.737  -6.657  0.00  0.00    -0.268 N 
ATOM     27  H   UNL     1      -6.261  -3.497  -4.455  0.00  0.00    +0.156 HD
ATOM     28  H   UNL     1      -7.186  -4.289  -6.450  0.00  0.00    +0.156 HD
BRANCH  26  29
ATOM     29  C   UNL     1      -6.249  -5.533  -7.804  0.00  0.00    +0.055 A 
ATOM     30  C   UNL     1      -5.359  -6.598  -7.835  0.00  0.00    +0.025 A 
ATOM     31  C   UNL     1      -5.260  -7.382  -8.968  0.00  0.00    +0.003 A 
ATOM     32  C   UNL     1      -6.046  -7.108 -10.072  0.00  0.00    +0.021 A 
ATOM     33  C   UNL     1      -6.934  -6.047 -10.046  0.00  0.00    +0.061 A 
ATOM     34  C   UNL     1      -7.042  -5.262  -8.912  0.00  0.00    +0.080 A 
ATOM     35 CL   UNL     1      -8.162  -3.935  -8.876  0.00  0.00    -0.080 Cl
ATOM     36 CL   UNL     1      -7.919  -5.706 -11.434  0.00  0.00    -0.082 Cl
ENDBRANCH  26  29
ENDBRANCH   4  23
TORSDOF 6
