REMARK  Name = ZINC50322195
REMARK  7 active torsions:
REMARK  status: ('A' for Active; 'I' for Inactive)
REMARK    1  A    between atoms: C_1  and  C_2
REMARK    2  A    between atoms: C_2  and  C_3
REMARK    3  A    between atoms: C_3  and  C_4
REMARK    4  A    between atoms: C_5  and  N_22
REMARK    5  A    between atoms: C_6  and  C_10
REMARK    6  A    between atoms: N_12  and  C_13
REMARK    7  A    between atoms: C_18  and  C_21
REMARK                            x       y       z     vdW  Elec       q    Type
REMARK                         _______ _______ _______ _____ _____    ______ ____
ROOT
ATOM      1  C   UNL     1       0.739  -2.004  -1.265  0.00  0.00    +0.057 A 
ATOM      2  C   UNL     1      -0.243  -2.823  -1.727  0.00  0.00    +0.078 A 
ATOM      3  C   UNL     1       0.238  -4.142  -1.522  0.00  0.00    +0.168 A 
ATOM      4  N   UNL     1       1.432  -4.037  -0.971  0.00  0.00    -0.167 NA
ATOM      5  N   UNL     1       1.744  -2.801  -0.818  0.00  0.00    -0.279 N 
ATOM      6  H   UNL     1       2.577  -2.482  -0.435  0.00  0.00    +0.189 HD
ENDROOT
BRANCH   3   7
ATOM      7  C   UNL     1      -0.465  -5.394  -1.860  0.00  0.00    +0.266 C 
ATOM      8  O   UNL     1      -1.569  -5.353  -2.367  0.00  0.00    -0.268 OA
ATOM      9  N   UNL     1       0.117  -6.583  -1.607  0.00  0.00    -0.307 N 
ATOM     10  H   UNL     1       0.998  -6.615  -1.202  0.00  0.00    +0.149 HD
BRANCH   9  11
ATOM     11  C   UNL     1      -0.581  -7.826  -1.943  0.00  0.00    +0.074 C 
ATOM     12  C   UNL     1      -0.321  -8.177  -3.409  0.00  0.00    +0.022 C 
ATOM     13  C   UNL     1      -1.050  -9.476  -3.760  0.00  0.00    +0.002 C 
ATOM     14  C   UNL     1      -0.536 -10.606  -2.866  0.00  0.00    +0.003 C 
ATOM     15  C   UNL     1      -0.796 -10.255  -1.400  0.00  0.00    -0.012 C 
ATOM     16  C   UNL     1      -0.067  -8.957  -1.049  0.00  0.00    +0.025 C 
ATOM     17  C   UNL     1      -0.282 -11.386  -0.506  0.00  0.00    +0.007 C 
ENDBRANCH   9  11
ENDBRANCH   3   7
BRANCH   2  18
ATOM     18  N   UNL     1      -1.472  -2.445  -2.288  0.00  0.00    -0.355 N 
ATOM     19  H   UNL     1      -1.694  -1.505  -2.379  0.00  0.00    +0.142 HD
ATOM     20  H   UNL     1      -2.099  -3.122  -2.585  0.00  0.00    +0.142 HD
ENDBRANCH   2  18
BRANCH   1  21
ATOM     21  C   UNL     1       0.718  -0.497  -1.257  0.00  0.00    +0.056 C 
BRANCH  21  23
ATOM     22  C   UNL     1      -0.019   1.526   0.010  0.00  0.00    +0.004 C 
ATOM     23  C   UNL     1       0.002  -0.004   0.002  0.00  0.00    +0.003 C 
ENDBRANCH  21  23
ENDBRANCH   1  21
TORSDOF 5
