REMARK  Name = ZINC21075993
REMARK  13 active torsions:
REMARK  status: ('A' for Active; 'I' for Inactive)
REMARK    1  A    between atoms: C_1  and  C_2
REMARK    2  A    between atoms: C_2  and  N_3
REMARK    3  A    between atoms: N_3  and  S_4
REMARK    4  A    between atoms: S_4  and  C_7
REMARK    5  A    between atoms: C_10  and  N_13
REMARK    6  A    between atoms: C_14  and  C_16
REMARK    7  A    between atoms: C_16  and  S_17
REMARK    8  A    between atoms: S_17  and  C_18
REMARK    9  A    between atoms: N_23  and  N_24
REMARK   10  A    between atoms: C_25  and  C_26
REMARK   11  A    between atoms: C_29  and  N_32
REMARK   12  A    between atoms: N_32  and  C_33
REMARK   13  A    between atoms: N_32  and  C_34
REMARK                            x       y       z     vdW  Elec       q    Type
REMARK                         _______ _______ _______ _____ _____    ______ ____
ROOT
ATOM      1  S   UNL     1      -9.701   2.017   1.853  0.00  0.00    -0.075 S 
ENDROOT
BRANCH   1   2
ATOM      2  C   UNL     1      -7.966   2.108   1.556  0.00  0.00    +0.211 A 
ATOM      3  N   UNL     1      -7.155   1.064   1.213  0.00  0.00    -0.186 NA
ATOM      4  C   UNL     1      -5.883   1.546   1.072  0.00  0.00    +0.232 A 
ATOM      5  N   UNL     1      -5.907   2.832   1.323  0.00  0.00    -0.245 N 
ATOM      6  N   UNL     1      -7.228   3.190   1.623  0.00  0.00    -0.144 NA
ATOM      7  N   UNL     1      -4.763   0.802   0.729  0.00  0.00    -0.205 N 
ATOM      8  H   UNL     1      -4.855  -0.278   0.544  0.00  0.00    +0.177 HD
ATOM      9  H   UNL     1      -4.979   3.420   1.272  0.00  0.00    +0.192 HD
BRANCH   7  10
ATOM     10  N   UNL     1      -3.514   1.428   0.619  0.00  0.00    -0.188 NA
ATOM     11  C   UNL     1      -2.465   0.732   0.298  0.00  0.00    +0.138 C 
BRANCH  11  12
ATOM     12  C   UNL     1      -1.152   1.390   0.183  0.00  0.00    -0.005 A 
ATOM     13  C   UNL     1      -0.022   0.643  -0.162  0.00  0.00    +0.011 A 
ATOM     14  C   UNL     1       1.204   1.262  -0.275  0.00  0.00    +0.024 A 
ATOM     15  C   UNL     1       1.318   2.628  -0.040  0.00  0.00    +0.029 A 
ATOM     16  C   UNL     1       0.197   3.374   0.308  0.00  0.00    +0.024 A 
ATOM     17  C   UNL     1      -1.031   2.761   0.423  0.00  0.00    +0.011 A 
BRANCH  15  18
ATOM     18  N   UNL     1       2.561   3.252  -0.156  0.00  0.00    -0.336 N 
ATOM     19  C   UNL     1       3.764   2.450  -0.391  0.00  0.00    +0.129 C 
ATOM     20  C   UNL     1       2.663   4.709  -0.042  0.00  0.00    +0.129 C 
ENDBRANCH  15  18
ENDBRANCH  11  12
ENDBRANCH   7  10
ENDBRANCH   1   2
BRANCH   1  21
ATOM     21  C   UNL     1     -10.166   3.724   2.257  0.00  0.00    +0.173 C 
BRANCH  21  23
ATOM     22  N   UNL     1     -12.220   4.963   2.862  0.00  0.00    -0.285 N 
ATOM     23  C   UNL     1     -11.645   3.788   2.538  0.00  0.00    +0.227 C 
ATOM     24  O   UNL     1     -12.319   2.781   2.471  0.00  0.00    -0.275 OA
ATOM     25  H   UNL     1     -11.627   5.890   2.837  0.00  0.00    +0.155 HD
BRANCH  22  29
ATOM     26  C   UNL     1     -16.238   5.087   3.956  0.00  0.00    +0.105 A 
ATOM     27  C   UNL     1     -15.467   3.986   4.281  0.00  0.00    +0.030 A 
ATOM     28  C   UNL     1     -14.135   3.942   3.920  0.00  0.00    +0.025 A 
ATOM     29  C   UNL     1     -13.569   5.005   3.229  0.00  0.00    +0.034 A 
ATOM     30  C   UNL     1     -14.344   6.112   2.909  0.00  0.00    +0.025 A 
ATOM     31  C   UNL     1     -15.677   6.147   3.267  0.00  0.00    +0.030 A 
BRANCH  26  32
ATOM     32  S   UNL     1     -17.937   5.140   4.418  0.00  0.00    +0.058 S 
ATOM     33  O   UNL     1     -18.575   6.038   3.521  0.00  0.00    -0.153 OA
ATOM     34  O   UNL     1     -18.357   3.791   4.574  0.00  0.00    -0.153 OA
BRANCH  32  35
ATOM     35  N   UNL     1     -18.015   5.836   5.919  0.00  0.00    -0.190 NA
ATOM     36  H   UNL     1     -18.207   5.201   6.796  0.00  0.00    +0.148 HD
BRANCH  35  38
ATOM     37  C   UNL     1     -18.122   7.738   7.452  0.00  0.00    +0.022 C 
ATOM     38  C   UNL     1     -17.616   7.234   6.099  0.00  0.00    +0.102 C 
ENDBRANCH  35  38
ENDBRANCH  32  35
ENDBRANCH  26  32
ENDBRANCH  22  29
ENDBRANCH  21  23
ENDBRANCH   1  21
TORSDOF 10
