REMARK  Name = ZINC33423191
REMARK  9 active torsions:
REMARK  status: ('A' for Active; 'I' for Inactive)
REMARK    1  A    between atoms: C_1  and  C_2
REMARK    2  A    between atoms: C_3  and  C_4
REMARK    3  A    between atoms: C_4  and  N_5
REMARK    4  A    between atoms: N_13  and  C_29
REMARK    5  A    between atoms: N_17  and  N_18
REMARK    6  A    between atoms: C_19  and  C_20
REMARK    7  A    between atoms: C_23  and  N_26
REMARK    8  A    between atoms: N_26  and  C_27
REMARK    9  A    between atoms: N_26  and  C_28
REMARK                            x       y       z     vdW  Elec       q    Type
REMARK                         _______ _______ _______ _____ _____    ______ ____
ROOT
ATOM      1  N   UNL     1       0.845   3.716   1.144  0.00  0.00    -0.301 N 
ATOM      2  C   UNL     1       1.187   2.393   0.905  0.00  0.00    +0.153 A 
ATOM      3  C   UNL     1       2.341   1.620   1.123  0.00  0.00    +0.280 A 
ATOM      4  O   UNL     1       3.330   2.119   1.632  0.00  0.00    -0.265 OA
ATOM      5  N   UNL     1       2.343   0.319   0.764  0.00  0.00    -0.273 N 
ATOM      6  H   UNL     1       3.239  -0.296   0.930  0.00  0.00    +0.173 HD
ATOM      7  C   UNL     1       1.260  -0.245   0.201  0.00  0.00    +0.331 A 
ATOM      8  O   UNL     1       1.298  -1.420  -0.111  0.00  0.00    -0.246 OA
ATOM      9  N   UNL     1       0.135   0.459  -0.026  0.00  0.00    -0.280 N 
ATOM     10  C   UNL     1       0.072   1.798   0.323  0.00  0.00    +0.170 A 
ATOM     11  N   UNL     1      -0.875   2.732   0.221  0.00  0.00    -0.195 NA
ATOM     12  C   UNL     1      -0.434   3.875   0.708  0.00  0.00    +0.218 A 
ATOM     13  N   UNL     1      -1.153   5.046   0.762  0.00  0.00    -0.206 N 
ATOM     14  C   UNL     1      -1.024  -0.193  -0.641  0.00  0.00    +0.155 C 
ATOM     15  H   UNL     1      -0.670   5.973   1.105  0.00  0.00    +0.177 HD
ENDROOT
BRANCH  13  16
ATOM     16  N   UNL     1      -2.501   5.060   0.379  0.00  0.00    -0.188 NA
ATOM     17  C   UNL     1      -3.139   6.186   0.289  0.00  0.00    +0.138 C 
BRANCH  17  18
ATOM     18  C   UNL     1      -2.392   7.445   0.118  0.00  0.00    -0.005 A 
ATOM     19  C   UNL     1      -3.048   8.673   0.248  0.00  0.00    +0.011 A 
ATOM     20  C   UNL     1      -2.346   9.847   0.092  0.00  0.00    +0.024 A 
ATOM     21  C   UNL     1      -0.987   9.813  -0.205  0.00  0.00    +0.029 A 
ATOM     22  C   UNL     1      -0.332   8.594  -0.341  0.00  0.00    +0.024 A 
ATOM     23  C   UNL     1      -1.027   7.415  -0.181  0.00  0.00    +0.011 A 
BRANCH  21  24
ATOM     24  N   UNL     1      -0.280  11.005  -0.368  0.00  0.00    -0.336 N 
ATOM     25  C   UNL     1       1.118  10.973  -0.803  0.00  0.00    +0.129 C 
ATOM     26  C   UNL     1      -0.936  12.288  -0.103  0.00  0.00    +0.129 C 
ENDBRANCH  21  24
ENDBRANCH  17  18
ENDBRANCH  13  16
BRANCH   1  27
ATOM     27  C   UNL     1       1.696   4.744   1.747  0.00  0.00    +0.153 C 
BRANCH  27  30
ATOM     28  C   UNL     1       4.504   4.921   1.938  0.00  0.00    +0.057 C 
ATOM     29  C   UNL     1       3.786   5.554   0.774  0.00  0.00    +0.013 C 
ATOM     30  C   UNL     1       2.483   5.442   0.668  0.00  0.00    +0.010 C 
ATOM     31 CL   UNL     1       4.682   6.430  -0.427  0.00  0.00    -0.089 Cl
ENDBRANCH  27  30
ENDBRANCH   1  27
TORSDOF 5
