REMARK  Name = ZINC06590389
REMARK  6 active torsions:
REMARK  status: ('A' for Active; 'I' for Inactive)
REMARK    1  A    between atoms: C_7  and  C_11
REMARK    2  A    between atoms: C_11  and  C_12
REMARK    3  A    between atoms: N_16  and  C_20
REMARK    4  A    between atoms: C_20  and  C_21
REMARK    5  A    between atoms: N_23  and  C_24
REMARK    6  A    between atoms: C_24  and  C_29
REMARK                            x       y       z     vdW  Elec       q    Type
REMARK                         _______ _______ _______ _____ _____    ______ ____
ROOT
ATOM      1  C   UNL     1      -0.753   1.593  -1.232  0.00  0.00    +0.165 C 
ATOM      2  C   UNL     1       0.003   1.222  -2.492  0.00  0.00    +0.244 C 
ATOM      3  O   UNL     1       1.122   1.568  -2.804  0.00  0.00    -0.273 OA
ATOM      4  N   UNL     1      -0.829   0.428  -3.195  0.00  0.00    -0.216 N 
ATOM      5  C   UNL     1      -1.992   0.246  -2.560  0.00  0.00    +0.310 C 
ATOM      6  O   UNL     1      -2.902  -0.431  -2.997  0.00  0.00    -0.252 OA
ATOM      7  N   UNL     1      -2.043   0.899  -1.385  0.00  0.00    -0.287 N 
ATOM      8  H   UNL     1      -2.785   0.910  -0.760  0.00  0.00    +0.151 HD
ENDROOT
BRANCH   1   9
ATOM      9  C   UNL     1      -0.013   1.086   0.008  0.00  0.00    +0.069 C 
BRANCH   9  16
ATOM     10  C   UNL     1      -3.644  -0.549   2.481  0.00  0.00    +0.001 A 
ATOM     11  C   UNL     1      -3.954   0.246   3.576  0.00  0.00    +0.002 A 
ATOM     12  C   UNL     1      -3.227   1.384   3.847  0.00  0.00    +0.026 A 
ATOM     13  C   UNL     1      -2.170   1.742   3.016  0.00  0.00    +0.047 A 
ATOM     14  C   UNL     1      -1.863   0.937   1.904  0.00  0.00    +0.003 A 
ATOM     15  C   UNL     1      -2.610  -0.216   1.652  0.00  0.00    +0.010 A 
ATOM     16  C   UNL     1      -0.718   1.572   1.248  0.00  0.00    -0.020 A 
ATOM     17  C   UNL     1      -0.420   2.672   1.957  0.00  0.00    +0.087 A 
ATOM     18  N   UNL     1      -1.277   2.790   3.017  0.00  0.00    -0.360 N 
ATOM     19  H   UNL     1      -1.257   3.505   3.672  0.00  0.00    +0.165 HD
ENDBRANCH   9  16
ENDBRANCH   1   9
BRANCH   4  20
ATOM     20  C   UNL     1      -0.499  -0.164  -4.494  0.00  0.00    +0.213 C 
BRANCH  20  21
ATOM     21  C   UNL     1       0.150  -1.508  -4.284  0.00  0.00    +0.232 C 
ATOM     22  O   UNL     1       0.321  -1.929  -3.160  0.00  0.00    -0.274 OA
ATOM     23  N   UNL     1       0.541  -2.240  -5.346  0.00  0.00    -0.296 N 
ATOM     24  H   UNL     1       0.405  -1.903  -6.245  0.00  0.00    +0.150 HD
BRANCH  23  25
ATOM     25  C   UNL     1       1.172  -3.547  -5.141  0.00  0.00    +0.121 C 
ATOM     26  C   UNL     1       2.501  -3.378  -4.376  0.00  0.00    +0.041 C 
ATOM     27  C   UNL     1       3.442  -4.430  -5.013  0.00  0.00    +0.003 C 
ATOM     28  C   UNL     1       3.054  -4.374  -6.511  0.00  0.00    +0.003 C 
ATOM     29  C   UNL     1       1.524  -4.180  -6.499  0.00  0.00    +0.041 C 
BRANCH  25  30
ATOM     30  C   UNL     1       0.267  -4.432  -4.391  0.00  0.00    +0.088 C 
ATOM     31  N   UNL     1      -0.432  -5.115  -3.812  0.00  0.00    -0.194 NA
ENDBRANCH  25  30
ENDBRANCH  23  25
ENDBRANCH  20  21
ENDBRANCH   4  20
TORSDOF 6
