REMARK  Name = ZINC09396530
REMARK  8 active torsions:
REMARK  status: ('A' for Active; 'I' for Inactive)
REMARK    1  A    between atoms: C_1  and  C_2
REMARK    2  A    between atoms: C_2  and  C_4
REMARK    3  A    between atoms: C_2  and  N_61
REMARK    4  A    between atoms: C_7  and  S_16
REMARK    5  A    between atoms: N_8  and  C_9
REMARK    6  A    between atoms: S_16  and  C_17
REMARK    7  A    between atoms: C_17  and  C_19
REMARK    8  A    between atoms: C_17  and  C_25
REMARK                            x       y       z     vdW  Elec       q    Type
REMARK                         _______ _______ _______ _____ _____    ______ ____
ROOT
ATOM      1  C   UNL     1      -2.700  -6.680  -0.897  0.00  0.00    +0.125 A 
ATOM      2  N   UNL     1      -1.610  -6.235  -0.338  0.00  0.00    -0.135 NA
ATOM      3  N   UNL     1      -1.726  -4.982  -0.077  0.00  0.00    -0.122 NA
ATOM      4  C   UNL     1      -2.910  -4.555  -0.450  0.00  0.00    +0.197 A 
ATOM      5  N   UNL     1      -3.569  -5.626  -0.989  0.00  0.00    -0.275 N 
ENDROOT
BRANCH   5   6
ATOM      6  C   UNL     1      -4.866  -5.640  -1.526  0.00  0.00    +0.050 A 
ATOM      7  C   UNL     1      -5.861  -6.393  -0.917  0.00  0.00    +0.029 A 
ATOM      8  C   UNL     1      -7.138  -6.402  -1.444  0.00  0.00    +0.040 A 
ATOM      9  C   UNL     1      -7.423  -5.670  -2.584  0.00  0.00    +0.124 A 
ATOM     10  C   UNL     1      -6.431  -4.923  -3.195  0.00  0.00    +0.040 A 
ATOM     11  C   UNL     1      -5.154  -4.907  -2.668  0.00  0.00    +0.029 A 
ATOM     12  F   UNL     1      -8.672  -5.684  -3.100  0.00  0.00    -0.205 F 
ENDBRANCH   5   6
BRANCH   1  14
ATOM     13  C   UNL     1      -2.159  -8.366  -2.633  0.00  0.00    -0.005 C 
ATOM     14  C   UNL     1      -2.956  -8.092  -1.356  0.00  0.00    -0.002 C 
BRANCH  14  20
ATOM     15  C   UNL     1      -2.801 -10.419  -0.709  0.00  0.00    -0.078 C 
ATOM     16  C   UNL     1      -2.223 -11.373   0.340  0.00  0.00    -0.019 C 
ATOM     17  C   UNL     1      -2.869 -11.084   1.697  0.00  0.00    -0.004 C 
ATOM     18  C   UNL     1      -2.623  -9.619   2.070  0.00  0.00    -0.019 C 
ATOM     19  C   UNL     1      -3.189  -8.716   0.971  0.00  0.00    -0.078 C 
ATOM     20  N   UNL     1      -2.509  -9.028  -0.304  0.00  0.00    +0.386 N 
ATOM     21  H   UNL     1      -1.495  -8.924  -0.175  0.00  0.00    -0.081 HD
ENDBRANCH  14  20
ENDBRANCH   1  14
BRANCH   4  22
ATOM     22  S   UNL     1      -3.530  -2.913  -0.294  0.00  0.00    -0.068 S 
BRANCH  22  23
ATOM     23  C   UNL     1      -2.108  -2.114   0.491  0.00  0.00    +0.170 C 
BRANCH  23  24
ATOM     24  C   UNL     1      -2.369  -0.635   0.616  0.00  0.00    +0.238 C 
ATOM     25  O   UNL     1      -3.508  -0.222   0.656  0.00  0.00    -0.274 OA
ATOM     26  N   UNL     1      -1.336   0.228   0.684  0.00  0.00    -0.239 N 
ATOM     27  C   UNL     1      -1.569   1.551   0.797  0.00  0.00    +0.303 C 
ATOM     28  O   UNL     1      -2.711   1.965   0.832  0.00  0.00    -0.253 OA
ATOM     29  N   UNL     1      -0.536   2.414   0.865  0.00  0.00    -0.313 N 
ATOM     30  H   UNL     1      -0.424  -0.103   0.652  0.00  0.00    +0.159 HD
ATOM     31  H   UNL     1       0.375   2.083   0.833  0.00  0.00    +0.146 HD
ATOM     32  H   UNL     1      -0.704   3.366   0.945  0.00  0.00    +0.146 HD
ENDBRANCH  23  24
BRANCH  23  33
ATOM     33  C   UNL     1      -1.892  -2.704   1.861  0.00  0.00    -0.025 A 
ATOM     34  C   UNL     1      -2.888  -2.616   2.815  0.00  0.00    +0.005 A 
ATOM     35  C   UNL     1      -2.692  -3.161   4.071  0.00  0.00    +0.000 A 
ATOM     36  C   UNL     1      -1.497  -3.787   4.374  0.00  0.00    +0.000 A 
ATOM     37  C   UNL     1      -0.500  -3.870   3.420  0.00  0.00    +0.000 A 
ATOM     38  C   UNL     1      -0.697  -3.329   2.164  0.00  0.00    +0.005 A 
ENDBRANCH  23  33
ENDBRANCH  22  23
ENDBRANCH   4  22
TORSDOF 7
