REMARK  Name = ZINC35888984
REMARK  11 active torsions:
REMARK  status: ('A' for Active; 'I' for Inactive)
REMARK    1  A    between atoms: C_1  and  C_2
REMARK    2  A    between atoms: C_2  and  C_3
REMARK    3  A    between atoms: C_12  and  C_13
REMARK    4  A    between atoms: C_13  and  C_15
REMARK    5  A    between atoms: C_13  and  C_30
REMARK    6  A    between atoms: C_15  and  C_16
REMARK    7  A    between atoms: N_18  and  C_19
REMARK    8  A    between atoms: C_19  and  C_20
REMARK    9  A    between atoms: C_20  and  C_21
REMARK   10  A    between atoms: C_21  and  N_22
REMARK   11  A    between atoms: C_27  and  C_29
REMARK                            x       y       z     vdW  Elec       q    Type
REMARK                         _______ _______ _______ _____ _____    ______ ____
ROOT
ATOM      1  C   UNL     1       5.278  -1.492  -3.042  0.00  0.00    +0.060 C 
ENDROOT
BRANCH   1  11
ATOM      2  C   UNL     1       0.707  -0.490  -1.238  0.00  0.00    -0.024 A 
ATOM      3  C   UNL     1      -0.018  -0.817  -2.363  0.00  0.00    +0.005 A 
ATOM      4  C   UNL     1       0.620  -1.265  -3.511  0.00  0.00    +0.001 A 
ATOM      5  C   UNL     1       1.980  -1.391  -3.545  0.00  0.00    +0.010 A 
ATOM      6  C   UNL     1       2.735  -1.065  -2.417  0.00  0.00    +0.004 A 
ATOM      7  C   UNL     1       2.094  -0.605  -1.252  0.00  0.00    +0.050 A 
ATOM      8  N   UNL     1       3.075  -0.360  -0.318  0.00  0.00    -0.360 N 
ATOM      9  H   UNL     1       2.919  -0.035   0.582  0.00  0.00    +0.165 HD
ATOM     10  C   UNL     1       4.304  -0.641  -0.850  0.00  0.00    +0.088 A 
ATOM     11  C   UNL     1       4.167  -1.079  -2.112  0.00  0.00    -0.015 A 
BRANCH   2  13
ATOM     12  C   UNL     1      -0.019   1.526   0.010  0.00  0.00    +0.009 C 
ATOM     13  C   UNL     1       0.002  -0.004   0.002  0.00  0.00    +0.034 C 
ENDBRANCH   2  13
ENDBRANCH   1  11
BRANCH   1  14
ATOM     14  C   UNL     1       6.029  -2.654  -2.444  0.00  0.00    -0.036 A 
ATOM     15  C   UNL     1       6.648  -2.516  -1.216  0.00  0.00    +0.008 A 
ATOM     16  C   UNL     1       7.338  -3.579  -0.663  0.00  0.00    +0.050 A 
ATOM     17  C   UNL     1       7.409  -4.786  -1.339  0.00  0.00    +0.166 A 
ATOM     18  C   UNL     1       6.785  -4.925  -2.576  0.00  0.00    +0.167 A 
ATOM     19  C   UNL     1       6.091  -3.857  -3.122  0.00  0.00    +0.053 A 
ATOM     20  O   UNL     1       6.999  -6.194  -3.033  0.00  0.00    -0.453 OA
ATOM     21  C   UNL     1       8.101  -6.701  -2.256  0.00  0.00    +0.466 C 
ATOM     22  O   UNL     1       8.014  -5.968  -1.020  0.00  0.00    -0.453 OA
ENDBRANCH   1  14
BRANCH   1  23
ATOM     23  C   UNL     1       6.237  -0.317  -3.246  0.00  0.00    +0.108 C 
BRANCH  23  24
ATOM     24  C   UNL     1       7.277  -0.689  -4.271  0.00  0.00    +0.214 C 
ATOM     25  O   UNL     1       7.255  -1.786  -4.787  0.00  0.00    -0.276 OA
ATOM     26  N   UNL     1       8.233   0.197  -4.613  0.00  0.00    -0.315 N 
ATOM     27  H   UNL     1       8.251   1.075  -4.200  0.00  0.00    +0.149 HD
BRANCH  26  28
ATOM     28  C   UNL     1       9.245  -0.165  -5.609  0.00  0.00    +0.102 C 
BRANCH  28  29
ATOM     29  C   UNL     1      10.203   1.011  -5.813  0.00  0.00    +0.000 C 
BRANCH  29  30
ATOM     30  C   UNL     1      11.260   0.633  -6.853  0.00  0.00    -0.077 C 
BRANCH  30  31
ATOM     31  N   UNL     1      12.180   1.761  -7.048  0.00  0.00    +0.381 N 
ATOM     32  C   UNL     1      12.918   2.010  -5.805  0.00  0.00    -0.078 C 
ATOM     33  C   UNL     1      13.819   3.235  -5.978  0.00  0.00    -0.019 C 
ATOM     34  C   UNL     1      14.808   2.977  -7.118  0.00  0.00    -0.003 C 
ATOM     35  C   UNL     1      14.027   2.646  -8.393  0.00  0.00    -0.016 C 
ATOM     36  C   UNL     1      13.119   1.443  -8.130  0.00  0.00    -0.072 C 
ATOM     37  C   UNL     1      12.337   1.108  -9.402  0.00  0.00    -0.013 C 
ATOM     38  H   UNL     1      11.652   2.585  -7.294  0.00  0.00    -0.081 HD
ENDBRANCH  30  31
ENDBRANCH  29  30
ENDBRANCH  28  29
ENDBRANCH  26  28
ENDBRANCH  23  24
ENDBRANCH   1  23
TORSDOF 9
