REMARK  Name = ZINC40042930
REMARK  14 active torsions:
REMARK  status: ('A' for Active; 'I' for Inactive)
REMARK    1  A    between atoms: C_1  and  C_2
REMARK    2  A    between atoms: C_2  and  C_3
REMARK    3  A    between atoms: N_16  and  C_34
REMARK    4  A    between atoms: C_17  and  C_19
REMARK    5  A    between atoms: C_22  and  O_28
REMARK    6  A    between atoms: C_23  and  O_25
REMARK    7  A    between atoms: O_25  and  C_26
REMARK    8  A    between atoms: C_26  and  C_27
REMARK    9  A    between atoms: O_28  and  C_29
REMARK   10  A    between atoms: C_29  and  C_30
REMARK   11  A    between atoms: C_30  and  C_31
REMARK   12  A    between atoms: C_31  and  C_32
REMARK   13  A    between atoms: C_31  and  C_33
REMARK   14  A    between atoms: C_34  and  C_35
REMARK                            x       y       z     vdW  Elec       q    Type
REMARK                         _______ _______ _______ _____ _____    ______ ____
ROOT
ATOM      1  C   UNL     1       0.153  -0.821  -1.872  0.00  0.00    -0.047 A 
ATOM      2  C   UNL     1      -0.438  -0.997  -3.115  0.00  0.00    +0.007 A 
ATOM      3  C   UNL     1       0.313  -1.372  -4.206  0.00  0.00    +0.047 A 
ATOM      4  C   UNL     1       1.686  -1.579  -4.072  0.00  0.00    +0.139 A 
ATOM      5  C   UNL     1       2.274  -1.391  -2.810  0.00  0.00    +0.065 A 
ATOM      6  C   UNL     1       1.498  -1.010  -1.716  0.00  0.00    +0.019 A 
ATOM      7  C   UNL     1       3.737  -1.593  -2.660  0.00  0.00    +0.199 A 
ATOM      8  O   UNL     1       4.300  -1.618  -1.581  0.00  0.00    -0.287 OA
ATOM      9  C   UNL     1       4.440  -1.762  -3.937  0.00  0.00    +0.072 A 
ATOM     10  C   UNL     1       3.750  -1.927  -5.104  0.00  0.00    +0.199 A 
ATOM     11  O   UNL     1       2.404  -1.954  -5.155  0.00  0.00    -0.450 OA
ATOM     12  C   UNL     1       4.724  -2.059  -6.202  0.00  0.00    +0.283 C 
ATOM     13  O   UNL     1       4.436  -2.216  -7.372  0.00  0.00    -0.267 OA
ATOM     14  N   UNL     1       5.980  -1.982  -5.719  0.00  0.00    -0.281 N 
ATOM     15  C   UNL     1       5.897  -1.792  -4.261  0.00  0.00    +0.145 C 
ENDROOT
BRANCH  15  16
ATOM     16  C   UNL     1       6.544  -0.488  -3.870  0.00  0.00    -0.019 A 
ATOM     17  C   UNL     1       6.319   0.648  -4.625  0.00  0.00    +0.009 A 
ATOM     18  C   UNL     1       6.910   1.846  -4.270  0.00  0.00    +0.050 A 
ATOM     19  C   UNL     1       7.729   1.911  -3.155  0.00  0.00    +0.162 A 
ATOM     20  C   UNL     1       7.955   0.768  -2.394  0.00  0.00    +0.162 A 
ATOM     21  C   UNL     1       7.356  -0.429  -2.753  0.00  0.00    +0.055 A 
BRANCH  20  22
ATOM     22  O   UNL     1       8.758   0.827  -1.298  0.00  0.00    -0.489 OA
BRANCH  22  23
ATOM     23  C   UNL     1       8.945  -0.386  -0.565  0.00  0.00    +0.226 C 
ATOM     24  C   UNL     1       9.872  -0.125   0.624  0.00  0.00    +0.048 C 
ENDBRANCH  22  23
ENDBRANCH  20  22
BRANCH  19  25
ATOM     25  O   UNL     1       8.311   3.089  -2.804  0.00  0.00    -0.488 OA
BRANCH  25  26
ATOM     26  C   UNL     1       8.034   4.221  -3.632  0.00  0.00    +0.229 C 
BRANCH  26  27
ATOM     27  C   UNL     1       8.771   5.445  -3.084  0.00  0.00    +0.044 C 
BRANCH  27  28
ATOM     28  C   UNL     1       8.475   6.657  -3.970  0.00  0.00    -0.014 C 
ATOM     29  C   UNL     1       9.109   7.906  -3.355  0.00  0.00    +0.007 C 
ATOM     30  C   UNL     1       9.059   6.423  -5.365  0.00  0.00    +0.007 C 
ENDBRANCH  27  28
ENDBRANCH  26  27
ENDBRANCH  25  26
ENDBRANCH  19  25
ENDBRANCH  15  16
BRANCH   1  32
ATOM     31  C   UNL     1      -0.744   1.113  -0.605  0.00  0.00    +0.009 C 
ATOM     32  C   UNL     1      -0.690  -0.414  -0.691  0.00  0.00    +0.032 C 
ENDBRANCH   1  32
BRANCH  14  33
ATOM     33  C   UNL     1       7.213  -2.072  -6.506  0.00  0.00    +0.140 C 
BRANCH  33  34
ATOM     34  C   UNL     1       7.728  -3.513  -6.483  0.00  0.00    +0.136 C 
ATOM     35  C   UNL     1       9.073  -3.599  -7.235  0.00  0.00    +0.035 C 
ATOM     36  C   UNL     1       8.944  -4.953  -7.986  0.00  0.00    +0.031 C 
ATOM     37  C   UNL     1       7.427  -4.972  -8.300  0.00  0.00    +0.160 C 
ATOM     38  O   UNL     1       6.799  -4.372  -7.153  0.00  0.00    -0.375 OA
ENDBRANCH  33  34
ENDBRANCH  14  33
TORSDOF 10
