REMARK  Name = ZINC09126946
REMARK  8 active torsions:
REMARK  status: ('A' for Active; 'I' for Inactive)
REMARK    1  A    between atoms: C_1  and  C_2
REMARK    2  A    between atoms: C_2  and  C_3
REMARK    3  A    between atoms: C_3  and  C_5
REMARK    4  A    between atoms: C_3  and  N_6
REMARK    5  A    between atoms: N_6  and  C_7
REMARK    6  A    between atoms: C_15  and  C_17
REMARK    7  A    between atoms: C_17  and  S_18
REMARK    8  A    between atoms: S_18  and  C_19
REMARK                            x       y       z     vdW  Elec       q    Type
REMARK                         _______ _______ _______ _____ _____    ______ ____
ROOT
ATOM      1  S   UNL     1      -4.132   1.909   1.377  0.00  0.00    -0.077 S 
ENDROOT
BRANCH   1   2
ATOM      2  C   UNL     1      -5.193   0.519   1.161  0.00  0.00    +0.191 A 
ATOM      3  N   UNL     1      -4.691  -0.706   1.265  0.00  0.00    -0.207 NA
ATOM      4  C   UNL     1      -5.438  -1.787   1.114  0.00  0.00    +0.129 A 
ATOM      5  C   UNL     1      -6.825  -1.640   0.831  0.00  0.00    +0.051 A 
ATOM      6  C   UNL     1      -7.833  -2.683   0.627  0.00  0.00    -0.025 A 
ATOM      7  C   UNL     1      -9.091  -2.276   0.369  0.00  0.00    -0.004 A 
ATOM      8  S   UNL     1      -9.016  -0.505   0.382  0.00  0.00    -0.073 S 
ATOM      9  C   UNL     1      -7.288  -0.313   0.734  0.00  0.00    +0.115 A 
ATOM     10  N   UNL     1      -6.479   0.715   0.903  0.00  0.00    -0.214 NA
ATOM     11  C   UNL     1     -10.292  -3.138   0.125  0.00  0.00    +0.043 C 
ATOM     12  C   UNL     1      -9.813  -4.569  -0.155  0.00  0.00    +0.005 C 
ATOM     13  C   UNL     1      -8.785  -4.961   0.910  0.00  0.00    +0.005 C 
ATOM     14  C   UNL     1      -7.494  -4.170   0.701  0.00  0.00    +0.037 C 
ATOM     15  N   UNL     1      -4.877  -3.046   1.230  0.00  0.00    -0.343 N 
ATOM     16  H   UNL     1      -4.011  -3.154   1.652  0.00  0.00    +0.144 HD
ATOM     17  H   UNL     1      -5.351  -3.821   0.890  0.00  0.00    +0.144 HD
ENDBRANCH   1   2
BRANCH   1  18
ATOM     18  C   UNL     1      -2.565   1.062   1.698  0.00  0.00    +0.173 C 
BRANCH  18  20
ATOM     19  N   UNL     1      -0.222   1.680   2.193  0.00  0.00    -0.293 N 
ATOM     20  C   UNL     1      -1.479   2.082   1.919  0.00  0.00    +0.226 C 
ATOM     21  O   UNL     1      -1.735   3.265   1.851  0.00  0.00    -0.275 OA
BRANCH  19  22
ATOM     22  C   UNL     1       0.812   2.669   2.508  0.00  0.00    +0.099 C 
ATOM     23  C   UNL     1       0.982   3.626   1.316  0.00  0.00    +0.046 C 
ATOM     24  C   UNL     1       1.841   4.835   1.785  0.00  0.00    +0.168 C 
ATOM     25  S   UNL     1       1.132   5.122   3.461  0.00  0.00    -0.029 S 
ATOM     26  O   UNL     1       0.088   6.081   3.364  0.00  0.00    -0.174 OA
ATOM     27  O   UNL     1       2.193   5.333   4.382  0.00  0.00    -0.174 OA
ATOM     28  C   UNL     1       0.395   3.465   3.768  0.00  0.00    +0.188 C 
ENDBRANCH  19  22
BRANCH  19  29
ATOM     29  C   UNL     1       0.112   0.253   2.171  0.00  0.00    +0.073 C 
ATOM     30  C   UNL     1       0.591  -0.180   3.558  0.00  0.00    +0.028 C 
BRANCH  29  32
ATOM     31  C   UNL     1       0.705   0.339  -0.255  0.00  0.00    +0.005 C 
ATOM     32  C   UNL     1       1.221   0.005   1.147  0.00  0.00    +0.019 C 
ENDBRANCH  29  32
ENDBRANCH  19  29
ENDBRANCH  18  20
ENDBRANCH   1  18
TORSDOF 6
