REMARK  Name = ZINC67289240
REMARK  8 active torsions:
REMARK  status: ('A' for Active; 'I' for Inactive)
REMARK    1  A    between atoms: C_1  and  C_2
REMARK    2  A    between atoms: C_5  and  N_22
REMARK    3  A    between atoms: C_7  and  N_8
REMARK    4  A    between atoms: N_11  and  C_12
REMARK    5  A    between atoms: C_14  and  C_20
REMARK    6  A    between atoms: C_14  and  C_21
REMARK    7  A    between atoms: C_16  and  C_18
REMARK    8  A    between atoms: C_16  and  C_19
REMARK                            x       y       z     vdW  Elec       q    Type
REMARK                         _______ _______ _______ _____ _____    ______ ____
ROOT
ATOM      1  N   UNL     1      -0.035   0.062   2.450  0.00  0.00    -0.269 N 
ATOM      2  C   UNL     1       0.058  -0.568   3.638  0.00  0.00    +0.304 C 
ATOM      3  O   UNL     1       0.251  -1.767   3.677  0.00  0.00    -0.253 OA
ATOM      4  N   UNL     1      -0.064   0.133   4.784  0.00  0.00    -0.296 N 
ATOM      5  H   UNL     1      -0.133   1.026   2.419  0.00  0.00    +0.156 HD
ATOM      6  H   UNL     1      -0.218   1.090   4.753  0.00  0.00    +0.151 HD
ENDROOT
BRANCH   4   7
ATOM      7  C   UNL     1       0.038  -0.553   6.078  0.00  0.00    +0.072 C 
ATOM      8  C   UNL     1      -1.340  -1.090   6.472  0.00  0.00    +0.009 C 
ATOM      9  C   UNL     1      -1.254  -1.796   7.824  0.00  0.00    -0.072 C 
ATOM     10  N   UNL     1      -0.671  -0.945   8.851  0.00  0.00    +0.386 N 
ATOM     11  C   UNL     1       0.541  -0.216   8.517  0.00  0.00    -0.072 C 
ATOM     12  C   UNL     1       0.486   0.446   7.144  0.00  0.00    +0.009 C 
ATOM     13  C   UNL     1       1.783  -1.106   8.618  0.00  0.00    -0.010 C 
ATOM     14  C   UNL     1       0.708   0.912   9.563  0.00  0.00    -0.010 C 
ATOM     15  C   UNL     1      -0.504  -3.121   7.681  0.00  0.00    -0.010 C 
ATOM     16  C   UNL     1      -2.699  -2.132   8.259  0.00  0.00    -0.010 C 
ATOM     17  H   UNL     1      -1.381  -0.271   9.149  0.00  0.00    -0.084 HD
ATOM     18  H   UNL     1      -0.485  -1.520   9.677  0.00  0.00    -0.084 HD
ENDBRANCH   4   7
BRANCH   1  25
ATOM     19  C   UNL     1      -1.304   1.149   0.149  0.00  0.00    +0.045 C 
ATOM     20  C   UNL     1      -0.598  -0.182   0.114  0.00  0.00    -0.029 A 
ATOM     21  C   UNL     1      -0.549  -0.908  -1.061  0.00  0.00    +0.007 A 
ATOM     22  C   UNL     1       0.097  -2.128  -1.096  0.00  0.00    +0.024 A 
ATOM     23  C   UNL     1       0.700  -2.630   0.050  0.00  0.00    +0.046 A 
ATOM     24  C   UNL     1       0.653  -1.905   1.231  0.00  0.00    +0.047 A 
ATOM     25  C   UNL     1       0.009  -0.676   1.262  0.00  0.00    +0.039 A 
BRANCH  23  26
ATOM     26  N   UNL     1       1.355  -3.869   0.013  0.00  0.00    -0.210 N 
ATOM     27  C   UNL     1       0.712  -5.021  -0.215  0.00  0.00    +0.227 C 
ATOM     28  O   UNL     1      -0.478  -5.135  -0.412  0.00  0.00    -0.275 OA
ATOM     29  C   UNL     1       1.708  -6.160  -0.188  0.00  0.00    +0.106 C 
ATOM     30  C   UNL     1       3.052  -5.459   0.098  0.00  0.00    +0.106 C 
ATOM     31  C   UNL     1       2.674  -3.997   0.197  0.00  0.00    +0.227 C 
ATOM     32  O   UNL     1       3.445  -3.086   0.412  0.00  0.00    -0.275 OA
ENDBRANCH  23  26
ENDBRANCH   1  25
TORSDOF 3
