REMARK  Name = ZINC09104548
REMARK  11 active torsions:
REMARK  status: ('A' for Active; 'I' for Inactive)
REMARK    1  A    between atoms: C_1  and  C_2
REMARK    2  A    between atoms: C_6  and  S_13
REMARK    3  A    between atoms: S_13  and  N_16
REMARK    4  A    between atoms: N_16  and  C_17
REMARK    5  A    between atoms: C_17  and  C_18
REMARK    6  A    between atoms: C_18  and  C_20
REMARK    7  A    between atoms: C_18  and  S_25
REMARK    8  A    between atoms: S_25  and  C_28
REMARK    9  A    between atoms: C_31  and  C_34
REMARK   10  A    between atoms: C_34  and  C_35
REMARK   11  A    between atoms: C_34  and  C_36
REMARK                            x       y       z     vdW  Elec       q    Type
REMARK                         _______ _______ _______ _____ _____    ______ ____
ROOT
ATOM      1  C   UNL     1      -5.115  -3.556  -2.150  0.00  0.00    +0.137 C 
ENDROOT
BRANCH   1   2
ATOM      2  N   UNL     1      -4.987  -2.172  -2.615  0.00  0.00    -0.188 NA
ATOM      3  H   UNL     1      -4.854  -1.988  -3.558  0.00  0.00    +0.148 HD
BRANCH   2   4
ATOM      4  S   UNL     1      -5.072  -0.923  -1.531  0.00  0.00    +0.058 S 
ATOM      5  O   UNL     1      -6.224  -1.155  -0.733  0.00  0.00    -0.153 OA
ATOM      6  O   UNL     1      -4.889   0.273  -2.276  0.00  0.00    -0.153 OA
BRANCH   4  11
ATOM      7  C   UNL     1      -0.019   1.526   0.010  0.00  0.00    +0.022 C 
ATOM      8  C   UNL     1       0.002  -0.004   0.002  0.00  0.00    +0.104 C 
ATOM      9  C   UNL     1      -1.405  -0.553   0.059  0.00  0.00    -0.013 A 
ATOM     10  C   UNL     1      -2.490  -0.438  -0.780  0.00  0.00    +0.034 A 
ATOM     11  C   UNL     1      -3.680  -1.068  -0.460  0.00  0.00    +0.106 A 
ATOM     12  C   UNL     1      -3.774  -1.810   0.703  0.00  0.00    +0.030 A 
ATOM     13  C   UNL     1      -2.689  -1.927   1.546  0.00  0.00    +0.025 A 
ATOM     14  C   UNL     1      -1.487  -1.296   1.230  0.00  0.00    +0.037 A 
ATOM     15  N   UNL     1      -0.268  -1.264   1.909  0.00  0.00    -0.285 N 
ATOM     16  C   UNL     1       0.658  -0.533   1.260  0.00  0.00    +0.224 C 
ATOM     17  O   UNL     1       1.801  -0.334   1.614  0.00  0.00    -0.275 OA
ATOM     18  H   UNL     1      -0.106  -1.717   2.750  0.00  0.00    +0.155 HD
ENDBRANCH   4  11
ENDBRANCH   2   4
ENDBRANCH   1   2
BRANCH   1  19
ATOM     19  C   UNL     1      -5.377  -4.474  -3.345  0.00  0.00    +0.188 C 
BRANCH  19  20
ATOM     20  C   UNL     1      -5.509  -5.897  -2.866  0.00  0.00    +0.015 A 
ATOM     21  C   UNL     1      -6.558  -6.745  -2.989  0.00  0.00    +0.013 A 
ATOM     22  C   UNL     1      -6.454  -8.021  -2.468  0.00  0.00    +0.008 A 
ATOM     23  C   UNL     1      -5.305  -8.386  -1.848  0.00  0.00    +0.045 A 
ATOM     24  S   UNL     1      -4.319  -6.905  -1.997  0.00  0.00    -0.100 S 
ENDBRANCH  19  20
BRANCH  19  25
ATOM     25  S   UNL     1      -3.995  -4.354  -4.514  0.00  0.00    +0.006 S 
ATOM     26  O   UNL     1      -3.968  -3.064  -5.109  0.00  0.00    -0.169 OA
ATOM     27  O   UNL     1      -2.821  -4.913  -3.942  0.00  0.00    -0.169 OA
BRANCH  25  28
ATOM     28  C   UNL     1      -4.418  -5.448  -5.829  0.00  0.00    +0.089 A 
ATOM     29  C   UNL     1      -4.033  -6.774  -5.776  0.00  0.00    +0.027 A 
ATOM     30  C   UNL     1      -4.365  -7.632  -6.808  0.00  0.00    +0.006 A 
ATOM     31  C   UNL     1      -5.083  -7.164  -7.892  0.00  0.00    -0.045 A 
ATOM     32  C   UNL     1      -5.469  -5.838  -7.945  0.00  0.00    +0.006 A 
ATOM     33  C   UNL     1      -5.141  -4.981  -6.911  0.00  0.00    +0.027 A 
BRANCH  31  34
ATOM     34  C   UNL     1      -5.444  -8.099  -9.017  0.00  0.00    +0.013 C 
ATOM     35  C   UNL     1      -6.966  -8.163  -9.159  0.00  0.00    +0.012 C 
ATOM     36  C   UNL     1      -4.832  -7.587 -10.322  0.00  0.00    +0.012 C 
ENDBRANCH  31  34
ENDBRANCH  25  28
ENDBRANCH  19  25
ENDBRANCH   1  19
TORSDOF 8
