REMARK  Name = ZINC18169966
REMARK  12 active torsions:
REMARK  status: ('A' for Active; 'I' for Inactive)
REMARK    1  A    between atoms: C_1  and  C_2
REMARK    2  A    between atoms: C_9  and  C_11
REMARK    3  A    between atoms: C_12  and  C_37
REMARK    4  A    between atoms: C_16  and  C_18
REMARK    5  A    between atoms: C_20  and  O_28
REMARK    6  A    between atoms: C_21  and  O_26
REMARK    7  A    between atoms: C_22  and  O_24
REMARK    8  A    between atoms: O_24  and  C_25
REMARK    9  A    between atoms: O_26  and  C_27
REMARK   10  A    between atoms: O_28  and  C_29
REMARK   11  A    between atoms: C_33  and  C_35
REMARK   12  A    between atoms: C_33  and  C_36
REMARK                            x       y       z     vdW  Elec       q    Type
REMARK                         _______ _______ _______ _____ _____    ______ ____
ROOT
ATOM      1  C   UNL     1      -3.626  -1.002  -0.203  0.00  0.00    +0.043 C 
ATOM      2  C   UNL     1      -3.606  -2.345  -0.201  0.00  0.00    +0.014 C 
ATOM      3  N   UNL     1      -4.771  -3.056  -0.286  0.00  0.00    -0.321 N 
ATOM      4  C   UNL     1      -5.970  -2.469   0.018  0.00  0.00    +0.016 C 
ATOM      5  C   UNL     1      -6.092  -1.125   0.030  0.00  0.00    +0.024 C 
ATOM      6  C   UNL     1      -4.917  -0.242  -0.299  0.00  0.00    +0.090 C 
ATOM      7  C   UNL     1      -7.313  -0.509   0.357  0.00  0.00    +0.162 C 
ATOM      8  O   UNL     1      -7.390   0.703   0.351  0.00  0.00    -0.292 OA
ATOM      9  C   UNL     1      -8.526  -1.325   0.714  0.00  0.00    +0.086 C 
ATOM     10  C   UNL     1      -8.071  -2.652   1.329  0.00  0.00    -0.023 C 
ATOM     11  C   UNL     1      -7.147  -3.358   0.335  0.00  0.00    +0.058 C 
ATOM     12  C   UNL     1      -7.314  -2.382   2.632  0.00  0.00    +0.011 C 
ATOM     13  C   UNL     1      -9.291  -3.530   1.616  0.00  0.00    +0.011 C 
ATOM     14  C   UNL     1      -2.290  -3.073  -0.104  0.00  0.00    +0.061 C 
ATOM     15  H   UNL     1      -4.751  -4.109  -0.602  0.00  0.00    +0.152 HD
ENDROOT
BRANCH   1  24
ATOM     16  C   UNL     1       2.466   3.838  -0.038  0.00  0.00    +0.045 C 
ATOM     17  C   UNL     1       1.138   3.125  -0.027  0.00  0.00    -0.032 A 
ATOM     18  C   UNL     1      -0.046   3.849   0.002  0.00  0.00    +0.008 A 
ATOM     19  C   UNL     1      -1.243   3.155   0.010  0.00  0.00    +0.044 A 
ATOM     20  C   UNL     1      -1.220   1.765  -0.004  0.00  0.00    +0.125 A 
ATOM     21  N   UNL     1      -0.070   1.111  -0.037  0.00  0.00    -0.240 NA
ATOM     22  C   UNL     1       1.087   1.745  -0.046  0.00  0.00    +0.116 A 
ATOM     23  N   UNL     1      -2.418   1.054   0.010  0.00  0.00    -0.267 N 
ATOM     24  C   UNL     1      -2.406  -0.289  -0.107  0.00  0.00    +0.248 C 
ATOM     25  O   UNL     1      -1.347  -0.888  -0.131  0.00  0.00    -0.270 OA
ATOM     26  H   UNL     1      -3.373   1.589   0.118  0.00  0.00    +0.157 HD
ENDBRANCH   1  24
BRANCH   6  27
ATOM     27  C   UNL     1      -5.078   0.284  -1.702  0.00  0.00    -0.028 A 
ATOM     28  C   UNL     1      -5.116  -0.595  -2.768  0.00  0.00    +0.054 A 
ATOM     29  C   UNL     1      -5.270  -0.116  -4.060  0.00  0.00    +0.165 A 
ATOM     30  C   UNL     1      -5.374   1.252  -4.284  0.00  0.00    +0.204 A 
ATOM     31  C   UNL     1      -5.330   2.133  -3.210  0.00  0.00    +0.165 A 
ATOM     32  C   UNL     1      -5.182   1.645  -1.920  0.00  0.00    +0.054 A 
BRANCH  31  33
ATOM     33  O   UNL     1      -5.432   3.472  -3.423  0.00  0.00    -0.491 OA
ATOM     34  C   UNL     1      -5.379   4.319  -2.273  0.00  0.00    +0.277 C 
ENDBRANCH  31  33
BRANCH  30  35
ATOM     35  O   UNL     1      -5.519   1.727  -5.551  0.00  0.00    -0.488 OA
ATOM     36  C   UNL     1      -4.322   2.031  -6.270  0.00  0.00    +0.277 C 
ENDBRANCH  30  35
BRANCH  29  37
ATOM     37  O   UNL     1      -5.313  -0.982  -5.107  0.00  0.00    -0.491 OA
ATOM     38  C   UNL     1      -5.200  -2.374  -4.803  0.00  0.00    +0.277 C 
ENDBRANCH  29  37
ENDBRANCH   6  27
TORSDOF 5
