REMARK  Name = ZINC36504294
REMARK  18 active torsions:
REMARK  status: ('A' for Active; 'I' for Inactive)
REMARK    1  A    between atoms: C_1  and  C_2
REMARK    2  A    between atoms: C_5  and  C_9
REMARK    3  A    between atoms: C_6  and  C_8
REMARK    4  A    between atoms: C_9  and  C_11
REMARK    5  A    between atoms: C_9  and  N_22
REMARK    6  A    between atoms: N_13  and  C_14
REMARK    7  A    between atoms: C_14  and  C_15
REMARK    8  A    between atoms: C_14  and  C_16
REMARK    9  A    between atoms: C_14  and  C_17
REMARK   10  A    between atoms: C_17  and  C_18
REMARK   11  A    between atoms: C_18  and  C_19
REMARK   12  A    between atoms: C_18  and  C_20
REMARK   13  A    between atoms: C_18  and  C_21
REMARK   14  A    between atoms: N_22  and  C_23
REMARK   15  A    between atoms: C_23  and  C_24
REMARK   16  A    between atoms: C_29  and  C_31
REMARK   17  A    between atoms: C_31  and  N_32
REMARK   18  A    between atoms: C_33  and  C_35
REMARK                            x       y       z     vdW  Elec       q    Type
REMARK                         _______ _______ _______ _____ _____    ______ ____
ROOT
ATOM      1  C   UNL     1       1.347  -5.548   0.134  0.00  0.00    +0.193 C 
ENDROOT
BRANCH   1   6
ATOM      2  C   UNL     1       3.438  -2.894  -4.555  0.00  0.00    +0.044 C 
ATOM      3  C   UNL     1       2.893  -3.586  -3.332  0.00  0.00    -0.050 A 
ATOM      4  C   UNL     1       3.469  -4.762  -2.889  0.00  0.00    +0.004 A 
ATOM      5  C   UNL     1       2.969  -5.397  -1.767  0.00  0.00    +0.006 A 
ATOM      6  C   UNL     1       1.893  -4.856  -1.089  0.00  0.00    -0.015 A 
ATOM      7  C   UNL     1       1.317  -3.680  -1.532  0.00  0.00    -0.045 A 
ATOM      8  C   UNL     1       1.820  -3.043  -2.651  0.00  0.00    +0.007 A 
ATOM      9  C   UNL     1       0.144  -3.090  -0.792  0.00  0.00    +0.044 C 
ENDBRANCH   1   6
BRANCH   1  10
ATOM     10  C   UNL     1       2.470  -6.242   0.861  0.00  0.00    +0.239 C 
ATOM     11  O   UNL     1       2.729  -7.400   0.613  0.00  0.00    -0.273 OA
ATOM     12  N   UNL     1       3.187  -5.574   1.788  0.00  0.00    -0.308 N 
ATOM     13  H   UNL     1       2.929  -4.675   2.045  0.00  0.00    +0.149 HD
BRANCH  12  14
ATOM     14  C   UNL     1       4.354  -6.207   2.406  0.00  0.00    +0.030 C 
ATOM     15  C   UNL     1       3.927  -7.505   3.094  0.00  0.00    +0.031 C 
ATOM     16  C   UNL     1       5.395  -6.519   1.329  0.00  0.00    +0.031 C 
BRANCH  14  17
ATOM     17  C   UNL     1       4.961  -5.257   3.441  0.00  0.00    +0.031 C 
BRANCH  17  18
ATOM     18  C   UNL     1       4.818  -3.813   2.953  0.00  0.00    -0.036 C 
ATOM     19  C   UNL     1       3.412  -3.303   3.276  0.00  0.00    +0.010 C 
ATOM     20  C   UNL     1       5.854  -2.933   3.656  0.00  0.00    +0.010 C 
ATOM     21  C   UNL     1       5.045  -3.761   1.441  0.00  0.00    +0.010 C 
ENDBRANCH  17  18
ENDBRANCH  14  17
ENDBRANCH  12  14
ENDBRANCH   1  10
BRANCH   1  22
ATOM     22  N   UNL     1       0.344  -6.536  -0.272  0.00  0.00    -0.277 N 
ATOM     23  C   UNL     1      -0.364  -7.200   0.663  0.00  0.00    +0.234 C 
ATOM     24  O   UNL     1      -0.171  -6.979   1.840  0.00  0.00    -0.274 OA
BRANCH  22  25
ATOM     25  C   UNL     1       0.111  -6.802  -1.693  0.00  0.00    +0.183 C 
BRANCH  25  26
ATOM     26  C   UNL     1       1.002  -7.931  -2.146  0.00  0.00    +0.122 A 
ATOM     27  C   UNL     1       0.701  -9.240  -2.093  0.00  0.00    +0.046 A 
ATOM     28  C   UNL     1       1.814  -9.938  -2.616  0.00  0.00    +0.041 A 
ATOM     29  C   UNL     1       2.729  -9.013  -2.956  0.00  0.00    +0.195 A 
ATOM     30  O   UNL     1       2.230  -7.798  -2.675  0.00  0.00    -0.466 OA
ENDBRANCH  25  26
ENDBRANCH  22  25
BRANCH  23  31
ATOM     31  C   UNL     1      -1.396  -8.216   0.246  0.00  0.00    +0.200 C 
BRANCH  31  32
ATOM     32  N   UNL     1      -2.022  -8.793   1.438  0.00  0.00    -0.303 N 
ATOM     33  C   UNL     1      -2.982  -9.731   1.308  0.00  0.00    +0.244 C 
ATOM     34  O   UNL     1      -3.327 -10.098   0.202  0.00  0.00    -0.270 OA
ATOM     35  H   UNL     1      -1.747  -8.500   2.321  0.00  0.00    +0.150 HD
BRANCH  33  36
ATOM     36  C   UNL     1      -3.614 -10.313   2.511  0.00  0.00    +0.037 A 
ATOM     37  C   UNL     1      -3.224  -9.890   3.783  0.00  0.00    +0.013 A 
ATOM     38  C   UNL     1      -3.818 -10.437   4.901  0.00  0.00    +0.001 A 
ATOM     39  C   UNL     1      -4.799 -11.403   4.764  0.00  0.00    +0.000 A 
ATOM     40  C   UNL     1      -5.190 -11.828   3.506  0.00  0.00    +0.001 A 
ATOM     41  C   UNL     1      -4.608 -11.284   2.380  0.00  0.00    +0.013 A 
ENDBRANCH  33  36
ENDBRANCH  31  32
ENDBRANCH  23  31
ENDBRANCH   1  22
TORSDOF 11
