REMARK  Name = ZINC63731201
REMARK  9 active torsions:
REMARK  status: ('A' for Active; 'I' for Inactive)
REMARK    1  A    between atoms: C_1  and  C_2
REMARK    2  A    between atoms: C_2  and  N_3
REMARK    3  A    between atoms: N_3  and  C_4
REMARK    4  A    between atoms: C_6  and  N_21
REMARK    5  A    between atoms: N_8  and  C_14
REMARK    6  A    between atoms: C_14  and  C_15
REMARK    7  A    between atoms: C_22  and  C_24
REMARK    8  A    between atoms: C_24  and  S_25
REMARK    9  A    between atoms: S_25  and  C_26
REMARK                            x       y       z     vdW  Elec       q    Type
REMARK                         _______ _______ _______ _____ _____    ______ ____
ROOT
ATOM      1  N   UNL     1       0.688  -0.476  -1.203  0.00  0.00    -0.286 N 
ATOM      2  C   UNL     1      -0.031  -0.920  -2.253  0.00  0.00    +0.226 C 
ATOM      3  O   UNL     1       0.505  -1.577  -3.121  0.00  0.00    -0.275 OA
ENDROOT
BRANCH   1   4
ATOM      4  C   UNL     1       2.136  -0.692  -1.164  0.00  0.00    +0.199 C 
ATOM      5  C   UNL     1       2.484  -1.642  -0.009  0.00  0.00    +0.173 C 
ATOM      6  N   UNL     1       2.295  -0.900   1.249  0.00  0.00    -0.262 N 
ATOM      7  C   UNL     1       2.884   0.324   1.363  0.00  0.00    +0.330 C 
ATOM      8  O   UNL     1       3.201   0.805   2.579  0.00  0.00    -0.250 OA
ATOM      9  N   UNL     1       3.145   1.040   0.284  0.00  0.00    -0.126 NA
ATOM     10  C   UNL     1       2.837   0.625  -0.941  0.00  0.00    +0.264 C 
ATOM     11  O   UNL     1       3.124   1.316  -1.898  0.00  0.00    -0.271 OA
BRANCH   5  12
ATOM     12  N   UNL     1       3.881  -2.079  -0.127  0.00  0.00    -0.311 NA
ATOM     13  H   UNL     1       4.129  -2.706   0.624  0.00  0.00    +0.120 HD
ATOM     14  H   UNL     1       4.052  -2.506  -1.025  0.00  0.00    +0.120 HD
ENDBRANCH   5  12
BRANCH   6  15
ATOM     15  C   UNL     1       1.499  -1.460   2.344  0.00  0.00    +0.146 C 
BRANCH  15  16
ATOM     16  C   UNL     1       2.391  -2.264   3.254  0.00  0.00    -0.030 A 
ATOM     17  C   UNL     1       2.593  -3.610   3.013  0.00  0.00    +0.005 A 
ATOM     18  C   UNL     1       3.412  -4.346   3.849  0.00  0.00    +0.000 A 
ATOM     19  C   UNL     1       4.029  -3.737   4.925  0.00  0.00    +0.000 A 
ATOM     20  C   UNL     1       3.829  -2.391   5.165  0.00  0.00    +0.000 A 
ATOM     21  C   UNL     1       3.013  -1.653   4.327  0.00  0.00    +0.005 A 
ENDBRANCH  15  16
ENDBRANCH   6  15
ENDBRANCH   1   4
BRANCH   1  23
ATOM     22  C   UNL     1      -0.006   1.723  -0.391  0.00  0.00    +0.024 C 
ATOM     23  C   UNL     1       0.020   0.221  -0.102  0.00  0.00    +0.105 C 
ENDBRANCH   1  23
BRANCH   2  24
ATOM     24  C   UNL     1      -1.500  -0.601  -2.350  0.00  0.00    +0.168 C 
BRANCH  24  25
ATOM     25  S   UNL     1      -2.180  -1.333  -3.864  0.00  0.00    -0.106 S 
BRANCH  25  26
ATOM     26  C   UNL     1      -3.932  -0.863  -3.830  0.00  0.00    +0.236 C 
ATOM     27  N   UNL     1      -4.061   0.597  -3.750  0.00  0.00    -0.355 N 
ATOM     28  C   UNL     1      -4.694   0.873  -2.646  0.00  0.00    +0.061 A 
ATOM     29  C   UNL     1      -5.114   2.137  -2.025  0.00  0.00    +0.027 A 
ATOM     30  C   UNL     1      -5.772   2.113  -0.848  0.00  0.00    +0.002 A 
ATOM     31  C   UNL     1      -6.080   0.917  -0.176  0.00  0.00    +0.002 A 
ATOM     32  C   UNL     1      -5.741  -0.296  -0.658  0.00  0.00    +0.027 A 
ATOM     33  C   UNL     1      -5.020  -0.393  -1.935  0.00  0.00    +0.061 A 
ATOM     34  N   UNL     1      -4.575  -1.403  -2.625  0.00  0.00    -0.355 N 
ATOM     35  H   UNL     1      -3.734   1.239  -4.399  0.00  0.00    +0.162 HD
ATOM     36  H   UNL     1      -4.655  -2.340  -2.388  0.00  0.00    +0.162 HD
ENDBRANCH  25  26
ENDBRANCH  24  25
ENDBRANCH   2  24
TORSDOF 8
