REMARK  Name = ZINC12502740
REMARK  10 active torsions:
REMARK  status: ('A' for Active; 'I' for Inactive)
REMARK    1  A    between atoms: C_4  and  C_7
REMARK    2  A    between atoms: C_7  and  C_8
REMARK    3  A    between atoms: C_7  and  C_14
REMARK    4  A    between atoms: N_16  and  C_17
REMARK    5  A    between atoms: C_17  and  N_19
REMARK    6  A    between atoms: N_19  and  N_20
REMARK    7  A    between atoms: C_21  and  C_23
REMARK    8  A    between atoms: C_23  and  C_24
REMARK    9  A    between atoms: C_24  and  C_25
REMARK   10  A    between atoms: N_27  and  C_28
REMARK                            x       y       z     vdW  Elec       q    Type
REMARK                         _______ _______ _______ _____ _____    ______ ____
ROOT
ATOM      1  C   UNL     1      -0.813  -1.913   2.766  0.00  0.00    +0.153 C 
ATOM      2  S   UNL     1      -1.344  -0.740   3.894  0.00  0.00    -0.017 S 
ENDROOT
BRANCH   1   5
ATOM      3  C   UNL     1      -0.366  -0.224   1.219  0.00  0.00    +0.230 C 
ATOM      4  O   UNL     1      -0.742   0.607   2.018  0.00  0.00    -0.274 OA
ATOM      5  N   UNL     1      -0.381  -1.531   1.549  0.00  0.00    -0.266 N 
ATOM      6  H   UNL     1      -0.080  -2.196   0.910  0.00  0.00    +0.157 HD
BRANCH   3   7
ATOM      7  C   UNL     1       0.118   0.204  -0.143  0.00  0.00    +0.135 C 
BRANCH   7  11
ATOM      8  C   UNL     1      -0.120   4.457  -0.467  0.00  0.00    +0.000 A 
ATOM      9  C   UNL     1       1.111   3.829  -0.500  0.00  0.00    +0.000 A 
ATOM     10  C   UNL     1       1.188   2.453  -0.395  0.00  0.00    +0.005 A 
ATOM     11  C   UNL     1       0.034   1.704  -0.257  0.00  0.00    -0.031 A 
ATOM     12  C   UNL     1      -1.198   2.332  -0.230  0.00  0.00    +0.005 A 
ATOM     13  C   UNL     1      -1.274   3.708  -0.330  0.00  0.00    +0.000 A 
ENDBRANCH   7  11
BRANCH   7  14
ATOM     14  C   UNL     1      -0.745  -0.429  -1.204  0.00  0.00    -0.031 A 
ATOM     15  C   UNL     1      -2.095  -0.617  -0.977  0.00  0.00    +0.005 A 
ATOM     16  C   UNL     1      -2.887  -1.194  -1.952  0.00  0.00    +0.000 A 
ATOM     17  C   UNL     1      -2.326  -1.592  -3.151  0.00  0.00    +0.000 A 
ATOM     18  C   UNL     1      -0.974  -1.410  -3.376  0.00  0.00    +0.000 A 
ATOM     19  C   UNL     1      -0.184  -0.829  -2.403  0.00  0.00    +0.005 A 
ENDBRANCH   7  14
ENDBRANCH   3   7
ENDBRANCH   1   5
BRANCH   1  20
ATOM     20  N   UNL     1      -0.828  -3.220   3.096  0.00  0.00    -0.246 N 
ATOM     21  H   UNL     1      -1.139  -3.495   3.973  0.00  0.00    +0.172 HD
BRANCH  20  22
ATOM     22  N   UNL     1      -0.394  -4.181   2.173  0.00  0.00    -0.235 N 
ATOM     23  C   UNL     1      -0.409  -5.487   2.503  0.00  0.00    +0.230 C 
ATOM     24  O   UNL     1      -0.798  -5.832   3.599  0.00  0.00    -0.274 OA
ATOM     25  H   UNL     1      -0.083  -3.905   1.297  0.00  0.00    +0.173 HD
BRANCH  23  26
ATOM     26  C   UNL     1       0.058  -6.520   1.510  0.00  0.00    +0.106 C 
BRANCH  26  27
ATOM     27  C   UNL     1      -0.060  -7.914   2.131  0.00  0.00    +0.105 C 
BRANCH  27  28
ATOM     28  C   UNL     1       0.407  -8.947   1.138  0.00  0.00    +0.218 C 
ATOM     29  O   UNL     1       0.796  -8.602   0.042  0.00  0.00    -0.275 OA
ATOM     30  N   UNL     1       0.392 -10.254   1.468  0.00  0.00    -0.284 N 
ATOM     31  H   UNL     1       0.005 -10.537   2.311  0.00  0.00    +0.155 HD
BRANCH  30  32
ATOM     32  C   UNL     1       0.935 -11.202   0.593  0.00  0.00    +0.052 A 
ATOM     33  C   UNL     1       1.912 -10.828  -0.320  0.00  0.00    +0.025 A 
ATOM     34  C   UNL     1       2.450 -11.768  -1.177  0.00  0.00    +0.002 A 
ATOM     35  C   UNL     1       2.009 -13.078  -1.135  0.00  0.00    +0.002 A 
ATOM     36  C   UNL     1       1.032 -13.454  -0.232  0.00  0.00    +0.022 A 
ATOM     37  C   UNL     1       0.494 -12.519   0.633  0.00  0.00    +0.062 A 
ATOM     38 CL   UNL     1      -0.733 -12.991   1.768  0.00  0.00    -0.082 Cl
ENDBRANCH  30  32
ENDBRANCH  27  28
ENDBRANCH  26  27
ENDBRANCH  23  26
ENDBRANCH  20  22
ENDBRANCH   1  20
TORSDOF 10
