REMARK  Name = ZINC02121598
REMARK  8 active torsions:
REMARK  status: ('A' for Active; 'I' for Inactive)
REMARK    1  A    between atoms: C_1  and  N_62
REMARK    2  A    between atoms: C_8  and  O_30
REMARK    3  A    between atoms: C_10  and  C_12
REMARK    4  A    between atoms: N_19  and  C_22
REMARK    5  A    between atoms: C_20  and  O_21
REMARK    6  A    between atoms: C_22  and  C_23
REMARK    7  A    between atoms: C_23  and  C_24
REMARK    8  A    between atoms: O_30  and  C_31
REMARK                            x       y       z     vdW  Elec       q    Type
REMARK                         _______ _______ _______ _____ _____    ______ ____
ROOT
ATOM      1  C   UNL     1      -1.202   5.440  -6.400  0.00  0.00    +0.067 A 
ATOM      2  C   UNL     1      -1.752   6.722  -6.219  0.00  0.00    +0.258 A 
ATOM      3  O   UNL     1      -2.240   7.319  -7.163  0.00  0.00    -0.267 OA
ATOM      4  N   UNL     1      -1.736   7.285  -4.995  0.00  0.00    -0.302 N 
ATOM      5  H   UNL     1      -2.114   8.169  -4.867  0.00  0.00    +0.171 HD
ATOM      6  C   UNL     1      -1.198   6.630  -3.950  0.00  0.00    +0.163 A 
ATOM      7  S   UNL     1      -1.191   7.369  -2.405  0.00  0.00    -0.013 S 
ATOM      8  N   UNL     1      -0.667   5.403  -4.100  0.00  0.00    -0.292 N 
ATOM      9  C   UNL     1      -0.658   4.795  -5.329  0.00  0.00    +0.202 A 
ENDROOT
BRANCH   1  19
ATOM     10  C   UNL     1       0.900   5.816  -8.354  0.00  0.00    -0.095 C 
ATOM     11  C   UNL     1      -0.655   5.130 -10.081  0.00  0.00    -0.073 C 
ATOM     12  C   UNL     1      -2.100   5.332 -10.535  0.00  0.00    +0.017 C 
ATOM     13  C   UNL     1      -3.048   4.809  -9.486  0.00  0.00    -0.040 A 
ATOM     14  C   UNL     1      -4.368   4.578  -9.845  0.00  0.00    +0.053 A 
ATOM     15  C   UNL     1      -5.276   4.101  -8.916  0.00  0.00    +0.170 A 
ATOM     16  C   UNL     1      -4.862   3.852  -7.612  0.00  0.00    +0.208 A 
ATOM     17  C   UNL     1      -3.541   4.082  -7.256  0.00  0.00    +0.167 A 
ATOM     18  C   UNL     1      -2.632   4.560  -8.195  0.00  0.00    -0.008 A 
ATOM     19  C   UNL     1      -1.208   4.791  -7.760  0.00  0.00    +0.007 C 
ATOM     20  O   UNL     1      -5.930   3.396  -6.893  0.00  0.00    -0.449 OA
ATOM     21  C   UNL     1      -7.093   3.755  -7.663  0.00  0.00    +0.467 C 
ATOM     22  O   UNL     1      -6.604   3.801  -9.017  0.00  0.00    -0.452 OA
ATOM     23  N   UNL     1      -0.528   5.681  -8.716  0.00  0.00    +0.386 N 
ATOM     24  H   UNL     1      -0.969   6.607  -8.685  0.00  0.00    -0.081 HD
BRANCH  17  25
ATOM     25  O   UNL     1      -3.132   3.840  -5.982  0.00  0.00    -0.491 OA
ATOM     26  C   UNL     1      -2.773   2.494  -5.661  0.00  0.00    +0.277 C 
ENDBRANCH  17  25
ENDBRANCH   1  19
BRANCH   9  27
ATOM     27  O   UNL     1      -0.120   3.566  -5.477  0.00  0.00    -0.493 OA
ATOM     28  H   UNL     1       0.236   3.192  -4.659  0.00  0.00    +0.294 HD
ENDBRANCH   9  27
BRANCH   8  29
ATOM     29  C   UNL     1      -0.088   4.714  -2.943  0.00  0.00    +0.131 C 
BRANCH  29  30
ATOM     30  C   UNL     1      -1.171   3.883  -2.251  0.00  0.00    +0.052 C 
BRANCH  30  31
ATOM     31  C   UNL     1      -0.576   3.175  -1.062  0.00  0.00    -0.072 C 
ATOM     32  C   UNL     1      -0.685   3.739   0.098  0.00  0.00    -0.028 C 
ATOM     33  C   UNL     1      -0.135   3.161   1.369  0.00  0.00    +0.027 C 
ATOM     34  C   UNL     1       0.178   1.675   1.185  0.00  0.00    +0.004 C 
ATOM     35  C   UNL     1       0.997   1.507  -0.101  0.00  0.00    +0.005 C 
ATOM     36  C   UNL     1       0.108   1.859  -1.296  0.00  0.00    +0.030 C 
ENDBRANCH  30  31
ENDBRANCH  29  30
ENDBRANCH   8  29
TORSDOF 6
