REMARK  Name = ZINC27829249
REMARK  5 active torsions:
REMARK  status: ('A' for Active; 'I' for Inactive)
REMARK    1  A    between atoms: C_1  and  C_2
REMARK    2  A    between atoms: C_9  and  C_21
REMARK    3  A    between atoms: N_11  and  N_12
REMARK    4  A    between atoms: N_12  and  C_13
REMARK    5  A    between atoms: N_23  and  C_24
REMARK                            x       y       z     vdW  Elec       q    Type
REMARK                         _______ _______ _______ _____ _____    ______ ____
ROOT
ATOM      1  C   UNL     1      -7.455   1.484   0.050  0.00  0.00    +0.044 C 
ATOM      2  C   UNL     1      -6.114   2.158  -0.086  0.00  0.00    -0.050 A 
ATOM      3  C   UNL     1      -6.043   3.539  -0.177  0.00  0.00    +0.007 A 
ATOM      4  C   UNL     1      -4.821   4.174  -0.303  0.00  0.00    +0.047 A 
ATOM      5  C   UNL     1      -3.655   3.428  -0.340  0.00  0.00    +0.137 A 
ATOM      6  C   UNL     1      -3.723   2.026  -0.244  0.00  0.00    +0.018 A 
ATOM      7  C   UNL     1      -4.965   1.397  -0.118  0.00  0.00    +0.015 A 
ATOM      8  C   UNL     1      -2.484   1.240  -0.281  0.00  0.00    +0.030 A 
ATOM      9  C   UNL     1      -1.296   1.916  -0.126  0.00  0.00    +0.099 A 
ATOM     10  C   UNL     1      -1.371   3.384   0.053  0.00  0.00    +0.224 A 
ATOM     11  N   UNL     1      -0.435   4.032   0.690  0.00  0.00    -0.276 N 
ATOM     12  O   UNL     1      -2.449   4.037  -0.468  0.00  0.00    -0.437 OA
ATOM     13  H   UNL     1       0.427   3.489   1.104  0.00  0.00    +0.187 HD
ENDROOT
BRANCH   9  14
ATOM     14  C   UNL     1      -0.004   1.210  -0.142  0.00  0.00    +0.253 C 
ATOM     15  O   UNL     1       0.027   0.003  -0.291  0.00  0.00    -0.270 OA
ATOM     16  N   UNL     1       1.143   1.902   0.001  0.00  0.00    -0.281 N 
ATOM     17  H   UNL     1       1.121   3.001   0.048  0.00  0.00    +0.155 HD
BRANCH  16  18
ATOM     18  C   UNL     1       2.359   1.225   0.091  0.00  0.00    +0.037 A 
ATOM     19  C   UNL     1       2.436  -0.030   0.694  0.00  0.00    +0.043 A 
ATOM     20  C   UNL     1       3.656  -0.669   0.759  0.00  0.00    +0.112 A 
ATOM     21  N   UNL     1       4.743  -0.103   0.269  0.00  0.00    -0.263 NA
ATOM     22  C   UNL     1       4.713   1.085  -0.305  0.00  0.00    +0.112 A 
ATOM     23  C   UNL     1       3.530   1.787  -0.414  0.00  0.00    +0.043 A 
ENDBRANCH  16  18
ENDBRANCH   9  14
BRANCH  11  24
ATOM     24  N   UNL     1      -0.527   5.422   0.847  0.00  0.00    -0.258 N 
ATOM     25  H   UNL     1      -1.389   5.966   0.432  0.00  0.00    +0.172 HD
BRANCH  24  26
ATOM     26  C   UNL     1       0.472   6.114   1.527  0.00  0.00    +0.046 A 
ATOM     27  C   UNL     1       1.560   5.428   2.056  0.00  0.00    +0.026 A 
ATOM     28  C   UNL     1       2.551   6.118   2.724  0.00  0.00    +0.017 A 
ATOM     29  C   UNL     1       2.458   7.490   2.877  0.00  0.00    +0.018 A 
ATOM     30  C   UNL     1       1.375   8.176   2.357  0.00  0.00    +0.017 A 
ATOM     31  C   UNL     1       0.382   7.493   1.683  0.00  0.00    +0.026 A 
ATOM     32 BR   UNL     1       3.816   8.430   3.799  0.00  0.00    -0.050 Br
ENDBRANCH  24  26
ENDBRANCH  11  24
TORSDOF 4
