REMARK  Name = ZINC06631485
REMARK  13 active torsions:
REMARK  status: ('A' for Active; 'I' for Inactive)
REMARK    1  A    between atoms: C_1  and  C_2
REMARK    2  A    between atoms: C_2  and  O_3
REMARK    3  A    between atoms: O_3  and  C_4
REMARK    4  A    between atoms: C_9  and  N_10
REMARK    5  A    between atoms: N_10  and  C_11
REMARK    6  A    between atoms: C_11  and  C_13
REMARK    7  A    between atoms: C_11  and  C_19
REMARK    8  A    between atoms: C_16  and  C_18
REMARK    9  A    between atoms: N_21  and  C_22
REMARK   10  A    between atoms: C_22  and  C_23
REMARK   11  A    between atoms: C_29  and  C_31
REMARK   12  A    between atoms: C_32  and  N_39
REMARK   13  A    between atoms: C_33  and  C_36
REMARK                            x       y       z     vdW  Elec       q    Type
REMARK                         _______ _______ _______ _____ _____    ______ ____
ROOT
ATOM      1  N   UNL     1       2.351   1.097   0.014  0.00  0.00    -0.244 N 
ATOM      2  C   UNL     1       2.860   0.736  -1.181  0.00  0.00    +0.262 C 
ATOM      3  O   UNL     1       3.948   0.195  -1.240  0.00  0.00    -0.269 OA
ENDROOT
BRANCH   1   9
ATOM      4  C   UNL     1       1.005   3.109   0.015  0.00  0.00    +0.142 A 
ATOM      5  C   UNL     1      -0.237   3.720   0.083  0.00  0.00    +0.047 A 
ATOM      6  C   UNL     1      -1.379   2.952   0.217  0.00  0.00    +0.004 A 
ATOM      7  C   UNL     1      -1.287   1.574   0.279  0.00  0.00    +0.002 A 
ATOM      8  C   UNL     1      -0.052   0.957   0.217  0.00  0.00    +0.027 A 
ATOM      9  C   UNL     1       1.099   1.720   0.083  0.00  0.00    +0.080 A 
BRANCH   4  10
ATOM     10  O   UNL     1       2.129   3.862  -0.117  0.00  0.00    -0.490 OA
BRANCH  10  12
ATOM     11  C   UNL     1       3.322   5.954  -0.327  0.00  0.00    +0.048 C 
ATOM     12  C   UNL     1       1.956   5.279  -0.179  0.00  0.00    +0.226 C 
ENDBRANCH  10  12
ENDBRANCH   4  10
ENDBRANCH   1   9
BRANCH   2  13
ATOM     13  C   UNL     1       2.103   0.995  -2.407  0.00  0.00    +0.116 A 
ATOM     14  C   UNL     1       2.438   0.708  -3.732  0.00  0.00    +0.076 A 
ATOM     15  C   UNL     1       1.451   1.109  -4.631  0.00  0.00    +0.155 A 
ATOM     16  N   UNL     1       0.362   1.687  -4.176  0.00  0.00    -0.203 NA
ATOM     17  S   UNL     1       0.505   1.755  -2.608  0.00  0.00    +0.019 S 
BRANCH  15  18
ATOM     18  C   UNL     1       1.627   0.888  -6.079  0.00  0.00    +0.262 C 
ATOM     19  O   UNL     1       2.638   0.352  -6.493  0.00  0.00    -0.269 OA
ATOM     20  N   UNL     1       0.669   1.279  -6.942  0.00  0.00    -0.324 N 
ATOM     21  H   UNL     1      -0.136   1.706  -6.611  0.00  0.00    +0.145 HD
ATOM     22  H   UNL     1       0.785   1.133  -7.894  0.00  0.00    +0.145 HD
ENDBRANCH  15  18
BRANCH  14  23
ATOM     23  N   UNL     1       3.622   0.090  -4.111  0.00  0.00    -0.355 N 
ATOM     24  H   UNL     1       4.272  -0.167  -3.438  0.00  0.00    +0.142 HD
ATOM     25  H   UNL     1       3.800  -0.084  -5.048  0.00  0.00    +0.142 HD
ENDBRANCH  14  23
ENDBRANCH   2  13
BRANCH   1  26
ATOM     26  C   UNL     1       3.108   0.838   1.241  0.00  0.00    +0.233 C 
BRANCH  26  27
ATOM     27  C   UNL     1       4.414   1.589   1.194  0.00  0.00    +0.135 A 
ATOM     28  C   UNL     1       4.989   2.233   2.225  0.00  0.00    +0.047 A 
ATOM     29  C   UNL     1       6.194   2.791   1.739  0.00  0.00    +0.045 A 
ATOM     30  C   UNL     1       6.279   2.461   0.438  0.00  0.00    +0.102 A 
ATOM     31  O   UNL     1       5.198   1.733   0.113  0.00  0.00    -0.462 OA
ATOM     32  C   UNL     1       7.397   2.845  -0.497  0.00  0.00    +0.086 C 
ENDBRANCH  26  27
BRANCH  26  33
ATOM     33  C   UNL     1       3.382  -0.639   1.359  0.00  0.00    +0.242 C 
ATOM     34  O   UNL     1       3.106  -1.383   0.442  0.00  0.00    -0.273 OA
ATOM     35  N   UNL     1       3.935  -1.134   2.485  0.00  0.00    -0.311 N 
ATOM     36  H   UNL     1       4.157  -0.539   3.218  0.00  0.00    +0.149 HD
BRANCH  35  37
ATOM     37  C   UNL     1       4.202  -2.570   2.600  0.00  0.00    +0.135 C 
BRANCH  37  38
ATOM     38  C   UNL     1       4.826  -2.865   3.965  0.00  0.00    +0.135 C 
ATOM     39  C   UNL     1       5.195  -4.361   4.075  0.00  0.00    +0.035 C 
ATOM     40  C   UNL     1       4.877  -4.719   5.544  0.00  0.00    +0.031 C 
ATOM     41  C   UNL     1       4.353  -3.397   6.148  0.00  0.00    +0.160 C 
ATOM     42  O   UNL     1       3.863  -2.642   5.017  0.00  0.00    -0.375 OA
ENDBRANCH  37  38
ENDBRANCH  35  37
ENDBRANCH  26  33
ENDBRANCH   1  26
TORSDOF 11
