REMARK  Name = ZINC44784386
REMARK  5 active torsions:
REMARK  status: ('A' for Active; 'I' for Inactive)
REMARK    1  A    between atoms: C_1  and  C_2
REMARK    2  A    between atoms: C_8  and  N_10
REMARK    3  A    between atoms: C_11  and  C_13
REMARK    4  A    between atoms: C_13  and  C_18
REMARK    5  A    between atoms: N_19  and  O_20
REMARK                            x       y       z     vdW  Elec       q    Type
REMARK                         _______ _______ _______ _____ _____    ______ ____
ROOT
ATOM      1  C   UNL     1       4.245   0.542   2.370  0.00  0.00    +0.105 C 
ATOM      2  C   UNL     1       4.840   0.434   3.789  0.00  0.00    +0.024 C 
ATOM      3  C   UNL     1       5.521  -0.957   3.811  0.00  0.00    +0.001 C 
ATOM      4  C   UNL     1       6.121  -1.066   2.387  0.00  0.00    +0.001 C 
ATOM      5  C   UNL     1       5.060  -0.412   1.478  0.00  0.00    +0.024 C 
ENDROOT
BRANCH   1   6
ATOM      6  C   UNL     1       4.370   1.955   1.863  0.00  0.00    +0.147 C 
ATOM      7  N   UNL     1       4.991   2.191   0.755  0.00  0.00    -0.076 NA
ATOM      8  N   UNL     1       3.822   2.995   2.580  0.00  0.00    -0.343 N 
ATOM      9  H   UNL     1       3.294   2.812   3.373  0.00  0.00    +0.144 HD
ATOM     10  H   UNL     1       3.965   3.911   2.293  0.00  0.00    +0.144 HD
BRANCH   7  11
ATOM     11  O   UNL     1       5.109   3.520   0.278  0.00  0.00    -0.408 OA
ATOM     12  H   UNL     1       5.589   3.597  -0.557  0.00  0.00    +0.328 HD
ENDBRANCH   7  11
ENDBRANCH   1   6
BRANCH   1  14
ATOM     13  N   UNL     1       2.122  -0.007   1.225  0.00  0.00    -0.311 N 
ATOM     14  C   UNL     1       2.797   0.125   2.384  0.00  0.00    +0.227 C 
ATOM     15  O   UNL     1       2.239  -0.092   3.438  0.00  0.00    -0.275 OA
ATOM     16  H   UNL     1       2.546   0.238   0.387  0.00  0.00    +0.149 HD
BRANCH  13  23
ATOM     17  C   UNL     1      -0.015   1.517   0.001  0.00  0.00    +0.009 C 
ATOM     18  C   UNL     1       0.012  -0.013  -0.011  0.00  0.00    +0.006 C 
ATOM     19  C   UNL     1       0.733  -0.501  -1.268  0.00  0.00    +0.005 C 
ATOM     20  C   UNL     1       0.760  -2.030  -1.280  0.00  0.00    +0.000 C 
ATOM     21  C   UNL     1       1.498  -2.537  -0.040  0.00  0.00    +0.002 C 
ATOM     22  C   UNL     1       0.777  -2.049   1.218  0.00  0.00    +0.022 C 
ATOM     23  C   UNL     1       0.750  -0.519   1.230  0.00  0.00    +0.076 C 
ENDBRANCH  13  23
ENDBRANCH   1  14
TORSDOF 4
