REMARK  Name = ZINC28535017
REMARK  7 active torsions:
REMARK  status: ('A' for Active; 'I' for Inactive)
REMARK    1  A    between atoms: C_1  and  C_2
REMARK    2  A    between atoms: C_4  and  C_25
REMARK    3  A    between atoms: C_6  and  C_8
REMARK    4  A    between atoms: C_8  and  C_10
REMARK    5  A    between atoms: C_10  and  N_11
REMARK    6  A    between atoms: N_14  and  N_18
REMARK    7  A    between atoms: N_18  and  C_19
REMARK                            x       y       z     vdW  Elec       q    Type
REMARK                         _______ _______ _______ _____ _____    ______ ____
ROOT
ATOM      1  N   UNL     1      -0.893   2.765  -1.133  0.00  0.00    -0.230 N 
ATOM      2  C   UNL     1       0.357   2.306  -1.353  0.00  0.00    +0.197 A 
ATOM      3  S   UNL     1       0.956   1.666  -2.823  0.00  0.00    -0.010 S 
ATOM      4  N   UNL     1       1.049   2.447  -0.205  0.00  0.00    -0.206 N 
ATOM      5  C   UNL     1       0.214   2.997   0.740  0.00  0.00    +0.231 A 
ATOM      6  N   UNL     1      -0.954   3.191   0.201  0.00  0.00    -0.133 NA
ATOM      7  N   UNL     1       0.560   3.295   2.049  0.00  0.00    -0.326 N 
ATOM      8  H   UNL     1      -0.185   3.736   2.728  0.00  0.00    +0.145 HD
ATOM      9  H   UNL     1       1.579   3.091   2.409  0.00  0.00    +0.145 HD
ENDROOT
BRANCH   4  10
ATOM     10  N   UNL     1       2.390   2.094  -0.007  0.00  0.00    -0.249 N 
ATOM     11  H   UNL     1       3.185   2.837  -0.171  0.00  0.00    +0.173 HD
BRANCH  10  12
ATOM     12  C   UNL     1       2.718   0.803   0.396  0.00  0.00    +0.050 A 
ATOM     13  C   UNL     1       1.723  -0.118   0.724  0.00  0.00    +0.042 A 
ATOM     14  C   UNL     1       2.090  -1.389   1.115  0.00  0.00    +0.084 A 
ATOM     15  N   UNL     1       3.361  -1.734   1.190  0.00  0.00    -0.367 N 
ATOM     16  C   UNL     1       4.332  -0.889   0.893  0.00  0.00    +0.084 A 
ATOM     17  C   UNL     1       4.050   0.398   0.488  0.00  0.00    +0.042 A 
ATOM     18  H   UNL     1       3.638  -2.750   1.507  0.00  0.00    +0.165 HD
ENDBRANCH  10  12
ENDBRANCH   4  10
BRANCH   1  19
ATOM     19  C   UNL     1      -1.985   2.808  -2.109  0.00  0.00    +0.225 C 
BRANCH  19  20
ATOM     20  C   UNL     1      -2.767   1.521  -2.043  0.00  0.00    +0.184 C 
ATOM     21  O   UNL     1      -2.445   0.655  -1.259  0.00  0.00    -0.290 OA
BRANCH  20  27
ATOM     22  C   UNL     1      -5.788   3.188  -5.643  0.00  0.00    +0.044 C 
ATOM     23  C   UNL     1      -5.383   2.115  -4.666  0.00  0.00    -0.050 A 
ATOM     24  C   UNL     1      -6.099   0.932  -4.602  0.00  0.00    +0.006 A 
ATOM     25  C   UNL     1      -5.734  -0.059  -3.708  0.00  0.00    -0.050 A 
ATOM     26  C   UNL     1      -4.652   0.125  -2.873  0.00  0.00    +0.014 A 
ATOM     27  C   UNL     1      -3.923   1.317  -2.931  0.00  0.00    +0.020 A 
ATOM     28  C   UNL     1      -4.302   2.317  -3.833  0.00  0.00    +0.014 A 
ATOM     29  C   UNL     1      -6.520  -1.343  -3.648  0.00  0.00    +0.044 C 
ENDBRANCH  20  27
ENDBRANCH  19  20
ENDBRANCH   1  19
TORSDOF 5
