REMARK  Name = ZINC09460288
REMARK  7 active torsions:
REMARK  status: ('A' for Active; 'I' for Inactive)
REMARK    1  A    between atoms: C_1  and  C_2
REMARK    2  A    between atoms: C_2  and  C_26
REMARK    3  A    between atoms: N_5  and  C_9
REMARK    4  A    between atoms: C_9  and  C_10
REMARK    5  A    between atoms: C_17  and  C_18
REMARK    6  A    between atoms: C_17  and  N_66
REMARK    7  A    between atoms: C_19  and  C_20
REMARK                            x       y       z     vdW  Elec       q    Type
REMARK                         _______ _______ _______ _____ _____    ______ ____
ROOT
ATOM      1  C   UNL     1       1.410   5.172   8.982  0.00  0.00    +0.047 C 
ATOM      2  C   UNL     1       0.591   6.103   8.085  0.00  0.00    +0.135 C 
ATOM      3  C   UNL     1       0.705   5.680   6.634  0.00  0.00    +0.251 C 
ATOM      4  O   UNL     1       1.712   5.632   5.961  0.00  0.00    -0.272 OA
ATOM      5  N   UNL     1      -0.548   5.369   6.246  0.00  0.00    -0.215 N 
ATOM      6  C   UNL     1      -1.429   5.540   7.239  0.00  0.00    +0.310 C 
ATOM      7  O   UNL     1      -2.620   5.327   7.129  0.00  0.00    -0.252 OA
ATOM      8  N   UNL     1      -0.847   5.968   8.374  0.00  0.00    -0.281 N 
ATOM      9  H   UNL     1      -1.289   6.155   9.216  0.00  0.00    +0.152 HD
ENDROOT
BRANCH   2  10
ATOM     10  C   UNL     1       1.039   7.532   8.257  0.00  0.00    -0.015 A 
ATOM     11  C   UNL     1       2.011   8.054   7.406  0.00  0.00    +0.007 A 
ATOM     12  C   UNL     1       2.437   9.340   7.535  0.00  0.00    +0.009 A 
ATOM     13  C   UNL     1       1.890  10.156   8.540  0.00  0.00    -0.018 A 
ATOM     14  C   UNL     1       2.304  11.489   8.703  0.00  0.00    +0.008 A 
ATOM     15  C   UNL     1       1.753  12.250   9.687  0.00  0.00    +0.001 A 
ATOM     16  C   UNL     1       0.781  11.728  10.538  0.00  0.00    +0.001 A 
ATOM     17  C   UNL     1       0.355  10.442  10.410  0.00  0.00    +0.008 A 
ATOM     18  C   UNL     1       0.902   9.625   9.405  0.00  0.00    -0.018 A 
ATOM     19  C   UNL     1       0.483   8.294   9.238  0.00  0.00    +0.014 A 
ENDBRANCH   2  10
BRANCH   5  20
ATOM     20  C   UNL     1      -0.903   4.907   4.902  0.00  0.00    +0.213 C 
BRANCH  20  21
ATOM     21  C   UNL     1      -0.817   3.404   4.848  0.00  0.00    +0.233 C 
ATOM     22  O   UNL     1      -0.491   2.779   5.835  0.00  0.00    -0.274 OA
ATOM     23  N   UNL     1      -1.101   2.753   3.703  0.00  0.00    -0.304 N 
ATOM     24  C   UNL     1      -1.023   1.286   3.629  0.00  0.00    +0.089 C 
ATOM     25  C   UNL     1      -0.165   0.904   2.418  0.00  0.00    -0.059 C 
ATOM     26  C   UNL     1      -0.622   3.022   1.328  0.00  0.00    -0.059 C 
ATOM     27  C   UNL     1      -1.499   3.490   2.494  0.00  0.00    +0.089 C 
ATOM     28  N   UNL     1      -0.730   1.552   1.213  0.00  0.00    +0.384 N 
ATOM     29  H   UNL     1      -1.720   1.296   1.131  0.00  0.00    -0.081 HD
BRANCH  28  30
ATOM     30  C   UNL     1      -0.013   1.086   0.008  0.00  0.00    -0.051 C 
BRANCH  30  31
ATOM     31  C   UNL     1      -0.742   1.585  -1.213  0.00  0.00    -0.045 C 
ATOM     32  C   UNL     1      -0.090   2.277  -2.137  0.00  0.00    +0.002 C 
BRANCH  32  33
ATOM     33  C   UNL     1      -0.805   2.767  -3.334  0.00  0.00    -0.025 A 
ATOM     34  C   UNL     1      -2.164   2.497  -3.498  0.00  0.00    +0.008 A 
ATOM     35  C   UNL     1      -2.827   2.962  -4.615  0.00  0.00    +0.001 A 
ATOM     36  C   UNL     1      -2.144   3.684  -5.578  0.00  0.00    +0.000 A 
ATOM     37  C   UNL     1      -0.795   3.950  -5.424  0.00  0.00    +0.001 A 
ATOM     38  C   UNL     1      -0.122   3.496  -4.309  0.00  0.00    +0.008 A 
ENDBRANCH  32  33
ENDBRANCH  30  31
ENDBRANCH  28  30
ENDBRANCH  20  21
ENDBRANCH   5  20
TORSDOF 6
