REMARK  Name = ZINC12440743
REMARK  8 active torsions:
REMARK  status: ('A' for Active; 'I' for Inactive)
REMARK    1  A    between atoms: C_1  and  C_2
REMARK    2  A    between atoms: C_6  and  C_8
REMARK    3  A    between atoms: C_8  and  C_9
REMARK    4  A    between atoms: C_9  and  N_49
REMARK    5  A    between atoms: C_10  and  C_11
REMARK    6  A    between atoms: C_10  and  N_49
REMARK    7  A    between atoms: C_16  and  C_17
REMARK    8  A    between atoms: C_20  and  C_23
REMARK                            x       y       z     vdW  Elec       q    Type
REMARK                         _______ _______ _______ _____ _____    ______ ____
ROOT
ATOM      1  C   UNL     1       6.479  -2.216   0.586  0.00  0.00    -0.019 A 
ATOM      2  C   UNL     1       7.766  -2.535   0.331  0.00  0.00    +0.107 A 
ATOM      3  N   UNL     1       8.292  -1.562  -0.444  0.00  0.00    -0.284 N 
ATOM      4  H   UNL     1       9.230  -1.528  -0.788  0.00  0.00    +0.188 HD
ATOM      5  N   UNL     1       7.294  -0.608  -0.683  0.00  0.00    -0.174 NA
ATOM      6  C   UNL     1       6.201  -0.995  -0.059  0.00  0.00    +0.094 A 
ENDROOT
BRANCH   6   7
ATOM      7  C   UNL     1       4.904  -0.275  -0.044  0.00  0.00    +0.002 A 
ATOM      8  C   UNL     1       4.881   1.119  -0.037  0.00  0.00    +0.010 A 
ATOM      9  C   UNL     1       3.676   1.788  -0.023  0.00  0.00    +0.009 A 
ATOM     10  C   UNL     1       2.481   1.071  -0.015  0.00  0.00    -0.018 A 
ATOM     11  C   UNL     1       2.504  -0.324  -0.017  0.00  0.00    +0.009 A 
ATOM     12  C   UNL     1       3.709  -0.992  -0.037  0.00  0.00    +0.010 A 
BRANCH  10  13
ATOM     13  C   UNL     1       1.184   1.790   0.000  0.00  0.00    -0.018 A 
ATOM     14  C   UNL     1      -0.013   1.076   0.008  0.00  0.00    +0.008 A 
ATOM     15  C   UNL     1      -1.216   1.751   0.017  0.00  0.00    +0.001 A 
ATOM     16  C   UNL     1      -1.236   3.134   0.031  0.00  0.00    +0.000 A 
ATOM     17  C   UNL     1      -0.052   3.848   0.023  0.00  0.00    +0.001 A 
ATOM     18  C   UNL     1       1.158   3.184   0.008  0.00  0.00    +0.008 A 
ENDBRANCH  10  13
ENDBRANCH   6   7
BRANCH   1  19
ATOM     19  C   UNL     1       5.512  -3.022   1.414  0.00  0.00    -0.043 C 
BRANCH  19  20
ATOM     20  N   UNL     1       4.637  -3.798   0.515  0.00  0.00    +0.382 N 
ATOM     21  H   UNL     1       4.120  -3.154  -0.095  0.00  0.00    -0.085 HD
ATOM     22  H   UNL     1       5.212  -4.426  -0.059  0.00  0.00    -0.085 HD
BRANCH  20  23
ATOM     23  C   UNL     1       3.678  -4.599   1.300  0.00  0.00    -0.074 C 
BRANCH  23  24
ATOM     24  C   UNL     1       2.785  -5.392   0.344  0.00  0.00    +0.055 C 
BRANCH  24  30
ATOM     25  C   UNL     1       0.899  -8.646   3.655  0.00  0.00    +0.067 C 
ATOM     26  C   UNL     1       0.982  -7.612   2.561  0.00  0.00    +0.056 A 
ATOM     27  C   UNL     1      -0.060  -7.072   1.901  0.00  0.00    +0.107 A 
ATOM     28  N   UNL     1       0.459  -6.180   1.002  0.00  0.00    -0.348 N 
ATOM     29  H   UNL     1      -0.059  -5.611   0.364  0.00  0.00    +0.166 HD
ATOM     30  C   UNL     1       1.802  -6.213   1.138  0.00  0.00    +0.106 A 
ATOM     31  N   UNL     1       2.108  -7.069   2.074  0.00  0.00    -0.238 NA
ENDBRANCH  24  30
ENDBRANCH  23  24
ENDBRANCH  20  23
ENDBRANCH  19  20
ENDBRANCH   1  19
TORSDOF 7
