REMARK  Name = ZINC13623566
REMARK  10 active torsions:
REMARK  status: ('A' for Active; 'I' for Inactive)
REMARK    1  A    between atoms: C_1  and  C_2
REMARK    2  A    between atoms: C_2  and  O_3
REMARK    3  A    between atoms: O_3  and  C_4
REMARK    4  A    between atoms: C_7  and  C_11
REMARK    5  A    between atoms: N_13  and  C_14
REMARK    6  A    between atoms: C_14  and  N_16
REMARK    7  A    between atoms: N_16  and  N_17
REMARK    8  A    between atoms: C_18  and  C_20
REMARK    9  A    between atoms: N_25  and  C_27
REMARK   10  A    between atoms: C_27  and  C_28
REMARK                            x       y       z     vdW  Elec       q    Type
REMARK                         _______ _______ _______ _____ _____    ______ ____
ROOT
ATOM      1  N   UNL     1      -2.236  -6.978  -0.016  0.00  0.00    -0.246 N 
ATOM      2  H   UNL     1      -2.222  -7.948  -0.022  0.00  0.00    +0.172 HD
ENDROOT
BRANCH   1   3
ATOM      3  N   UNL     1      -3.458  -6.295  -0.000  0.00  0.00    -0.235 N 
ATOM      4  C   UNL     1      -4.616  -6.985   0.007  0.00  0.00    +0.234 C 
ATOM      5  O   UNL     1      -4.599  -8.198  -0.000  0.00  0.00    -0.274 OA
ATOM      6  H   UNL     1      -3.472  -5.325   0.006  0.00  0.00    +0.173 HD
BRANCH   4   7
ATOM      7  C   UNL     1      -5.932  -6.250   0.025  0.00  0.00    +0.102 C 
ATOM      8  C   UNL     1      -6.133  -5.508   1.366  0.00  0.00    +0.110 C 
ATOM      9  C   UNL     1      -7.612  -5.650   1.650  0.00  0.00    +0.217 C 
ATOM     10  O   UNL     1      -8.233  -4.984   2.451  0.00  0.00    -0.276 OA
ATOM     11  N   UNL     1      -8.139  -6.622   0.885  0.00  0.00    -0.296 N 
ATOM     12  C   UNL     1      -7.118  -7.240   0.031  0.00  0.00    +0.121 C 
BRANCH  11  13
ATOM     13  C   UNL     1      -9.550  -7.014   0.902  0.00  0.00    +0.142 C 
BRANCH  13  14
ATOM     14  C   UNL     1      -9.758  -8.101   1.926  0.00  0.00    -0.030 A 
ATOM     15  C   UNL     1      -9.638  -9.428   1.559  0.00  0.00    +0.005 A 
ATOM     16  C   UNL     1      -9.824 -10.424   2.499  0.00  0.00    +0.000 A 
ATOM     17  C   UNL     1     -10.139 -10.093   3.804  0.00  0.00    +0.000 A 
ATOM     18  C   UNL     1     -10.263  -8.766   4.169  0.00  0.00    +0.000 A 
ATOM     19  C   UNL     1     -10.073  -7.770   3.230  0.00  0.00    +0.005 A 
ENDBRANCH  13  14
ENDBRANCH  11  13
ENDBRANCH   4   7
ENDBRANCH   1   3
BRANCH   1  20
ATOM     20  C   UNL     1      -1.078  -6.288  -0.024  0.00  0.00    +0.153 C 
ATOM     21  S   UNL     1       0.416  -7.123  -0.044  0.00  0.00    -0.017 S 
BRANCH  20  24
ATOM     22  C   UNL     1       0.061  -4.250  -0.023  0.00  0.00    +0.250 C 
ATOM     23  O   UNL     1       1.122  -4.843  -0.037  0.00  0.00    -0.270 OA
ATOM     24  N   UNL     1      -1.097  -4.940  -0.015  0.00  0.00    -0.263 N 
ATOM     25  H   UNL     1      -1.944  -4.467  -0.004  0.00  0.00    +0.157 HD
BRANCH  22  29
ATOM     26  C   UNL     1       0.002  -0.004   0.002  0.00  0.00    +0.134 A 
ATOM     27  C   UNL     1       1.216  -0.681  -0.013  0.00  0.00    +0.047 A 
ATOM     28  C   UNL     1       1.239  -2.057  -0.021  0.00  0.00    +0.017 A 
ATOM     29  C   UNL     1       0.040  -2.775  -0.014  0.00  0.00    +0.038 A 
ATOM     30  C   UNL     1      -1.179  -2.092   0.002  0.00  0.00    +0.032 A 
ATOM     31  C   UNL     1      -1.194  -0.714   0.015  0.00  0.00    +0.060 A 
ATOM     32 BR   UNL     1      -2.842   0.213   0.044  0.00  0.00    -0.046 Br
BRANCH  26  33
ATOM     33  O   UNL     1      -0.016   1.353   0.009  0.00  0.00    -0.491 OA
BRANCH  33  35
ATOM     34  C   UNL     1       1.027   3.533   0.011  0.00  0.00    +0.048 C 
ATOM     35  C   UNL     1       1.248   2.019   0.001  0.00  0.00    +0.226 C 
ENDBRANCH  33  35
ENDBRANCH  26  33
ENDBRANCH  22  29
ENDBRANCH  20  24
ENDBRANCH   1  20
TORSDOF 9
