REMARK  Name = ZINC06421947
REMARK  8 active torsions:
REMARK  status: ('A' for Active; 'I' for Inactive)
REMARK    1  A    between atoms: C_1  and  C_2
REMARK    2  A    between atoms: C_2  and  C_4
REMARK    3  A    between atoms: C_2  and  N_14
REMARK    4  A    between atoms: C_15  and  C_17
REMARK    5  A    between atoms: C_17  and  O_18
REMARK    6  A    between atoms: O_18  and  C_19
REMARK    7  A    between atoms: C_19  and  C_21
REMARK    8  A    between atoms: C_25  and  N_27
REMARK                            x       y       z     vdW  Elec       q    Type
REMARK                         _______ _______ _______ _____ _____    ______ ____
ROOT
ATOM      1  N   UNL     1       4.806   1.562  -0.035  0.00  0.00    -0.309 N 
ATOM      2  C   UNL     1       3.554   2.060  -0.021  0.00  0.00    +0.251 C 
ATOM      3  O   UNL     1       3.379   3.260  -0.013  0.00  0.00    -0.272 OA
ATOM      4  H   UNL     1       4.946   0.602  -0.042  0.00  0.00    +0.149 HD
ENDROOT
BRANCH   1   6
ATOM      5  C   UNL     1       6.292   2.877   1.395  0.00  0.00    +0.028 C 
ATOM      6  C   UNL     1       5.956   2.470  -0.042  0.00  0.00    +0.076 C 
BRANCH   6   7
ATOM      7  C   UNL     1       7.160   1.764  -0.666  0.00  0.00    -0.010 C 
ATOM      8  C   UNL     1       6.824   1.357  -2.103  0.00  0.00    +0.012 C 
ATOM      9  C   UNL     1       8.029   0.650  -2.728  0.00  0.00    -0.010 C 
ATOM     10  C   UNL     1       9.230   1.599  -2.734  0.00  0.00    +0.007 C 
ATOM     11  C   UNL     1       9.566   2.006  -1.298  0.00  0.00    -0.010 C 
ATOM     12  C   UNL     1       8.361   2.712  -0.673  0.00  0.00    +0.012 C 
ATOM     13  C   UNL     1       9.906   0.758  -0.480  0.00  0.00    +0.007 C 
ATOM     14  C   UNL     1       8.705  -0.191  -0.474  0.00  0.00    -0.010 C 
ATOM     15  C   UNL     1       8.369  -0.598  -1.910  0.00  0.00    +0.007 C 
ATOM     16  C   UNL     1       7.500   0.516   0.151  0.00  0.00    +0.012 C 
ENDBRANCH   6   7
ENDBRANCH   1   6
BRANCH   2  17
ATOM     17  C   UNL     1       2.371   1.126  -0.015  0.00  0.00    +0.328 C 
BRANCH  17  18
ATOM     18  O   UNL     1       1.143   1.900   0.001  0.00  0.00    -0.452 OA
BRANCH  18  19
ATOM     19  C   UNL     1      -0.014   1.211   0.009  0.00  0.00    +0.340 C 
ATOM     20  O   UNL     1       0.002  -0.004   0.002  0.00  0.00    -0.245 OA
BRANCH  19  21
ATOM     21  C   UNL     1      -1.303   1.931   0.019  0.00  0.00    +0.061 A 
ATOM     22  C   UNL     1      -1.325   3.328   0.032  0.00  0.00    +0.016 A 
ATOM     23  C   UNL     1      -2.530   3.999   0.036  0.00  0.00    +0.022 A 
ATOM     24  C   UNL     1      -3.720   3.294   0.039  0.00  0.00    +0.062 A 
ATOM     25  C   UNL     1      -3.709   1.903   0.030  0.00  0.00    +0.044 A 
ATOM     26  C   UNL     1      -2.504   1.220   0.021  0.00  0.00    +0.039 A 
ATOM     27 CL   UNL     1      -5.232   4.147   0.051  0.00  0.00    -0.082 Cl
BRANCH  25  28
ATOM     28  N   UNL     1      -4.914   1.194   0.032  0.00  0.00    -0.357 N 
ATOM     29  H   UNL     1      -4.907   0.224   0.026  0.00  0.00    +0.142 HD
ATOM     30  H   UNL     1      -5.758   1.673   0.039  0.00  0.00    +0.142 HD
ENDBRANCH  25  28
ENDBRANCH  19  21
ENDBRANCH  18  19
ENDBRANCH  17  18
ENDBRANCH   2  17
TORSDOF 7
