REMARK  Name = ZINC00668580
REMARK  9 active torsions:
REMARK  status: ('A' for Active; 'I' for Inactive)
REMARK    1  A    between atoms: C_1  and  C_2
REMARK    2  A    between atoms: C_2  and  C_3
REMARK    3  A    between atoms: C_2  and  C_4
REMARK    4  A    between atoms: C_2  and  C_5
REMARK    5  A    between atoms: C_12  and  N_17
REMARK    6  A    between atoms: C_13  and  C_14
REMARK    7  A    between atoms: C_18  and  C_20
REMARK    8  A    between atoms: C_20  and  O_21
REMARK    9  A    between atoms: O_21  and  C_22
REMARK                            x       y       z     vdW  Elec       q    Type
REMARK                         _______ _______ _______ _____ _____    ______ ____
ROOT
ATOM      1  C   UNL     1      -3.180  -2.301  -3.489  0.00  0.00    -0.000 C 
ATOM      2  C   UNL     1      -2.514  -0.928  -3.629  0.00  0.00    +0.009 C 
ATOM      3  C   UNL     1      -1.378  -0.795  -2.613  0.00  0.00    +0.037 C 
ATOM      4  C   UNL     1      -1.920  -1.128  -1.228  0.00  0.00    -0.023 A 
ATOM      5  C   UNL     1      -3.069  -1.821  -1.079  0.00  0.00    -0.004 A 
ATOM      6  S   UNL     1      -3.285  -1.968   0.672  0.00  0.00    -0.077 S 
ATOM      7  C   UNL     1      -1.865  -1.129   1.200  0.00  0.00    +0.084 A 
ATOM      8  C   UNL     1      -1.258  -0.754   0.010  0.00  0.00    +0.068 A 
ATOM      9  C   UNL     1      -3.959  -2.340  -2.166  0.00  0.00    +0.046 C 
ENDROOT
BRANCH   8  10
ATOM     10  C   UNL     1       0.002  -0.004   0.002  0.00  0.00    +0.244 C 
ATOM     11  O   UNL     1       1.064  -0.598  -0.011  0.00  0.00    -0.270 OA
ATOM     12  N   UNL     1      -0.016   1.344   0.009  0.00  0.00    -0.325 N 
ATOM     13  H   UNL     1       0.817   1.840   0.004  0.00  0.00    +0.145 HD
ATOM     14  H   UNL     1      -0.863   1.817   0.016  0.00  0.00    +0.145 HD
ENDBRANCH   8  10
BRANCH   1  16
ATOM     15  C   UNL     1      -5.205  -1.427  -4.662  0.00  0.00    +0.011 C 
ATOM     16  C   UNL     1      -4.141  -2.526  -4.658  0.00  0.00    -0.035 C 
ATOM     17  C   UNL     1      -3.362  -2.486  -5.974  0.00  0.00    +0.011 C 
ATOM     18  C   UNL     1      -4.817  -3.890  -4.506  0.00  0.00    +0.011 C 
ENDBRANCH   1  16
BRANCH   7  19
ATOM     19  N   UNL     1      -1.438  -0.888   2.498  0.00  0.00    -0.277 N 
ATOM     20  C   UNL     1      -2.167  -1.334   3.540  0.00  0.00    +0.255 C 
ATOM     21  O   UNL     1      -3.197  -1.944   3.343  0.00  0.00    -0.272 OA
ATOM     22  H   UNL     1      -0.615  -0.400   2.655  0.00  0.00    +0.155 HD
BRANCH  20  23
ATOM     23  C   UNL     1      -1.704  -1.073   4.950  0.00  0.00    +0.325 C 
BRANCH  23  24
ATOM     24  O   UNL     1      -2.638  -1.639   5.871  0.00  0.00    -0.481 OA
BRANCH  24  25
ATOM     25  C   UNL     1      -2.367  -1.491   7.195  0.00  0.00    +0.139 A 
ATOM     26  C   UNL     1      -1.224  -0.816   7.599  0.00  0.00    +0.047 A 
ATOM     27  C   UNL     1      -0.951  -0.667   8.944  0.00  0.00    +0.004 A 
ATOM     28  C   UNL     1      -1.813  -1.191   9.889  0.00  0.00    +0.002 A 
ATOM     29  C   UNL     1      -2.953  -1.865   9.491  0.00  0.00    +0.023 A 
ATOM     30  C   UNL     1      -3.235  -2.012   8.145  0.00  0.00    +0.083 A 
ATOM     31 CL   UNL     1      -4.669  -2.851   7.644  0.00  0.00    -0.080 Cl
ENDBRANCH  24  25
ENDBRANCH  23  24
ENDBRANCH  20  23
ENDBRANCH   7  19
TORSDOF 6
