REMARK  Name = ZINC08934390
REMARK  17 active torsions:
REMARK  status: ('A' for Active; 'I' for Inactive)
REMARK    1  A    between atoms: C_1  and  C_2
REMARK    2  A    between atoms: C_2  and  C_3
REMARK    3  A    between atoms: C_6  and  C_9
REMARK    4  A    between atoms: C_11  and  C_36
REMARK    5  A    between atoms: C_12  and  N_35
REMARK    6  A    between atoms: C_14  and  C_22
REMARK    7  A    between atoms: C_15  and  C_16
REMARK    8  A    between atoms: C_16  and  O_18
REMARK    9  A    between atoms: O_18  and  C_19
REMARK   10  A    between atoms: C_19  and  C_20
REMARK   11  A    between atoms: C_19  and  C_21
REMARK   12  A    between atoms: C_22  and  S_23
REMARK   13  A    between atoms: S_23  and  C_24
REMARK   14  A    between atoms: C_25  and  C_33
REMARK   15  A    between atoms: C_26  and  C_32
REMARK   16  A    between atoms: C_27  and  C_31
REMARK   17  A    between atoms: C_28  and  C_30
REMARK                            x       y       z     vdW  Elec       q    Type
REMARK                         _______ _______ _______ _____ _____    ______ ____
ROOT
ATOM      1  C   UNL     1      -3.582   1.683  -0.569  0.00  0.00    +0.105 C 
ATOM      2  C   UNL     1      -2.222   1.042  -0.498  0.00  0.00    +0.098 C 
ATOM      3  C   UNL     1      -1.179   1.692   0.071  0.00  0.00    +0.198 C 
ATOM      4  O   UNL     1      -1.312   2.924   0.594  0.00  0.00    -0.444 OA
ATOM      5  C   UNL     1      -2.533   3.383   0.897  0.00  0.00    +0.128 C 
ATOM      6  C   UNL     1      -3.647   2.845   0.385  0.00  0.00    +0.088 C 
ENDROOT
BRANCH   1  10
ATOM      7  C   UNL     1      -4.290   3.076  -4.545  0.00  0.00    -0.048 A 
ATOM      8  C   UNL     1      -5.133   2.136  -3.981  0.00  0.00    +0.004 A 
ATOM      9  C   UNL     1      -4.904   1.685  -2.695  0.00  0.00    +0.005 A 
ATOM     10  C   UNL     1      -3.832   2.174  -1.972  0.00  0.00    -0.034 A 
ATOM     11  C   UNL     1      -2.992   3.118  -2.533  0.00  0.00    +0.005 A 
ATOM     12  C   UNL     1      -3.218   3.564  -3.822  0.00  0.00    +0.004 A 
BRANCH   7  14
ATOM     13  C   UNL     1      -5.457   4.791  -5.903  0.00  0.00    +0.009 C 
ATOM     14  C   UNL     1      -4.540   3.567  -5.947  0.00  0.00    +0.032 C 
ENDBRANCH   7  14
ENDBRANCH   1  10
BRANCH   3  15
ATOM     15  N   UNL     1       0.046   1.075   0.120  0.00  0.00    -0.328 N 
ATOM     16  H   UNL     1       0.156   0.185  -0.250  0.00  0.00    +0.145 HD
ATOM     17  H   UNL     1       0.803   1.530   0.521  0.00  0.00    +0.145 HD
ENDBRANCH   3  15
BRANCH   6  18
ATOM     18  C   UNL     1      -4.909   3.377   0.749  0.00  0.00    +0.340 C 
ATOM     19  O   UNL     1      -4.992   4.521   1.155  0.00  0.00    -0.245 OA
BRANCH  18  20
ATOM     20  O   UNL     1      -6.018   2.616   0.644  0.00  0.00    -0.459 OA
BRANCH  20  21
ATOM     21  C   UNL     1      -7.256   3.217   1.028  0.00  0.00    +0.171 C 
ATOM     22  C   UNL     1      -8.395   2.607   0.209  0.00  0.00    +0.052 C 
ATOM     23  C   UNL     1      -7.505   2.966   2.516  0.00  0.00    +0.052 C 
ENDBRANCH  20  21
ENDBRANCH  18  20
ENDBRANCH   6  18
BRANCH   2  24
ATOM     24  C   UNL     1      -2.029  -0.270  -1.038  0.00  0.00    +0.101 C 
ATOM     25  N   UNL     1      -1.876  -1.311  -1.466  0.00  0.00    -0.191 NA
ENDBRANCH   2  24
BRANCH   5  26
ATOM     26  C   UNL     1      -2.658   4.544   1.849  0.00  0.00    +0.150 C 
BRANCH  26  27
ATOM     27  S   UNL     1      -2.216   6.077   0.993  0.00  0.00    -0.097 S 
BRANCH  27  28
ATOM     28  C   UNL     1      -2.443   7.235   2.302  0.00  0.00    +0.115 A 
ATOM     29  C   UNL     1      -2.198   8.601   2.078  0.00  0.00    +0.087 A 
ATOM     30  C   UNL     1      -2.390   9.502   3.131  0.00  0.00    -0.026 A 
ATOM     31  C   UNL     1      -2.804   9.004   4.355  0.00  0.00    -0.025 A 
ATOM     32  C   UNL     1      -3.020   7.646   4.500  0.00  0.00    +0.043 A 
ATOM     33  N   UNL     1      -2.839   6.813   3.494  0.00  0.00    -0.244 NA
ATOM     34  C   UNL     1      -3.471   7.107   5.833  0.00  0.00    +0.066 C 
ATOM     35  C   UNL     1      -3.018   9.935   5.520  0.00  0.00    +0.046 C 
ATOM     36  C   UNL     1      -2.146  10.977   2.941  0.00  0.00    +0.045 C 
BRANCH  29  37
ATOM     37  C   UNL     1      -1.765   9.063   0.793  0.00  0.00    +0.102 C 
ATOM     38  N   UNL     1      -1.421   9.430  -0.225  0.00  0.00    -0.191 NA
ENDBRANCH  29  37
ENDBRANCH  27  28
ENDBRANCH  26  27
ENDBRANCH   5  26
TORSDOF 11
