REMARK  Name = ZINC25575506
REMARK  6 active torsions:
REMARK  status: ('A' for Active; 'I' for Inactive)
REMARK    1  A    between atoms: C_1  and  O_2
REMARK    2  A    between atoms: O_2  and  C_3
REMARK    3  A    between atoms: C_6  and  C_11
REMARK    4  A    between atoms: C_8  and  O_9
REMARK    5  A    between atoms: O_9  and  C_10
REMARK    6  A    between atoms: C_22  and  C_24
REMARK                            x       y       z     vdW  Elec       q    Type
REMARK                         _______ _______ _______ _____ _____    ______ ____
ROOT
ATOM      1  C   UNL     1       2.470  -2.669  -4.152  0.00  0.00    +0.159 C 
ATOM      2  C   UNL     1       1.519  -2.710  -5.328  0.00  0.00    +0.027 C 
ATOM      3  C   UNL     1       1.875  -2.060  -6.454  0.00  0.00    +0.083 C 
ATOM      4  C   UNL     1       0.936  -2.117  -7.603  0.00  0.00    +0.042 A 
ATOM      5  C   UNL     1       1.046  -1.240  -8.674  0.00  0.00    +0.013 A 
ATOM      6  C   UNL     1       0.150  -1.327  -9.722  0.00  0.00    +0.001 A 
ATOM      7  C   UNL     1      -0.851  -2.283  -9.705  0.00  0.00    +0.004 A 
ATOM      8  C   UNL     1      -0.967  -3.160  -8.643  0.00  0.00    +0.046 A 
ATOM      9  C   UNL     1      -0.076  -3.085  -7.587  0.00  0.00    +0.131 A 
ATOM     10  O   UNL     1      -0.162  -3.938  -6.535  0.00  0.00    -0.479 OA
ATOM     11  C   UNL     1       0.211  -3.442  -5.248  0.00  0.00    +0.234 C 
ATOM     12  N   UNL     1       3.044  -1.379  -6.541  0.00  0.00    -0.213 NA
ATOM     13  C   UNL     1       3.924  -1.293  -5.571  0.00  0.00    +0.237 C 
ATOM     14  N   UNL     1       3.707  -1.906  -4.357  0.00  0.00    -0.208 N 
ATOM     15  N   UNL     1       4.819  -1.619  -3.563  0.00  0.00    -0.251 N 
ATOM     16  C   UNL     1       5.648  -0.850  -4.322  0.00  0.00    +0.203 C 
ATOM     17  N   UNL     1       5.120  -0.668  -5.491  0.00  0.00    -0.205 NA
ATOM     18  H   UNL     1       4.972  -1.910  -2.650  0.00  0.00    +0.171 HD
ENDROOT
BRANCH  11  19
ATOM     19  C   UNL     1      -0.856  -2.503  -4.747  0.00  0.00    -0.003 A 
ATOM     20  C   UNL     1      -1.330  -1.496  -5.566  0.00  0.00    +0.008 A 
ATOM     21  C   UNL     1      -2.309  -0.634  -5.107  0.00  0.00    +0.015 A 
ATOM     22  C   UNL     1      -2.814  -0.781  -3.828  0.00  0.00    +0.018 A 
ATOM     23  C   UNL     1      -2.340  -1.790  -3.009  0.00  0.00    +0.015 A 
ATOM     24  C   UNL     1      -1.365  -2.654  -3.470  0.00  0.00    +0.008 A 
ATOM     25 BR   UNL     1      -4.153   0.397  -3.199  0.00  0.00    -0.050 Br
ENDBRANCH  11  19
BRANCH   1  29
ATOM     26  C   UNL     1       0.396  -0.972  -0.819  0.00  0.00    +0.162 A 
ATOM     27  C   UNL     1       0.879  -0.154  -1.827  0.00  0.00    +0.050 A 
ATOM     28  C   UNL     1       1.549  -0.706  -2.903  0.00  0.00    +0.009 A 
ATOM     29  C   UNL     1       1.739  -2.073  -2.976  0.00  0.00    -0.017 A 
ATOM     30  C   UNL     1       1.260  -2.895  -1.974  0.00  0.00    +0.055 A 
ATOM     31  C   UNL     1       0.593  -2.348  -0.889  0.00  0.00    +0.162 A 
BRANCH  26  33
ATOM     32  C   UNL     1      -0.427   0.988   0.247  0.00  0.00    +0.277 C 
ATOM     33  O   UNL     1      -0.263  -0.431   0.241  0.00  0.00    -0.491 OA
ENDBRANCH  26  33
BRANCH  31  34
ATOM     34  O   UNL     1       0.126  -3.155   0.101  0.00  0.00    -0.491 OA
ATOM     35  C   UNL     1       0.364  -4.557  -0.038  0.00  0.00    +0.277 C 
ENDBRANCH  31  34
ENDBRANCH   1  29
TORSDOF 4
