REMARK  Name = ZINC12607217
REMARK  9 active torsions:
REMARK  status: ('A' for Active; 'I' for Inactive)
REMARK    1  A    between atoms: C_4  and  C_7
REMARK    2  A    between atoms: C_7  and  C_9
REMARK    3  A    between atoms: C_7  and  N_24
REMARK    4  A    between atoms: N_11  and  C_12
REMARK    5  A    between atoms: C_12  and  C_13
REMARK    6  A    between atoms: C_13  and  C_14
REMARK    7  A    between atoms: C_17  and  S_20
REMARK    8  A    between atoms: S_20  and  N_23
REMARK    9  A    between atoms: C_25  and  C_27
REMARK                            x       y       z     vdW  Elec       q    Type
REMARK                         _______ _______ _______ _____ _____    ______ ____
ROOT
ATOM      1  C   UNL     1       4.044  -1.175   1.356  0.00  0.00    +0.238 C 
ATOM      2  O   UNL     1       4.184  -2.358   1.581  0.00  0.00    -0.273 OA
ATOM      3  N   UNL     1       4.186  -0.278   2.352  0.00  0.00    -0.313 N 
ATOM      4  H   UNL     1       4.074   0.669   2.172  0.00  0.00    +0.149 HD
ENDROOT
BRANCH   1   5
ATOM      5  C   UNL     1       3.711  -0.707  -0.038  0.00  0.00    +0.190 C 
BRANCH   5   9
ATOM      6  C   UNL     1      -0.017   1.378   0.010  0.00  0.00    +0.000 A 
ATOM      7  C   UNL     1       1.171   2.086   0.002  0.00  0.00    +0.000 A 
ATOM      8  C   UNL     1       2.377   1.411  -0.013  0.00  0.00    +0.006 A 
ATOM      9  C   UNL     1       2.396   0.029  -0.020  0.00  0.00    -0.018 A 
ATOM     10  C   UNL     1       1.208  -0.679  -0.012  0.00  0.00    +0.006 A 
ATOM     11  C   UNL     1       0.002  -0.004   0.002  0.00  0.00    +0.000 A 
ENDBRANCH   5   9
BRANCH   5  12
ATOM     12  N   UNL     1       3.611  -1.865  -0.930  0.00  0.00    -0.296 N 
ATOM     13  C   UNL     1       3.825  -1.716  -2.253  0.00  0.00    +0.245 C 
ATOM     14  O   UNL     1       4.099  -0.622  -2.705  0.00  0.00    -0.270 OA
ATOM     15  H   UNL     1       3.392  -2.738  -0.569  0.00  0.00    +0.150 HD
BRANCH  13  16
ATOM     16  C   UNL     1       3.724  -2.884  -3.154  0.00  0.00    +0.037 A 
ATOM     17  C   UNL     1       3.403  -4.141  -2.638  0.00  0.00    +0.013 A 
ATOM     18  C   UNL     1       3.310  -5.226  -3.485  0.00  0.00    +0.001 A 
ATOM     19  C   UNL     1       3.535  -5.072  -4.841  0.00  0.00    +0.000 A 
ATOM     20  C   UNL     1       3.854  -3.829  -5.358  0.00  0.00    +0.001 A 
ATOM     21  C   UNL     1       3.944  -2.733  -4.524  0.00  0.00    +0.013 A 
ENDBRANCH  13  16
ENDBRANCH   5  12
ENDBRANCH   1   5
BRANCH   3  22
ATOM     22  C   UNL     1       4.509  -0.732   3.706  0.00  0.00    +0.109 C 
BRANCH  22  23
ATOM     23  C   UNL     1       4.613   0.477   4.639  0.00  0.00    +0.054 C 
BRANCH  23  24
ATOM     24  C   UNL     1       4.946   0.009   6.032  0.00  0.00    -0.046 A 
ATOM     25  C   UNL     1       3.931  -0.302   6.918  0.00  0.00    +0.005 A 
ATOM     26  C   UNL     1       4.236  -0.731   8.196  0.00  0.00    +0.029 A 
ATOM     27  C   UNL     1       5.556  -0.849   8.588  0.00  0.00    +0.105 A 
ATOM     28  C   UNL     1       6.571  -0.539   7.703  0.00  0.00    +0.029 A 
ATOM     29  C   UNL     1       6.266  -0.115   6.423  0.00  0.00    +0.005 A 
BRANCH  27  30
ATOM     30  S   UNL     1       5.945  -1.395  10.218  0.00  0.00    +0.056 S 
ATOM     31  O   UNL     1       7.243  -0.899  10.513  0.00  0.00    -0.153 OA
ATOM     32  O   UNL     1       4.814  -1.098  11.026  0.00  0.00    -0.153 OA
BRANCH  30  33
ATOM     33  N   UNL     1       6.068  -3.045  10.165  0.00  0.00    -0.204 NA
ATOM     34  H   UNL     1       5.930  -3.515   9.329  0.00  0.00    +0.144 HD
ATOM     35  H   UNL     1       6.279  -3.542  10.972  0.00  0.00    +0.144 HD
ENDBRANCH  30  33
ENDBRANCH  27  30
ENDBRANCH  23  24
ENDBRANCH  22  23
ENDBRANCH   3  22
TORSDOF 9
