REMARK  Name = ZINC08450425
REMARK  8 active torsions:
REMARK  status: ('A' for Active; 'I' for Inactive)
REMARK    1  A    between atoms: C_1  and  C_2
REMARK    2  A    between atoms: C_2  and  O_3
REMARK    3  A    between atoms: O_3  and  C_4
REMARK    4  A    between atoms: C_7  and  N_10
REMARK    5  A    between atoms: N_12  and  C_31
REMARK    6  A    between atoms: C_16  and  C_17
REMARK    7  A    between atoms: N_19  and  C_26
REMARK    8  A    between atoms: C_26  and  C_27
REMARK                            x       y       z     vdW  Elec       q    Type
REMARK                         _______ _______ _______ _____ _____    ______ ____
ROOT
ATOM      1  N   UNL     1      -2.363  -5.948  -0.435  0.00  0.00    -0.225 NA
ATOM      2  C   UNL     1      -3.078  -6.511   0.513  0.00  0.00    +0.169 C 
ATOM      3  N   UNL     1      -3.879  -5.913   1.466  0.00  0.00    -0.243 N 
ATOM      4  C   UNL     1      -4.528  -6.655   2.347  0.00  0.00    +0.259 C 
ATOM      5  O   UNL     1      -5.237  -6.141   3.193  0.00  0.00    -0.269 OA
ATOM      6  C   UNL     1      -4.377  -8.072   2.282  0.00  0.00    +0.078 C 
ATOM      7  C   UNL     1      -4.934  -9.034   3.066  0.00  0.00    +0.030 C 
ATOM      8  S   UNL     1      -3.267  -8.247   0.892  0.00  0.00    -0.049 S 
ENDROOT
BRANCH   7   9
ATOM      9  C   UNL     1      -4.763 -10.447   2.723  0.00  0.00    +0.001 A 
ATOM     10  C   UNL     1      -3.893 -10.967   1.808  0.00  0.00    +0.095 A 
ATOM     11  N   UNL     1      -4.024 -12.319   1.768  0.00  0.00    -0.337 N 
ATOM     12  C   UNL     1      -4.991 -12.734   2.661  0.00  0.00    +0.050 A 
ATOM     13  C   UNL     1      -5.494 -11.591   3.302  0.00  0.00    +0.007 A 
ATOM     14  C   UNL     1      -6.489 -11.712   4.268  0.00  0.00    +0.010 A 
ATOM     15  C   UNL     1      -6.976 -12.960   4.593  0.00  0.00    +0.001 A 
ATOM     16  C   UNL     1      -6.477 -14.091   3.963  0.00  0.00    +0.002 A 
ATOM     17  C   UNL     1      -5.497 -13.984   3.000  0.00  0.00    +0.026 A 
BRANCH  11  18
ATOM     18  C   UNL     1      -3.249 -13.209   0.900  0.00  0.00    +0.217 C 
BRANCH  18  19
ATOM     19  C   UNL     1      -4.029 -13.486  -0.359  0.00  0.00    +0.230 C 
ATOM     20  O   UNL     1      -5.124 -12.989  -0.516  0.00  0.00    -0.274 OA
ATOM     21  N   UNL     1      -3.510 -14.286  -1.311  0.00  0.00    -0.328 N 
ATOM     22  H   UNL     1      -2.634 -14.684  -1.185  0.00  0.00    +0.145 HD
ATOM     23  H   UNL     1      -4.012 -14.465  -2.122  0.00  0.00    +0.145 HD
ENDBRANCH  18  19
ENDBRANCH  11  18
ENDBRANCH   7   9
BRANCH   1  27
ATOM     24  C   UNL     1      -1.415  -1.924  -0.197  0.00  0.00    +0.121 A 
ATOM     25  C   UNL     1      -2.175  -2.394  -1.259  0.00  0.00    +0.048 A 
ATOM     26  C   UNL     1      -2.493  -3.733  -1.342  0.00  0.00    +0.031 A 
ATOM     27  C   UNL     1      -2.049  -4.617  -0.356  0.00  0.00    +0.067 A 
ATOM     28  C   UNL     1      -1.285  -4.139   0.710  0.00  0.00    +0.031 A 
ATOM     29  C   UNL     1      -0.967  -2.799   0.783  0.00  0.00    +0.048 A 
BRANCH  24  30
ATOM     30  O   UNL     1      -1.103  -0.602  -0.119  0.00  0.00    -0.492 OA
BRANCH  30  32
ATOM     31  C   UNL     1      -1.147   1.683  -0.903  0.00  0.00    +0.048 C 
ATOM     32  C   UNL     1      -1.596   0.243  -1.160  0.00  0.00    +0.225 C 
ENDBRANCH  30  32
ENDBRANCH  24  30
ENDBRANCH   1  27
BRANCH   3  33
ATOM     33  C   UNL     1      -4.009  -4.454   1.501  0.00  0.00    +0.084 C 
ATOM     34  C   UNL     1      -4.692  -4.034   2.804  0.00  0.00    +0.023 C 
ATOM     35  C   UNL     1      -4.828  -2.511   2.840  0.00  0.00    +0.002 C 
ATOM     36  C   UNL     1      -5.669  -2.045   1.650  0.00  0.00    +0.000 C 
ATOM     37  C   UNL     1      -4.986  -2.465   0.347  0.00  0.00    +0.002 C 
ATOM     38  C   UNL     1      -4.850  -3.989   0.311  0.00  0.00    +0.023 C 
ENDBRANCH   3  33
TORSDOF 7
