REMARK  Name = ZINC12776690
REMARK  13 active torsions:
REMARK  status: ('A' for Active; 'I' for Inactive)
REMARK    1  A    between atoms: C_1  and  C_2
REMARK    2  A    between atoms: C_2  and  C_3
REMARK    3  A    between atoms: C_2  and  N_4
REMARK    4  A    between atoms: C_5  and  C_29
REMARK    5  A    between atoms: N_7  and  C_10
REMARK    6  A    between atoms: C_12  and  N_25
REMARK    7  A    between atoms: C_14  and  O_24
REMARK    8  A    between atoms: C_16  and  O_23
REMARK    9  A    between atoms: C_18  and  C_21
REMARK   10  A    between atoms: C_21  and  O_22
REMARK   11  A    between atoms: C_26  and  C_28
REMARK   12  A    between atoms: C_29  and  O_30
REMARK   13  A    between atoms: O_30  and  C_31
REMARK                            x       y       z     vdW  Elec       q    Type
REMARK                         _______ _______ _______ _____ _____    ______ ____
ROOT
ATOM      1  N   UNL     1       6.369   4.925   1.897  0.00  0.00    -0.302 N 
ATOM      2  C   UNL     1       6.734   4.066   0.890  0.00  0.00    +0.170 A 
ATOM      3  N   UNL     1       5.710   3.346   0.563  0.00  0.00    -0.150 NA
ATOM      4  N   UNL     1       4.627   3.739   1.362  0.00  0.00    -0.209 N 
ATOM      5  C   UNL     1       5.068   4.716   2.182  0.00  0.00    +0.181 A 
ATOM      6  S   UNL     1       4.144   5.540   3.364  0.00  0.00    -0.011 S 
ENDROOT
BRANCH   4   7
ATOM      7  C   UNL     1       3.271   3.186   1.321  0.00  0.00    +0.262 C 
ATOM      8  C   UNL     1       2.541   3.716   0.084  0.00  0.00    +0.155 C 
ATOM      9  C   UNL     1       1.146   3.087   0.016  0.00  0.00    +0.170 C 
ATOM     10  C   UNL     1       1.286   1.562  -0.002  0.00  0.00    +0.176 C 
ATOM     11  C   UNL     1       2.065   1.115   1.238  0.00  0.00    +0.177 C 
ATOM     12  O   UNL     1       3.340   1.760   1.257  0.00  0.00    -0.345 OA
BRANCH   8  13
ATOM     13  N   UNL     1       2.418   5.173   0.176  0.00  0.00    -0.306 N 
ATOM     14  C   UNL     1       2.290   5.910  -0.945  0.00  0.00    +0.210 C 
ATOM     15  O   UNL     1       2.275   5.367  -2.030  0.00  0.00    -0.276 OA
ATOM     16  C   UNL     1       2.163   7.409  -0.851  0.00  0.00    +0.109 C 
ATOM     17  H   UNL     1       2.430   5.607   1.043  0.00  0.00    +0.149 HD
ENDBRANCH   8  13
BRANCH  10  18
ATOM     18  O   UNL     1      -0.011   0.963   0.007  0.00  0.00    -0.387 OA
ATOM     19  H   UNL     1       0.002  -0.004   0.002  0.00  0.00    +0.210 HD
ENDBRANCH  10  18
BRANCH   9  20
ATOM     20  O   UNL     1       0.485   3.520  -1.175  0.00  0.00    -0.387 OA
ATOM     21  H   UNL     1      -0.403   3.154  -1.286  0.00  0.00    +0.210 HD
ENDBRANCH   9  20
BRANCH  11  22
ATOM     22  C   UNL     1       2.261  -0.402   1.198  0.00  0.00    +0.190 C 
BRANCH  22  23
ATOM     23  O   UNL     1       2.885  -0.835   2.409  0.00  0.00    -0.392 OA
ATOM     24  H   UNL     1       3.040  -1.788   2.453  0.00  0.00    +0.210 HD
ENDBRANCH  22  23
ENDBRANCH  11  22
ENDBRANCH   4   7
BRANCH   1  26
ATOM     25  C   UNL     1       6.677   7.309   2.349  0.00  0.00    +0.030 C 
ATOM     26  C   UNL     1       7.243   5.902   2.550  0.00  0.00    +0.085 C 
ATOM     27  C   UNL     1       7.323   5.594   4.047  0.00  0.00    +0.030 C 
ENDBRANCH   1  26
BRANCH   2  28
ATOM     28  C   UNL     1       8.106   3.971   0.273  0.00  0.00    +0.305 C 
BRANCH  28  29
ATOM     29  O   UNL     1       8.888   3.017   0.993  0.00  0.00    -0.483 OA
BRANCH  29  30
ATOM     30  C   UNL     1      10.160   2.810   0.562  0.00  0.00    +0.139 A 
ATOM     31  C   UNL     1      10.644   3.507  -0.535  0.00  0.00    +0.047 A 
ATOM     32  C   UNL     1      11.939   3.300  -0.968  0.00  0.00    +0.004 A 
ATOM     33  C   UNL     1      12.750   2.389  -0.316  0.00  0.00    +0.002 A 
ATOM     34  C   UNL     1      12.269   1.688   0.775  0.00  0.00    +0.023 A 
ATOM     35  C   UNL     1      10.976   1.897   1.216  0.00  0.00    +0.083 A 
ATOM     36 CL   UNL     1      10.372   1.016   2.585  0.00  0.00    -0.080 Cl
ENDBRANCH  29  30
ENDBRANCH  28  29
ENDBRANCH   2  28
TORSDOF 10
