REMARK  Name = ZINC28423213
REMARK  5 active torsions:
REMARK  status: ('A' for Active; 'I' for Inactive)
REMARK    1  A    between atoms: C_1  and  C_2
REMARK    2  A    between atoms: C_3  and  C_17
REMARK    3  A    between atoms: C_4  and  C_10
REMARK    4  A    between atoms: N_19  and  C_20
REMARK    5  A    between atoms: C_23  and  N_26
REMARK                            x       y       z     vdW  Elec       q    Type
REMARK                         _______ _______ _______ _____ _____    ______ ____
ROOT
ATOM      1  C   UNL     1       0.811   2.788  -0.414  0.00  0.00    +0.061 C 
ATOM      2  C   UNL     1      -0.165   2.402   0.667  0.00  0.00    +0.017 C 
ATOM      3  C   UNL     1       0.300   1.902   1.832  0.00  0.00    +0.056 C 
ATOM      4  C   UNL     1      -0.715   1.527   2.893  0.00  0.00    +0.140 C 
ATOM      5  N   UNL     1      -2.135   1.740   2.563  0.00  0.00    -0.315 N 
ATOM      6  C   UNL     1      -2.443   2.249   1.354  0.00  0.00    +0.135 C 
ATOM      7  S   UNL     1      -4.089   2.502   0.957  0.00  0.00    -0.019 S 
ATOM      8  N   UNL     1      -1.503   2.568   0.455  0.00  0.00    -0.300 N 
ATOM      9  H   UNL     1      -2.914   1.485   3.297  0.00  0.00    +0.149 HD
ATOM     10  H   UNL     1      -1.861   2.986  -0.497  0.00  0.00    +0.154 HD
ENDROOT
BRANCH   4  11
ATOM     11  C   UNL     1      -0.529   0.067   3.219  0.00  0.00    -0.009 A 
ATOM     12  C   UNL     1      -1.344  -0.882   2.631  0.00  0.00    +0.007 A 
ATOM     13  C   UNL     1      -1.173  -2.221   2.929  0.00  0.00    +0.000 A 
ATOM     14  C   UNL     1      -0.186  -2.611   3.815  0.00  0.00    +0.001 A 
ATOM     15  C   UNL     1       0.630  -1.663   4.403  0.00  0.00    +0.015 A 
ATOM     16  C   UNL     1       0.462  -0.323   4.101  0.00  0.00    +0.023 A 
ATOM     17 BR   UNL     1       1.582   0.974   4.900  0.00  0.00    -0.050 Br
ENDBRANCH   4  11
BRANCH   3  18
ATOM     18  C   UNL     1       1.688   1.734   2.055  0.00  0.00    +0.248 C 
ATOM     19  O   UNL     1       2.187   0.626   1.981  0.00  0.00    -0.270 OA
ATOM     20  N   UNL     1       2.457   2.801   2.350  0.00  0.00    -0.282 N 
ATOM     21  H   UNL     1       1.991   3.780   2.538  0.00  0.00    +0.155 HD
BRANCH  20  22
ATOM     22  C   UNL     1       3.847   2.665   2.416  0.00  0.00    +0.034 A 
ATOM     23  C   UNL     1       4.409   1.474   2.859  0.00  0.00    +0.025 A 
ATOM     24  C   UNL     1       5.782   1.340   2.918  0.00  0.00    +0.034 A 
ATOM     25  C   UNL     1       6.598   2.394   2.549  0.00  0.00    +0.126 A 
ATOM     26  C   UNL     1       6.042   3.583   2.114  0.00  0.00    +0.034 A 
ATOM     27  C   UNL     1       4.669   3.721   2.046  0.00  0.00    +0.025 A 
BRANCH  25  28
ATOM     28  N   UNL     1       8.069   2.249   2.620  0.00  0.00    +0.056 N 
ATOM     29  O   UNL     1       8.789   3.177   2.295  0.00  0.00    -0.126 OA
ATOM     30  O   UNL     1       8.560   1.203   3.004  0.00  0.00    -0.126 OA
ENDBRANCH  25  28
ENDBRANCH  20  22
ENDBRANCH   3  18
TORSDOF 4
