REMARK  Name = ZINC66438721
REMARK  8 active torsions:
REMARK  status: ('A' for Active; 'I' for Inactive)
REMARK    1  A    between atoms: C_1  and  C_2
REMARK    2  A    between atoms: C_5  and  N_9
REMARK    3  A    between atoms: C_10  and  C_12
REMARK    4  A    between atoms: C_12  and  C_13
REMARK    5  A    between atoms: C_13  and  N_14
REMARK    6  A    between atoms: C_15  and  C_17
REMARK    7  A    between atoms: N_22  and  C_23
REMARK    8  A    between atoms: C_23  and  C_24
REMARK                            x       y       z     vdW  Elec       q    Type
REMARK                         _______ _______ _______ _____ _____    ______ ____
ROOT
ATOM      1  N   UNL     1      -0.678  -8.385  -2.355  0.00  0.00    -0.316 N 
ATOM      2  C   UNL     1      -0.590  -8.982  -3.560  0.00  0.00    +0.200 C 
ATOM      3  O   UNL     1      -0.486  -8.309  -4.564  0.00  0.00    -0.278 OA
ATOM      4  H   UNL     1      -0.760  -8.923  -1.552  0.00  0.00    +0.149 HD
ENDROOT
BRANCH   2   5
ATOM      5  C   UNL     1      -0.620 -10.486  -3.660  0.00  0.00    +0.020 C 
ATOM      6  C   UNL     1       0.692 -10.996  -4.292  0.00  0.00    -0.008 C 
ATOM      7  C   UNL     1       0.215 -12.163  -5.195  0.00  0.00    -0.020 C 
ATOM      8  C   UNL     1      -1.151 -11.631  -5.698  0.00  0.00    -0.077 C 
ATOM      9  N   UNL     1      -1.725 -10.908  -4.540  0.00  0.00    +0.390 N 
ATOM     10  H   UNL     1      -2.349 -11.517  -4.032  0.00  0.00    -0.080 HD
BRANCH   9  11
ATOM     11  C   UNL     1      -2.462  -9.727  -5.009  0.00  0.00    -0.042 C 
BRANCH  11  12
ATOM     12  C   UNL     1      -3.690 -10.168  -5.763  0.00  0.00    -0.064 A 
ATOM     13  C   UNL     1      -3.622 -10.387  -7.126  0.00  0.00    +0.002 A 
ATOM     14  C   UNL     1      -4.748 -10.792  -7.819  0.00  0.00    +0.000 A 
ATOM     15  C   UNL     1      -5.942 -10.978  -7.147  0.00  0.00    +0.000 A 
ATOM     16  C   UNL     1      -6.010 -10.759  -5.784  0.00  0.00    +0.000 A 
ATOM     17  C   UNL     1      -4.883 -10.359  -5.091  0.00  0.00    +0.002 A 
ENDBRANCH  11  12
ENDBRANCH   9  11
ENDBRANCH   2   5
BRANCH   1  18
ATOM     18  C   UNL     1      -0.649  -6.924  -2.257  0.00  0.00    +0.113 C 
BRANCH  18  19
ATOM     19  C   UNL     1      -0.764  -6.508  -0.789  0.00  0.00    +0.115 C 
BRANCH  19  21
ATOM     20  N   UNL     1      -0.822  -4.408   0.516  0.00  0.00    -0.284 N 
ATOM     21  C   UNL     1      -0.734  -5.005  -0.689  0.00  0.00    +0.219 C 
ATOM     22  O   UNL     1      -0.631  -4.332  -1.693  0.00  0.00    -0.275 OA
ATOM     23  H   UNL     1      -0.824  -4.945   1.324  0.00  0.00    +0.155 HD
BRANCH  20  28
ATOM     24  C   UNL     1      -1.183   1.244   0.863  0.00  0.00    +0.044 C 
ATOM     25  C   UNL     1      -1.087  -0.257   0.771  0.00  0.00    -0.049 A 
ATOM     26  C   UNL     1      -1.494  -0.905  -0.380  0.00  0.00    +0.005 A 
ATOM     27  C   UNL     1      -1.407  -2.281  -0.468  0.00  0.00    +0.025 A 
ATOM     28  C   UNL     1      -0.910  -3.014   0.602  0.00  0.00    +0.052 A 
ATOM     29  C   UNL     1      -0.501  -2.360   1.758  0.00  0.00    +0.062 A 
ATOM     30  C   UNL     1      -0.586  -0.982   1.837  0.00  0.00    +0.025 A 
ATOM     31 CL   UNL     1       0.121  -3.271   3.098  0.00  0.00    -0.082 Cl
ENDBRANCH  20  28
ENDBRANCH  19  21
ENDBRANCH  18  19
ENDBRANCH   1  18
TORSDOF 7
