REMARK  Name = ZINC39710079
REMARK  7 active torsions:
REMARK  status: ('A' for Active; 'I' for Inactive)
REMARK    1  A    between atoms: C_4  and  C_7
REMARK    2  A    between atoms: C_8  and  C_9
REMARK    3  A    between atoms: N_11  and  C_12
REMARK    4  A    between atoms: C_18  and  C_19
REMARK    5  A    between atoms: N_21  and  C_22
REMARK    6  A    between atoms: C_22  and  C_23
REMARK    7  A    between atoms: C_23  and  C_24
REMARK                            x       y       z     vdW  Elec       q    Type
REMARK                         _______ _______ _______ _____ _____    ______ ____
ROOT
ATOM      1  C   UNL     1       6.545  -4.912   0.035  0.00  0.00    +0.219 C 
ATOM      2  N   UNL     1       6.350  -6.370   0.186  0.00  0.00    -0.320 N 
ATOM      3  C   UNL     1       5.889  -7.039  -0.892  0.00  0.00    +0.021 C 
ATOM      4  C   UNL     1       6.133  -6.403  -2.251  0.00  0.00    +0.123 C 
ATOM      5  S   UNL     1       6.928  -4.810  -1.767  0.00  0.00    -0.114 S 
ATOM      6  C   UNL     1       5.242  -8.216  -0.769  0.00  0.00    +0.086 C 
ATOM      7  H   UNL     1       6.545  -6.825   1.020  0.00  0.00    +0.148 HD
ENDROOT
BRANCH   1  10
ATOM      8  C   UNL     1       5.355  -2.837   0.501  0.00  0.00    +0.239 C 
ATOM      9  O   UNL     1       6.405  -2.238   0.361  0.00  0.00    -0.271 OA
ATOM     10  N   UNL     1       5.320  -4.177   0.359  0.00  0.00    -0.285 N 
ATOM     11  H   UNL     1       4.483  -4.654   0.470  0.00  0.00    +0.152 HD
BRANCH   8  13
ATOM     12  C   UNL     1       4.166  -0.762   0.968  0.00  0.00    +0.013 C 
ATOM     13  C   UNL     1       4.131  -2.102   0.825  0.00  0.00    +0.068 C 
BRANCH  12  17
ATOM     14  C   UNL     1       0.618   1.366   1.904  0.00  0.00    +0.000 A 
ATOM     15  C   UNL     1       1.810   2.051   1.746  0.00  0.00    +0.001 A 
ATOM     16  C   UNL     1       2.968   1.366   1.442  0.00  0.00    +0.008 A 
ATOM     17  C   UNL     1       2.935  -0.024   1.293  0.00  0.00    -0.025 A 
ATOM     18  C   UNL     1       1.726  -0.709   1.454  0.00  0.00    +0.008 A 
ATOM     19  C   UNL     1       0.577  -0.010   1.758  0.00  0.00    +0.001 A 
ENDBRANCH  12  17
ENDBRANCH   8  13
ENDBRANCH   1  10
BRANCH   6  20
ATOM     20  C   UNL     1       4.906  -8.708   0.514  0.00  0.00    +0.238 C 
ATOM     21  O   UNL     1       5.103  -8.021   1.500  0.00  0.00    -0.271 OA
ATOM     22  N   UNL     1       4.367  -9.936   0.645  0.00  0.00    -0.311 N 
ATOM     23  H   UNL     1       4.209 -10.483  -0.141  0.00  0.00    +0.149 HD
BRANCH  22  24
ATOM     24  C   UNL     1       4.018 -10.445   1.974  0.00  0.00    +0.109 C 
BRANCH  24  25
ATOM     25  C   UNL     1       3.429 -11.851   1.843  0.00  0.00    +0.056 C 
BRANCH  25  26
ATOM     26  C   UNL     1       3.070 -12.375   3.209  0.00  0.00    -0.021 A 
ATOM     27  C   UNL     1       1.822 -12.130   3.937  0.00  0.00    +0.003 A 
ATOM     28  C   UNL     1       0.660 -11.410   3.655  0.00  0.00    +0.010 A 
ATOM     29  C   UNL     1      -0.355 -11.376   4.569  0.00  0.00    +0.001 A 
ATOM     30  C   UNL     1      -0.241 -12.052   5.776  0.00  0.00    +0.002 A 
ATOM     31  C   UNL     1       0.898 -12.769   6.074  0.00  0.00    +0.026 A 
ATOM     32  C   UNL     1       1.944 -12.817   5.159  0.00  0.00    +0.047 A 
ATOM     33  N   UNL     1       3.177 -13.428   5.160  0.00  0.00    -0.360 N 
ATOM     34  C   UNL     1       3.832 -13.159   3.989  0.00  0.00    +0.087 A 
ATOM     35  H   UNL     1       3.529 -13.973   5.882  0.00  0.00    +0.165 HD
ENDBRANCH  25  26
ENDBRANCH  24  25
ENDBRANCH  22  24
ENDBRANCH   6  20
TORSDOF 7
