REMARK  Name = ZINC64490999
REMARK  7 active torsions:
REMARK  status: ('A' for Active; 'I' for Inactive)
REMARK    1  A    between atoms: C_3  and  C_27
REMARK    2  A    between atoms: C_6  and  C_7
REMARK    3  A    between atoms: C_7  and  N_8
REMARK    4  A    between atoms: C_12  and  C_20
REMARK    5  A    between atoms: N_29  and  C_30
REMARK    6  A    between atoms: C_30  and  C_31
REMARK    7  A    between atoms: C_31  and  C_32
REMARK                            x       y       z     vdW  Elec       q    Type
REMARK                         _______ _______ _______ _____ _____    ______ ____
ROOT
ATOM      1  C   UNL     1       0.201   1.228   0.162  0.00  0.00    +0.006 A 
ATOM      2  C   UNL     1       1.450   1.814   0.145  0.00  0.00    +0.013 A 
ATOM      3  C   UNL     1       2.585   1.025  -0.047  0.00  0.00    +0.037 A 
ATOM      4  C   UNL     1       2.449  -0.353  -0.220  0.00  0.00    +0.013 A 
ATOM      5  C   UNL     1       1.194  -0.927  -0.201  0.00  0.00    +0.006 A 
ATOM      6  C   UNL     1       0.073  -0.139  -0.010  0.00  0.00    -0.030 A 
ENDROOT
BRANCH   3   7
ATOM      7  C   UNL     1       3.927   1.646  -0.067  0.00  0.00    +0.244 C 
ATOM      8  O   UNL     1       4.043   2.847   0.083  0.00  0.00    -0.270 OA
ATOM      9  N   UNL     1       5.021   0.881  -0.253  0.00  0.00    -0.311 N 
ATOM     10  H   UNL     1       4.928  -0.077  -0.373  0.00  0.00    +0.149 HD
BRANCH   9  11
ATOM     11  C   UNL     1       6.350   1.497  -0.273  0.00  0.00    +0.110 C 
BRANCH  11  12
ATOM     12  C   UNL     1       7.409   0.416  -0.498  0.00  0.00    +0.073 C 
BRANCH  12  13
ATOM     13  C   UNL     1       8.777   1.050  -0.518  0.00  0.00    +0.035 A 
ATOM     14  H   UNL     1      11.441   2.198   0.628  0.00  0.00    +0.166 HD
ATOM     15  C   UNL     1       9.538   1.325   0.558  0.00  0.00    +0.105 A 
ATOM     16  N   UNL     1      10.693   1.891   0.091  0.00  0.00    -0.352 N 
ATOM     17  C   UNL     1      10.598   1.942  -1.255  0.00  0.00    +0.171 A 
ATOM     18  N   UNL     1       9.451   1.433  -1.613  0.00  0.00    -0.350 N 
ATOM     19  H   UNL     1       9.136   1.346  -2.526  0.00  0.00    +0.166 HD
ENDBRANCH  12  13
ENDBRANCH  11  12
ENDBRANCH   9  11
ENDBRANCH   3   7
BRANCH   6  20
ATOM     20  C   UNL     1      -1.295  -0.772   0.010  0.00  0.00    +0.144 C 
BRANCH  20  21
ATOM     21  N   UNL     1      -1.789  -0.910  -1.362  0.00  0.00    -0.280 N 
ATOM     22  C   UNL     1      -1.495  -2.106  -2.126  0.00  0.00    +0.163 C 
ATOM     23  C   UNL     1      -1.374  -3.399  -1.315  0.00  0.00    +0.064 C 
ATOM     24  C   UNL     1      -1.977  -4.474  -2.256  0.00  0.00    +0.103 C 
ATOM     25  N   UNL     1      -2.429  -3.736  -3.470  0.00  0.00    -0.245 NA
ATOM     26  N   UNL     1      -2.657  -2.371  -3.017  0.00  0.00    -0.222 NA
ATOM     27  C   UNL     1      -2.739  -1.305  -4.005  0.00  0.00    +0.113 C 
ATOM     28  C   UNL     1      -3.186  -0.036  -3.262  0.00  0.00    +0.113 C 
ATOM     29  C   UNL     1      -2.525   0.071  -1.919  0.00  0.00    +0.218 C 
ATOM     30  O   UNL     1      -2.658   1.106  -1.300  0.00  0.00    -0.276 OA
ATOM     31  H   UNL     1      -3.273  -4.141  -3.846  0.00  0.00    +0.142 HD
BRANCH  24  32
ATOM     32  C   UNL     1      -0.928  -5.492  -2.624  0.00  0.00    -0.029 A 
ATOM     33  C   UNL     1      -0.002  -5.205  -3.609  0.00  0.00    +0.006 A 
ATOM     34  C   UNL     1       0.960  -6.138  -3.947  0.00  0.00    +0.020 A 
ATOM     35  C   UNL     1       0.997  -7.359  -3.299  0.00  0.00    +0.041 A 
ATOM     36  C   UNL     1       0.069  -7.646  -2.312  0.00  0.00    +0.020 A 
ATOM     37  C   UNL     1      -0.889  -6.710  -1.972  0.00  0.00    +0.006 A 
ATOM     38 CL   UNL     1       2.204  -8.532  -3.723  0.00  0.00    -0.084 Cl
ENDBRANCH  24  32
ENDBRANCH  20  21
ENDBRANCH   6  20
TORSDOF 7
