REMARK  Name = ZINC10001584
REMARK  13 active torsions:
REMARK  status: ('A' for Active; 'I' for Inactive)
REMARK    1  A    between atoms: C_1  and  C_2
REMARK    2  A    between atoms: C_2  and  O_3
REMARK    3  A    between atoms: O_3  and  C_4
REMARK    4  A    between atoms: C_5  and  O_30
REMARK    5  A    between atoms: C_7  and  C_11
REMARK    6  A    between atoms: N_12  and  N_13
REMARK    7  A    between atoms: C_14  and  C_16
REMARK    8  A    between atoms: C_16  and  C_18
REMARK    9  A    between atoms: C_16  and  N_21
REMARK   10  A    between atoms: C_18  and  C_19
REMARK   11  A    between atoms: C_18  and  C_20
REMARK   12  A    between atoms: C_22  and  C_24
REMARK   13  A    between atoms: O_30  and  C_31
REMARK                            x       y       z     vdW  Elec       q    Type
REMARK                         _______ _______ _______ _____ _____    ______ ____
ROOT
ATOM      1  N   UNL     1       1.695  -1.642   7.742  0.00  0.00    -0.205 N 
ATOM      2  C   UNL     1       1.214  -2.621   8.533  0.00  0.00    +0.253 C 
ATOM      3  O   UNL     1       0.171  -3.173   8.250  0.00  0.00    -0.272 OA
ATOM      4  H   UNL     1       2.490  -1.152   8.006  0.00  0.00    +0.177 HD
ENDROOT
BRANCH   1   6
ATOM      5  C   UNL     1       1.512  -0.390   5.776  0.00  0.00    +0.138 C 
ATOM      6  N   UNL     1       1.049  -1.333   6.538  0.00  0.00    -0.188 NA
BRANCH   5  10
ATOM      7  C   UNL     1      -0.452   0.544   2.126  0.00  0.00    +0.175 A 
ATOM      8  C   UNL     1       0.688   1.251   2.501  0.00  0.00    +0.163 A 
ATOM      9  C   UNL     1       1.329   0.950   3.688  0.00  0.00    +0.059 A 
ATOM     10  C   UNL     1       0.832  -0.065   4.510  0.00  0.00    -0.001 A 
ATOM     11  C   UNL     1      -0.312  -0.770   4.128  0.00  0.00    +0.027 A 
ATOM     12  C   UNL     1      -0.950  -0.460   2.944  0.00  0.00    +0.059 A 
ATOM     13  I   UNL     1      -2.670  -1.513   2.378  0.00  0.00    -0.040 I 
BRANCH   8  14
ATOM     14  O   UNL     1       1.170   2.239   1.699  0.00  0.00    -0.491 OA
ATOM     15  C   UNL     1       2.342   2.923   2.146  0.00  0.00    +0.277 C 
ENDBRANCH   8  14
BRANCH   7  16
ATOM     16  O   UNL     1      -1.082   0.841   0.958  0.00  0.00    -0.488 OA
BRANCH  16  18
ATOM     17  C   UNL     1      -1.471   0.600  -1.414  0.00  0.00    +0.048 C 
ATOM     18  C   UNL     1      -0.655   0.134  -0.207  0.00  0.00    +0.226 C 
ENDBRANCH  16  18
ENDBRANCH   7  16
ENDBRANCH   5  10
ENDBRANCH   1   6
BRANCH   2  19
ATOM     19  C   UNL     1       1.971  -3.031   9.770  0.00  0.00    +0.163 C 
BRANCH  19  20
ATOM     20  N   UNL     1       1.561  -4.380  10.170  0.00  0.00    -0.300 N 
ATOM     21  C   UNL     1       2.397  -5.152  10.891  0.00  0.00    +0.245 C 
ATOM     22  O   UNL     1       3.492  -4.730  11.210  0.00  0.00    -0.270 OA
ATOM     23  H   UNL     1       0.688  -4.716   9.915  0.00  0.00    +0.150 HD
BRANCH  21  24
ATOM     24  C   UNL     1       1.983  -6.513  11.294  0.00  0.00    +0.037 A 
ATOM     25  C   UNL     1       0.725  -6.999  10.934  0.00  0.00    +0.013 A 
ATOM     26  C   UNL     1       0.347  -8.271  11.309  0.00  0.00    +0.001 A 
ATOM     27  C   UNL     1       1.208  -9.062  12.049  0.00  0.00    +0.000 A 
ATOM     28  C   UNL     1       2.455  -8.585  12.414  0.00  0.00    +0.001 A 
ATOM     29  C   UNL     1       2.847  -7.316  12.040  0.00  0.00    +0.013 A 
ENDBRANCH  21  24
ENDBRANCH  19  20
BRANCH  19  30
ATOM     30  C   UNL     1       1.666  -2.049  10.903  0.00  0.00    +0.012 C 
ATOM     31  C   UNL     1       0.191  -2.161  11.292  0.00  0.00    +0.009 C 
ATOM     32  C   UNL     1       2.540  -2.381  12.115  0.00  0.00    +0.009 C 
ENDBRANCH  19  30
ENDBRANCH   2  19
TORSDOF 9
