REMARK  Name = ZINC43741567
REMARK  10 active torsions:
REMARK  status: ('A' for Active; 'I' for Inactive)
REMARK    1  A    between atoms: C_1  and  C_2
REMARK    2  A    between atoms: C_2  and  C_4
REMARK    3  A    between atoms: C_10  and  C_44
REMARK    4  A    between atoms: N_22  and  O_23
REMARK    5  A    between atoms: O_23  and  C_24
REMARK    6  A    between atoms: C_24  and  C_25
REMARK    7  A    between atoms: N_27  and  C_28
REMARK    8  A    between atoms: C_28  and  C_29
REMARK    9  A    between atoms: C_29  and  C_30
REMARK   10  A    between atoms: C_42  and  C_43
REMARK                            x       y       z     vdW  Elec       q    Type
REMARK                         _______ _______ _______ _____ _____    ______ ____
ROOT
ATOM      1  C   UNL     1      -1.293  -0.775   0.010  0.00  0.00    +0.061 C 
ATOM      2  C   UNL     1      -1.793  -1.010  -1.432  0.00  0.00    +0.012 C 
ATOM      3  C   UNL     1      -2.416  -2.421  -1.454  0.00  0.00    +0.005 C 
ATOM      4  C   UNL     1      -2.270  -2.968  -0.028  0.00  0.00    -0.001 C 
ATOM      5  C   UNL     1      -1.070  -2.211   0.570  0.00  0.00    -0.019 C 
ATOM      6  C   UNL     1       0.238  -2.720  -0.040  0.00  0.00    +0.008 C 
ATOM      7  C   UNL     1       0.359  -4.231   0.143  0.00  0.00    +0.005 C 
ATOM      8  C   UNL     1      -0.789  -4.915  -0.608  0.00  0.00    +0.002 C 
ATOM      9  C   UNL     1      -2.100  -4.470   0.002  0.00  0.00    -0.003 C 
ATOM     10  C   UNL     1      -3.253  -5.133  -0.760  0.00  0.00    +0.008 C 
ATOM     11  C   UNL     1      -3.176  -6.649  -0.573  0.00  0.00    +0.031 C 
ATOM     12  C   UNL     1      -1.803  -7.124  -1.014  0.00  0.00    -0.062 C 
ATOM     13  C   UNL     1      -1.744  -8.154  -1.849  0.00  0.00    +0.026 C 
ATOM     14  C   UNL     1      -0.436  -8.666  -2.296  0.00  0.00    +0.080 C 
ATOM     15  N   UNL     1      -0.310  -9.364  -3.380  0.00  0.00    -0.089 NA
ATOM     16  C   UNL     1       0.754  -8.331  -1.417  0.00  0.00    +0.059 C 
ATOM     17  C   UNL     1       0.708  -6.829  -1.140  0.00  0.00    +0.017 C 
ATOM     18  C   UNL     1      -0.627  -6.434  -0.467  0.00  0.00    -0.007 C 
ATOM     19  C   UNL     1      -0.507  -6.759   1.024  0.00  0.00    +0.016 C 
ATOM     20  C   UNL     1      -1.061  -2.247   2.100  0.00  0.00    +0.012 C 
ENDROOT
BRANCH   1  22
ATOM     21  C   UNL     1       0.427   0.767   1.225  0.00  0.00    +0.086 C 
ATOM     22  C   UNL     1       0.002  -0.004   0.002  0.00  0.00    +0.134 C 
ATOM     23  O   UNL     1       0.699  -0.004  -0.984  0.00  0.00    -0.297 OA
ENDBRANCH   1  22
BRANCH  15  24
ATOM     24  O   UNL     1       0.966  -9.836  -3.773  0.00  0.00    -0.384 OA
BRANCH  24  25
ATOM     25  C   UNL     1       0.957 -10.591  -4.987  0.00  0.00    +0.358 C 
BRANCH  25  26
ATOM     26  C   UNL     1       2.359 -11.041  -5.308  0.00  0.00    +0.253 C 
ATOM     27  O   UNL     1       3.275 -10.745  -4.570  0.00  0.00    -0.272 OA
ATOM     28  N   UNL     1       2.595 -11.773  -6.415  0.00  0.00    -0.312 N 
ATOM     29  H   UNL     1       1.862 -12.009  -7.005  0.00  0.00    +0.149 HD
BRANCH  28  30
ATOM     30  C   UNL     1       3.957 -12.211  -6.727  0.00  0.00    +0.110 C 
BRANCH  30  31
ATOM     31  C   UNL     1       3.948 -13.018  -8.027  0.00  0.00    +0.072 C 
BRANCH  31  32
ATOM     32  C   UNL     1       5.350 -13.469  -8.348  0.00  0.00    +0.018 A 
ATOM     33  C   UNL     1       6.265 -12.735  -9.000  0.00  0.00    +0.031 A 
ATOM     34  C   UNL     1       7.479 -13.549  -9.095  0.00  0.00    -0.000 A 
ATOM     35  C   UNL     1       8.745 -13.343  -9.648  0.00  0.00    +0.010 A 
ATOM     36  C   UNL     1       9.687 -14.329  -9.569  0.00  0.00    +0.001 A 
ATOM     37  C   UNL     1       9.397 -15.534  -8.943  0.00  0.00    +0.002 A 
ATOM     38  C   UNL     1       8.155 -15.758  -8.391  0.00  0.00    +0.026 A 
ATOM     39  C   UNL     1       7.180 -14.768  -8.460  0.00  0.00    +0.047 A 
ATOM     40  N   UNL     1       5.881 -14.685  -8.012  0.00  0.00    -0.358 N 
ATOM     41  H   UNL     1       5.411 -15.385  -7.533  0.00  0.00    +0.166 HD
ENDBRANCH  31  32
ENDBRANCH  30  31
ENDBRANCH  28  30
ENDBRANCH  25  26
ENDBRANCH  24  25
ENDBRANCH  15  24
TORSDOF 7
