REMARK  Name = ZINC36648116
REMARK  9 active torsions:
REMARK  status: ('A' for Active; 'I' for Inactive)
REMARK    1  A    between atoms: C_1  and  C_2
REMARK    2  A    between atoms: N_11  and  C_12
REMARK    3  A    between atoms: C_12  and  C_13
REMARK    4  A    between atoms: C_13  and  N_14
REMARK    5  A    between atoms: N_14  and  C_15
REMARK    6  A    between atoms: N_14  and  C_16
REMARK    7  A    between atoms: C_17  and  C_19
REMARK    8  A    between atoms: N_25  and  S_26
REMARK    9  A    between atoms: S_26  and  C_29
REMARK                            x       y       z     vdW  Elec       q    Type
REMARK                         _______ _______ _______ _____ _____    ______ ____
ROOT
ATOM      1  C   UNL     1      -2.352   0.169  -0.797  0.00  0.00    +0.044 C 
ATOM      2  C   UNL     1      -2.066  -1.286  -0.529  0.00  0.00    -0.049 A 
ATOM      3  C   UNL     1      -2.080  -2.206  -1.568  0.00  0.00    +0.005 A 
ATOM      4  C   UNL     1      -1.824  -3.534  -1.352  0.00  0.00    +0.029 A 
ATOM      5  C   UNL     1      -1.535  -4.013  -0.052  0.00  0.00    +0.080 A 
ATOM      6  C   UNL     1      -1.530  -3.048   0.981  0.00  0.00    +0.041 A 
ATOM      7  C   UNL     1      -1.782  -1.718   0.753  0.00  0.00    +0.020 A 
ATOM      8  S   UNL     1      -1.137  -4.026   2.410  0.00  0.00    -0.052 S 
ATOM      9  C   UNL     1      -1.008  -5.601   1.575  0.00  0.00    +0.168 A 
ATOM     10  N   UNL     1      -1.262  -5.279   0.329  0.00  0.00    -0.224 NA
ATOM     11  N   UNL     1      -0.715  -6.846   2.109  0.00  0.00    -0.251 N 
ATOM     12  C   UNL     1      -0.481  -6.975   3.430  0.00  0.00    +0.240 C 
ATOM     13  O   UNL     1      -0.619  -6.022   4.166  0.00  0.00    -0.273 OA
ENDROOT
BRANCH  12  14
ATOM     14  C   UNL     1      -0.048  -8.305   3.992  0.00  0.00    +0.166 C 
ATOM     15  C   UNL     1       1.325  -8.159   4.656  0.00  0.00    +0.030 C 
ATOM     16  C   UNL     1       1.697  -9.474   5.344  0.00  0.00    +0.003 C 
ATOM     17  C   UNL     1       0.666  -9.792   6.430  0.00  0.00    +0.017 C 
ATOM     18  C   UNL     1      -0.714  -9.956   5.787  0.00  0.00    +0.110 C 
ATOM     19  N   UNL     1      -1.018  -8.753   5.000  0.00  0.00    -0.164 NA
BRANCH  19  20
ATOM     20  S   UNL     1      -2.426  -7.916   5.247  0.00  0.00    +0.068 S 
ATOM     21  O   UNL     1      -2.679  -7.186   4.054  0.00  0.00    -0.152 OA
ATOM     22  O   UNL     1      -3.359  -8.842   5.786  0.00  0.00    -0.152 OA
BRANCH  20  23
ATOM     23  C   UNL     1      -2.110  -6.727   6.508  0.00  0.00    +0.144 A 
ATOM     24  C   UNL     1      -1.799  -5.414   6.383  0.00  0.00    +0.038 A 
ATOM     25  C   UNL     1      -1.591  -4.662   7.526  0.00  0.00    +0.030 A 
ATOM     26  C   UNL     1      -1.704  -5.263   8.737  0.00  0.00    +0.080 A 
ATOM     27  S   UNL     1      -2.124  -6.937   8.280  0.00  0.00    -0.057 S 
ATOM     28 CL   UNL     1      -1.501  -4.579  10.319  0.00  0.00    -0.076 Cl
ENDBRANCH  20  23
ENDBRANCH  19  20
ENDBRANCH  12  14
BRANCH  11  29
ATOM     29  C   UNL     1      -0.659  -8.022   1.236  0.00  0.00    +0.097 C 
BRANCH  29  30
ATOM     30  C   UNL     1       0.759  -8.178   0.682  0.00  0.00    -0.060 C 
BRANCH  30  31
ATOM     31  N   UNL     1       0.792  -9.300  -0.267  0.00  0.00    +0.377 N 
ATOM     32  C   UNL     1      -0.047  -8.982  -1.430  0.00  0.00    -0.097 C 
ATOM     33  C   UNL     1       2.175  -9.526  -0.708  0.00  0.00    -0.097 C 
ATOM     34  H   UNL     1       0.442 -10.132   0.184  0.00  0.00    -0.083 HD
ENDBRANCH  30  31
ENDBRANCH  29  30
ENDBRANCH  11  29
TORSDOF 6
