REMARK  Name = ZINC40036351
REMARK  10 active torsions:
REMARK  status: ('A' for Active; 'I' for Inactive)
REMARK    1  A    between atoms: C_1  and  C_2
REMARK    2  A    between atoms: C_2  and  C_3
REMARK    3  A    between atoms: C_3  and  C_4
REMARK    4  A    between atoms: C_4  and  C_39
REMARK    5  A    between atoms: N_16  and  C_33
REMARK    6  A    between atoms: N_19  and  N_20
REMARK    7  A    between atoms: C_21  and  C_22
REMARK    8  A    between atoms: C_25  and  O_28
REMARK    9  A    between atoms: O_28  and  C_29
REMARK   10  A    between atoms: C_29  and  C_30
REMARK                            x       y       z     vdW  Elec       q    Type
REMARK                         _______ _______ _______ _____ _____    ______ ____
ROOT
ATOM      1  C   UNL     1       0.981  -2.885  -1.582  0.00  0.00    +0.004 C 
ATOM      2  C   UNL     1       1.458  -3.439  -2.921  0.00  0.00    +0.047 C 
ATOM      3  C   UNL     1       0.645  -2.868  -4.051  0.00  0.00    -0.037 A 
ATOM      4  C   UNL     1       1.234  -2.593  -5.268  0.00  0.00    +0.004 A 
ATOM      5  C   UNL     1       0.478  -2.072  -6.303  0.00  0.00    +0.000 A 
ATOM      6  C   UNL     1      -0.871  -1.822  -6.127  0.00  0.00    +0.001 A 
ATOM      7  C   UNL     1      -1.473  -2.090  -4.914  0.00  0.00    +0.010 A 
ATOM      8  C   UNL     1      -0.715  -2.614  -3.870  0.00  0.00    +0.004 A 
ATOM      9  C   UNL     1      -1.330  -2.903  -2.554  0.00  0.00    +0.084 A 
ATOM     10  C   UNL     1      -0.508  -3.039  -1.445  0.00  0.00    +0.050 A 
ATOM     11  C   UNL     1      -1.090  -3.321  -0.203  0.00  0.00    +0.264 A 
ATOM     12  O   UNL     1      -0.399  -3.449   0.794  0.00  0.00    -0.267 OA
ATOM     13  N   UNL     1      -2.433  -3.447  -0.133  0.00  0.00    -0.248 N 
ATOM     14  C   UNL     1      -3.197  -3.299  -1.253  0.00  0.00    +0.223 A 
ATOM     15  N   UNL     1      -2.654  -3.034  -2.424  0.00  0.00    -0.214 NA
ATOM     16  N   UNL     1      -4.558  -3.428  -1.158  0.00  0.00    -0.206 N 
ATOM     17  C   UNL     1       1.673  -3.643  -0.447  0.00  0.00    +0.017 C 
ATOM     18  H   UNL     1      -4.963  -3.680  -0.314  0.00  0.00    +0.177 HD
ENDROOT
BRANCH  13  19
ATOM     19  C   UNL     1      -3.043  -3.733   1.095  0.00  0.00    +0.053 A 
ATOM     20  C   UNL     1      -3.272  -5.050   1.469  0.00  0.00    +0.026 A 
ATOM     21  C   UNL     1      -3.874  -5.328   2.680  0.00  0.00    +0.002 A 
ATOM     22  C   UNL     1      -4.248  -4.296   3.521  0.00  0.00    +0.000 A 
ATOM     23  C   UNL     1      -4.022  -2.983   3.152  0.00  0.00    +0.002 A 
ATOM     24  C   UNL     1      -3.415  -2.699   1.944  0.00  0.00    +0.026 A 
ENDBRANCH  13  19
BRANCH  16  25
ATOM     25  N   UNL     1      -5.363  -3.195  -2.281  0.00  0.00    -0.188 NA
ATOM     26  C   UNL     1      -6.652  -3.317  -2.191  0.00  0.00    +0.138 C 
BRANCH  26  27
ATOM     27  C   UNL     1      -7.500  -3.071  -3.372  0.00  0.00    -0.005 A 
ATOM     28  C   UNL     1      -6.917  -2.713  -4.591  0.00  0.00    +0.013 A 
ATOM     29  C   UNL     1      -7.714  -2.485  -5.692  0.00  0.00    +0.046 A 
ATOM     30  C   UNL     1      -9.093  -2.610  -5.592  0.00  0.00    +0.121 A 
ATOM     31  C   UNL     1      -9.677  -2.966  -4.383  0.00  0.00    +0.046 A 
ATOM     32  C   UNL     1      -8.888  -3.202  -3.278  0.00  0.00    +0.013 A 
BRANCH  30  33
ATOM     33  O   UNL     1      -9.874  -2.384  -6.680  0.00  0.00    -0.483 OA
BRANCH  33  34
ATOM     34  C   UNL     1     -11.286  -2.530  -6.508  0.00  0.00    +0.324 C 
BRANCH  34  35
ATOM     35  C   UNL     1     -11.983  -2.242  -7.812  0.00  0.00    +0.248 C 
ATOM     36  O   UNL     1     -11.336  -1.940  -8.792  0.00  0.00    -0.272 OA
ATOM     37  N   UNL     1     -13.327  -2.319  -7.889  0.00  0.00    -0.327 N 
ATOM     38  H   UNL     1     -13.844  -2.560  -7.104  0.00  0.00    +0.145 HD
ATOM     39  H   UNL     1     -13.776  -2.133  -8.728  0.00  0.00    +0.145 HD
ENDBRANCH  34  35
ENDBRANCH  33  34
ENDBRANCH  30  33
ENDBRANCH  26  27
ENDBRANCH  16  25
BRANCH   1  40
ATOM     40  C   UNL     1       1.344  -1.401  -1.492  0.00  0.00    +0.011 C 
BRANCH  40  42
ATOM     41  C   UNL     1       1.257   0.637  -0.050  0.00  0.00    +0.004 C 
ATOM     42  C   UNL     1       0.893  -0.847  -0.139  0.00  0.00    -0.003 C 
ENDBRANCH  40  42
ENDBRANCH   1  40
TORSDOF 8
