REMARK  Name = ZINC33626656
REMARK  9 active torsions:
REMARK  status: ('A' for Active; 'I' for Inactive)
REMARK    1  A    between atoms: C_6  and  C_7
REMARK    2  A    between atoms: C_7  and  C_8
REMARK    3  A    between atoms: C_8  and  N_9
REMARK    4  A    between atoms: C_10  and  C_12
REMARK    5  A    between atoms: C_15  and  C_17
REMARK    6  A    between atoms: C_17  and  C_19
REMARK    7  A    between atoms: C_17  and  N_27
REMARK    8  A    between atoms: C_19  and  C_20
REMARK    9  A    between atoms: C_23  and  O_26
REMARK                            x       y       z     vdW  Elec       q    Type
REMARK                         _______ _______ _______ _____ _____    ______ ____
ROOT
ATOM      1  C   UNL     1       2.433   0.936  -0.016  0.00  0.00    +0.163 A 
ATOM      2  C   UNL     1       3.673   1.497  -0.031  0.00  0.00    +0.230 A 
ATOM      3  O   UNL     1       4.559   0.488  -0.039  0.00  0.00    -0.449 OA
ATOM      4  C   UNL     1       3.879  -0.667  -0.038  0.00  0.00    +0.182 A 
ATOM      5  N   UNL     1       2.604  -0.414  -0.025  0.00  0.00    -0.210 NA
ENDROOT
BRANCH   1   7
ATOM      6  N   UNL     1      -0.011   0.966   0.007  0.00  0.00    -0.310 N 
ATOM      7  C   UNL     1       1.147   1.655   0.000  0.00  0.00    +0.266 C 
ATOM      8  O   UNL     1       1.130   2.872   0.007  0.00  0.00    -0.268 OA
ATOM      9  H   UNL     1       0.004  -0.134   0.006  0.00  0.00    +0.149 HD
BRANCH   6  10
ATOM     10  C   UNL     1      -1.290   1.681   0.017  0.00  0.00    +0.109 C 
BRANCH  10  11
ATOM     11  C   UNL     1      -2.439   0.671   0.017  0.00  0.00    +0.054 C 
BRANCH  11  17
ATOM     12  C   UNL     1      -4.354   1.732   1.230  0.00  0.00    +0.005 A 
ATOM     13  C   UNL     1      -5.558   2.412   1.239  0.00  0.00    +0.015 A 
ATOM     14  C   UNL     1      -6.168   2.756   0.046  0.00  0.00    +0.018 A 
ATOM     15  C   UNL     1      -5.569   2.425  -1.156  0.00  0.00    +0.015 A 
ATOM     16  C   UNL     1      -4.363   1.751  -1.165  0.00  0.00    +0.005 A 
ATOM     17  C   UNL     1      -3.754   1.407   0.028  0.00  0.00    -0.046 A 
ATOM     18 BR   UNL     1      -7.818   3.679   0.059  0.00  0.00    -0.050 Br
ENDBRANCH  11  17
ENDBRANCH  10  11
ENDBRANCH   6  10
ENDBRANCH   1   7
BRANCH   4  19
ATOM     19  C   UNL     1       4.495  -2.043  -0.051  0.00  0.00    +0.017 C 
BRANCH  19  20
ATOM     20  N   UNL     1       5.579  -2.085  -1.041  0.00  0.00    +0.386 N 
ATOM     21  H   UNL     1       6.029  -3.088  -1.050  0.00  0.00    -0.089 HD
ATOM     22  H   UNL     1       6.346  -1.342  -0.777  0.00  0.00    -0.089 HD
ATOM     23  H   UNL     1       5.175  -1.855  -2.038  0.00  0.00    -0.089 HD
ENDBRANCH  19  20
BRANCH  19  24
ATOM     24  C   UNL     1       5.057  -2.362   1.335  0.00  0.00    +0.028 C 
BRANCH  24  25
ATOM     25  C   UNL     1       5.563  -3.782   1.358  0.00  0.00    -0.048 A 
ATOM     26  C   UNL     1       4.715  -4.811   1.724  0.00  0.00    +0.007 A 
ATOM     27  C   UNL     1       5.175  -6.113   1.740  0.00  0.00    +0.045 A 
ATOM     28  C   UNL     1       6.491  -6.388   1.398  0.00  0.00    +0.117 A 
ATOM     29  C   UNL     1       7.341  -5.353   1.036  0.00  0.00    +0.045 A 
ATOM     30  C   UNL     1       6.875  -4.052   1.016  0.00  0.00    +0.007 A 
BRANCH  28  31
ATOM     31  O   UNL     1       6.947  -7.668   1.418  0.00  0.00    -0.507 OA
ATOM     32  H   UNL     1       7.990  -7.884   1.146  0.00  0.00    +0.292 HD
ENDBRANCH  28  31
ENDBRANCH  24  25
ENDBRANCH  19  24
ENDBRANCH   4  19
TORSDOF 9
