REMARK  Name = ZINC12555713
REMARK  7 active torsions:
REMARK  status: ('A' for Active; 'I' for Inactive)
REMARK    1  A    between atoms: C_1  and  C_2
REMARK    2  A    between atoms: C_2  and  O_3
REMARK    3  A    between atoms: O_3  and  C_4
REMARK    4  A    between atoms: C_9  and  N_10
REMARK    5  A    between atoms: C_11  and  N_33
REMARK    6  A    between atoms: C_12  and  S_23
REMARK    7  A    between atoms: S_23  and  C_26
REMARK                            x       y       z     vdW  Elec       q    Type
REMARK                         _______ _______ _______ _____ _____    ______ ____
ROOT
ATOM      1  N   UNL     1       2.028  -1.502   3.370  0.00  0.00    -0.276 N 
ATOM      2  C   UNL     1       3.307  -1.001   3.344  0.00  0.00    +0.130 A 
ATOM      3  C   UNL     1       3.532  -0.210   4.419  0.00  0.00    +0.160 A 
ATOM      4  C   UNL     1       2.351  -0.180   5.198  0.00  0.00    +0.136 A 
ATOM      5  C   UNL     1       1.380  -1.026   4.492  0.00  0.00    +0.168 A 
ATOM      6  N   UNL     1       0.177  -1.195   4.993  0.00  0.00    -0.225 NA
ATOM      7  C   UNL     1      -0.159  -0.586   6.138  0.00  0.00    +0.092 A 
ATOM      8  C   UNL     1      -1.447  -0.756   6.678  0.00  0.00    +0.030 A 
ATOM      9  C   UNL     1      -1.781  -0.135   7.841  0.00  0.00    +0.002 A 
ATOM     10  C   UNL     1      -0.864   0.673   8.511  0.00  0.00    +0.002 A 
ATOM     11  C   UNL     1       0.390   0.863   8.020  0.00  0.00    +0.030 A 
ATOM     12  C   UNL     1       0.773   0.236   6.819  0.00  0.00    +0.090 A 
ATOM     13  N   UNL     1       2.005   0.415   6.328  0.00  0.00    -0.240 NA
ENDROOT
BRANCH   1  19
ATOM     14  C   UNL     1       0.802  -1.825   1.306  0.00  0.00    +0.144 A 
ATOM     15  C   UNL     1       0.256  -2.673   0.356  0.00  0.00    +0.048 A 
ATOM     16  C   UNL     1       0.368  -4.043   0.505  0.00  0.00    +0.004 A 
ATOM     17  C   UNL     1       1.024  -4.571   1.602  0.00  0.00    +0.002 A 
ATOM     18  C   UNL     1       1.572  -3.732   2.554  0.00  0.00    +0.030 A 
ATOM     19  C   UNL     1       1.468  -2.356   2.408  0.00  0.00    +0.091 A 
BRANCH  14  20
ATOM     20  O   UNL     1       0.693  -0.477   1.160  0.00  0.00    -0.490 OA
BRANCH  20  22
ATOM     21  C   UNL     1      -0.019   1.526   0.010  0.00  0.00    +0.048 C 
ATOM     22  C   UNL     1       0.002  -0.004   0.002  0.00  0.00    +0.226 C 
ENDBRANCH  20  22
ENDBRANCH  14  20
ENDBRANCH   1  19
BRANCH   3  23
ATOM     23  S   UNL     1       5.034   0.636   4.784  0.00  0.00    +0.030 S 
ATOM     24  O   UNL     1       5.043   0.859   6.188  0.00  0.00    -0.164 OA
ATOM     25  O   UNL     1       6.071  -0.072   4.119  0.00  0.00    -0.164 OA
BRANCH  23  26
ATOM     26  C   UNL     1       4.938   2.222   4.022  0.00  0.00    +0.094 A 
ATOM     27  C   UNL     1       5.399   2.397   2.731  0.00  0.00    +0.030 A 
ATOM     28  C   UNL     1       5.320   3.639   2.131  0.00  0.00    +0.040 A 
ATOM     29  C   UNL     1       4.788   4.711   2.827  0.00  0.00    +0.124 A 
ATOM     30  C   UNL     1       4.330   4.536   4.122  0.00  0.00    +0.040 A 
ATOM     31  C   UNL     1       4.406   3.291   4.719  0.00  0.00    +0.030 A 
ATOM     32  F   UNL     1       4.714   5.927   2.243  0.00  0.00    -0.205 F 
ENDBRANCH  23  26
ENDBRANCH   3  23
BRANCH   2  33
ATOM     33  N   UNL     1       4.237  -1.268   2.355  0.00  0.00    -0.343 N 
ATOM     34  H   UNL     1       4.002  -1.847   1.612  0.00  0.00    +0.144 HD
ATOM     35  H   UNL     1       5.123  -0.877   2.404  0.00  0.00    +0.144 HD
ENDBRANCH   2  33
TORSDOF 6
