REMARK  Name = ZINC63375186
REMARK  9 active torsions:
REMARK  status: ('A' for Active; 'I' for Inactive)
REMARK    1  A    between atoms: C_1  and  N_2
REMARK    2  A    between atoms: C_15  and  C_17
REMARK    3  A    between atoms: N_23  and  C_26
REMARK    4  A    between atoms: C_26  and  C_27
REMARK    5  A    between atoms: C_27  and  C_28
REMARK    6  A    between atoms: C_31  and  O_36
REMARK    7  A    between atoms: C_32  and  O_34
REMARK    8  A    between atoms: O_34  and  C_35
REMARK    9  A    between atoms: O_36  and  C_37
REMARK                            x       y       z     vdW  Elec       q    Type
REMARK                         _______ _______ _______ _____ _____    ______ ____
ROOT
ATOM      1  C   UNL     1       0.135   0.171   2.427  0.00  0.00    +0.070 A 
ATOM      2  H   UNL     1       0.953   1.940   5.014  0.00  0.00    +0.173 HD
ATOM      3  C   UNL     1       0.936   0.863   3.286  0.00  0.00    +0.259 A 
ATOM      4  N   UNL     1       0.387   1.446   4.400  0.00  0.00    -0.275 N 
ATOM      5  C   UNL     1      -0.932   1.339   4.646  0.00  0.00    +0.332 A 
ATOM      6  O   UNL     1      -1.401   1.863   5.637  0.00  0.00    -0.246 OA
ATOM      7  N   UNL     1      -1.739   0.660   3.809  0.00  0.00    -0.260 N 
ATOM      8  C   UNL     1      -1.241   0.077   2.701  0.00  0.00    +0.262 A 
ATOM      9  O   UNL     1      -1.977  -0.532   1.945  0.00  0.00    -0.267 OA
ATOM     10  O   UNL     1       2.260   0.972   3.044  0.00  0.00    -0.267 OA
ENDROOT
BRANCH   1  24
ATOM     11  C   UNL     1      -0.018   1.465   0.010  0.00  0.00    -0.095 C 
ATOM     12  N   UNL     1       0.002  -0.004   0.002  0.00  0.00    +0.384 N 
ATOM     13  C   UNL     1       0.636  -0.465  -1.235  0.00  0.00    -0.074 C 
ATOM     14  C   UNL     1       0.525  -1.996  -1.356  0.00  0.00    +0.015 C 
ATOM     15  C   UNL     1       1.028  -2.555  -0.048  0.00  0.00    -0.041 C 
ATOM     16  C   UNL     1       1.901  -3.508   0.242  0.00  0.00    -0.001 A 
ATOM     17  C   UNL     1       2.609  -4.483  -0.604  0.00  0.00    +0.010 A 
ATOM     18  C   UNL     1       3.472  -5.316   0.035  0.00  0.00    +0.001 A 
ATOM     19  C   UNL     1       3.700  -5.279   1.414  0.00  0.00    +0.002 A 
ATOM     20  C   UNL     1       3.084  -4.424   2.269  0.00  0.00    +0.026 A 
ATOM     21  C   UNL     1       2.146  -3.505   1.717  0.00  0.00    +0.043 A 
ATOM     22  N   UNL     1       1.402  -2.610   2.300  0.00  0.00    -0.379 N 
ATOM     23  C   UNL     1       0.545  -1.997   1.288  0.00  0.00    +0.097 C 
ATOM     24  C   UNL     1       0.716  -0.479   1.198  0.00  0.00    -0.000 C 
ATOM     25  H   UNL     1       1.414  -2.389   3.244  0.00  0.00    +0.160 HD
ATOM     26  H   UNL     1      -0.947  -0.345   0.029  0.00  0.00    -0.081 HD
ENDBRANCH   1  24
BRANCH   7  27
ATOM     27  C   UNL     1      -3.171   0.560   4.103  0.00  0.00    +0.134 C 
BRANCH  27  28
ATOM     28  C   UNL     1      -3.908   1.734   3.455  0.00  0.00    +0.057 C 
BRANCH  28  29
ATOM     29  C   UNL     1      -5.380   1.630   3.756  0.00  0.00    -0.042 A 
ATOM     30  C   UNL     1      -6.212   0.929   2.903  0.00  0.00    +0.007 A 
ATOM     31  C   UNL     1      -7.564   0.832   3.175  0.00  0.00    +0.049 A 
ATOM     32  C   UNL     1      -8.088   1.437   4.306  0.00  0.00    +0.161 A 
ATOM     33  C   UNL     1      -7.251   2.142   5.166  0.00  0.00    +0.162 A 
ATOM     34  C   UNL     1      -5.896   2.232   4.889  0.00  0.00    +0.053 A 
BRANCH  33  35
ATOM     35  O   UNL     1      -7.761   2.737   6.277  0.00  0.00    -0.491 OA
ATOM     36  C   UNL     1      -6.843   3.444   7.114  0.00  0.00    +0.277 C 
ENDBRANCH  33  35
BRANCH  32  37
ATOM     37  O   UNL     1      -9.418   1.342   4.576  0.00  0.00    -0.491 OA
ATOM     38  C   UNL     1     -10.216   0.603   3.649  0.00  0.00    +0.277 C 
ENDBRANCH  32  37
ENDBRANCH  28  29
ENDBRANCH  27  28
ENDBRANCH   7  27
TORSDOF 6
