REMARK  Name = ZINC40548504
REMARK  8 active torsions:
REMARK  status: ('A' for Active; 'I' for Inactive)
REMARK    1  A    between atoms: C_1  and  C_2
REMARK    2  A    between atoms: C_2  and  C_4
REMARK    3  A    between atoms: C_2  and  N_7
REMARK    4  A    between atoms: C_4  and  C_5
REMARK    5  A    between atoms: C_4  and  C_6
REMARK    6  A    between atoms: N_10  and  C_11
REMARK    7  A    between atoms: C_11  and  C_15
REMARK    8  A    between atoms: CA_19  and  C_21
REMARK                            x       y       z     vdW  Elec       q    Type
REMARK                         _______ _______ _______ _____ _____    ______ ____
ROOT
ATOM      1  C   UNL     1      -3.968  -1.382   2.464  0.00  0.00    +0.094 C 
ATOM      2  C   UNL     1      -5.388  -1.692   1.962  0.00  0.00    +0.034 C 
ATOM      3  C   UNL     1      -5.750  -0.244   2.333  0.00  0.00    +0.005 C 
ATOM      4  C   UNL     1      -4.604  -0.302   3.356  0.00  0.00    +0.034 C 
ENDROOT
BRANCH   1   8
ATOM      5  N   UNL     1      -1.076   0.182   0.821  0.00  0.00    -0.297 N 
ATOM      6  C   UNL     1      -1.936  -0.227   1.775  0.00  0.00    +0.301 C 
ATOM      7  O   UNL     1      -1.677  -0.041   2.948  0.00  0.00    -0.253 OA
ATOM      8  N   UNL     1      -3.084  -0.843   1.428  0.00  0.00    -0.287 N 
ATOM      9  H   UNL     1      -1.283   0.034  -0.115  0.00  0.00    +0.151 HD
ATOM     10  H   UNL     1      -3.325  -0.928   0.492  0.00  0.00    +0.151 HD
BRANCH   5  12
ATOM     11  C   UNL     1      -0.091   2.345   1.397  0.00  0.00    +0.028 C 
ATOM     12  C   UNL     1       0.172   0.851   1.198  0.00  0.00    +0.074 C 
BRANCH  12  13
ATOM     13  C   UNL     1       1.209   0.657   0.090  0.00  0.00    +0.003 C 
ATOM     14  C   UNL     1       0.737   1.368  -1.180  0.00  0.00    +0.009 C 
ATOM     15  C   UNL     1       2.548   1.248   0.537  0.00  0.00    +0.009 C 
ENDBRANCH  12  13
ENDBRANCH   5  12
ENDBRANCH   1   8
BRANCH   1  16
ATOM     16  C   UNL     1      -3.340  -2.512   3.239  0.00  0.00    +0.132 A 
ATOM     17  N   UNL     1      -2.872  -3.670   2.705  0.00  0.00    -0.346 N 
ATOM     18  H   UNL     1      -2.884  -3.912   1.766  0.00  0.00    +0.167 HD
ATOM     19  C   UNL     1      -2.387  -4.425   3.716  0.00  0.00    +0.119 A 
ATOM     20  CA  UNL     1      -2.567  -3.710   4.867  0.00  0.00    +0.170 A 
ATOM     21  N   UNL     1      -3.154  -2.532   4.527  0.00  0.00    -0.224 NA
BRANCH  20  22
ATOM     22  C   UNL     1      -2.191  -4.134   6.222  0.00  0.00    +0.406 C 
ATOM     23  O   UNL     1      -1.661  -5.223   6.397  0.00  0.00    -0.239 OA
ATOM     24  OXT UNL     1      -2.407  -3.398   7.175  0.00  0.00    -0.239 OA
ENDBRANCH  20  22
ENDBRANCH   1  16
TORSDOF 5
