REMARK  Name = ZINC57530842
REMARK  13 active torsions:
REMARK  status: ('A' for Active; 'I' for Inactive)
REMARK    1  A    between atoms: C_1  and  C_2
REMARK    2  A    between atoms: C_7  and  C_15
REMARK    3  A    between atoms: C_13  and  C_14
REMARK    4  A    between atoms: C_15  and  C_17
REMARK    5  A    between atoms: C_15  and  N_26
REMARK    6  A    between atoms: N_21  and  C_22
REMARK    7  A    between atoms: C_22  and  C_23
REMARK    8  A    between atoms: C_22  and  C_24
REMARK    9  A    between atoms: C_22  and  C_25
REMARK   10  A    between atoms: N_26  and  C_27
REMARK   11  A    between atoms: N_26  and  C_35
REMARK   12  A    between atoms: C_27  and  C_28
REMARK   13  A    between atoms: C_35  and  C_36
REMARK                            x       y       z     vdW  Elec       q    Type
REMARK                         _______ _______ _______ _____ _____    ______ ____
ROOT
ATOM      1  C   UNL     1      -0.345  -6.475   0.856  0.00  0.00    +0.163 C 
ENDROOT
BRANCH   1   8
ATOM      2  C   UNL     1      -2.489   1.207   0.745  0.00  0.00    +0.044 C 
ATOM      3  C   UNL     1      -2.304  -0.286   0.832  0.00  0.00    -0.046 A 
ATOM      4  C   UNL     1      -3.373  -1.090   1.203  0.00  0.00    +0.004 A 
ATOM      5  C   UNL     1      -3.227  -2.446   1.288  0.00  0.00    +0.010 A 
ATOM      6  C   UNL     1      -1.990  -3.029   0.997  0.00  0.00    -0.001 A 
ATOM      7  C   UNL     1      -1.798  -4.478   1.077  0.00  0.00    +0.021 A 
ATOM      8  C   UNL     1      -0.576  -4.987   0.783  0.00  0.00    +0.042 A 
ATOM      9  C   UNL     1       0.480  -4.129   0.410  0.00  0.00    +0.254 A 
ATOM     10  O   UNL     1       1.571  -4.608   0.150  0.00  0.00    -0.268 OA
ATOM     11  N   UNL     1       0.314  -2.797   0.334  0.00  0.00    -0.322 N 
ATOM     12  H   UNL     1       1.062  -2.236   0.074  0.00  0.00    +0.169 HD
ATOM     13  C   UNL     1      -0.903  -2.217   0.620  0.00  0.00    +0.052 A 
ATOM     14  C   UNL     1      -1.078  -0.840   0.535  0.00  0.00    -0.024 A 
ATOM     15  C   UNL     1       0.072   0.045   0.127  0.00  0.00    +0.046 C 
ENDBRANCH   1   8
BRANCH   1  16
ATOM     16  C   UNL     1      -1.562  -7.144   1.442  0.00  0.00    +0.174 A 
ATOM     17  N   UNL     1      -2.065  -6.947   2.636  0.00  0.00    -0.111 NA
ATOM     18  N   UNL     1      -3.101  -7.702   2.761  0.00  0.00    -0.023 NA
ATOM     19  N   UNL     1      -3.272  -8.376   1.678  0.00  0.00    -0.043 NA
ATOM     20  N   UNL     1      -2.346  -8.056   0.838  0.00  0.00    -0.222 N 
BRANCH  20  21
ATOM     21  C   UNL     1      -2.178  -8.588  -0.516  0.00  0.00    +0.059 C 
ATOM     22  C   UNL     1      -0.844  -9.332  -0.610  0.00  0.00    +0.036 C 
ATOM     23  C   UNL     1      -3.323  -9.553  -0.831  0.00  0.00    +0.036 C 
ATOM     24  C   UNL     1      -2.191  -7.435  -1.522  0.00  0.00    +0.036 C 
ENDBRANCH  20  21
ENDBRANCH   1  16
BRANCH   1  25
ATOM     25  N   UNL     1       0.821  -6.748   1.707  0.00  0.00    -0.277 NA
BRANCH  25  26
ATOM     26  C   UNL     1       1.271  -8.138   1.553  0.00  0.00    +0.121 C 
BRANCH  26  27
ATOM     27  C   UNL     1       2.566  -8.332   2.298  0.00  0.00    -0.033 A 
ATOM     28  C   UNL     1       3.765  -7.990   1.702  0.00  0.00    +0.006 A 
ATOM     29  C   UNL     1       4.953  -8.169   2.385  0.00  0.00    +0.020 A 
ATOM     30  C   UNL     1       4.942  -8.689   3.667  0.00  0.00    +0.041 A 
ATOM     31  C   UNL     1       3.742  -9.031   4.263  0.00  0.00    +0.020 A 
ATOM     32  C   UNL     1       2.554  -8.848   3.581  0.00  0.00    +0.006 A 
ATOM     33 CL   UNL     1       6.434  -8.914   4.526  0.00  0.00    -0.084 Cl
ENDBRANCH  26  27
ENDBRANCH  25  26
BRANCH  25  34
ATOM     34  C   UNL     1       0.530  -6.442   3.114  0.00  0.00    +0.160 C 
BRANCH  34  35
ATOM     35  C   UNL     1       0.598  -4.952   3.328  0.00  0.00    +0.119 A 
ATOM     36  C   UNL     1      -0.454  -4.115   3.377  0.00  0.00    +0.046 A 
ATOM     37  C   UNL     1       0.065  -2.818   3.594  0.00  0.00    +0.041 A 
ATOM     38  C   UNL     1       1.403  -2.939   3.664  0.00  0.00    +0.195 A 
ATOM     39  O   UNL     1       1.720  -4.235   3.508  0.00  0.00    -0.467 OA
ENDBRANCH  34  35
ENDBRANCH  25  34
ENDBRANCH   1  25
TORSDOF 8
