REMARK  Name = ZINC13640546
REMARK  11 active torsions:
REMARK  status: ('A' for Active; 'I' for Inactive)
REMARK    1  A    between atoms: C_1  and  C_2
REMARK    2  A    between atoms: C_2  and  N_62
REMARK    3  A    between atoms: C_3  and  C_4
REMARK    4  A    between atoms: C_3  and  N_62
REMARK    5  A    between atoms: C_5  and  C_6
REMARK    6  A    between atoms: C_5  and  N_62
REMARK    7  A    between atoms: C_6  and  N_7
REMARK    8  A    between atoms: C_8  and  C_10
REMARK    9  A    between atoms: C_23  and  C_26
REMARK   10  A    between atoms: C_29  and  O_33
REMARK   11  A    between atoms: C_31  and  O_32
REMARK                            x       y       z     vdW  Elec       q    Type
REMARK                         _______ _______ _______ _____ _____    ______ ____
ROOT
ATOM      1  C   UNL     1      -1.244   3.133   0.030  0.00  0.00    +0.037 A 
ATOM      2  C   UNL     1      -1.221   1.736  -0.008  0.00  0.00    +0.015 A 
ATOM      3  C   UNL     1      -0.019   1.069  -0.027  0.00  0.00    +0.024 A 
ATOM      4  C   UNL     1       1.182   1.774  -0.020  0.00  0.00    +0.031 A 
ATOM      5  C   UNL     1       1.158   3.176   0.027  0.00  0.00    -0.019 A 
ATOM      6  C   UNL     1      -0.041   3.845   0.044  0.00  0.00    +0.019 A 
ATOM      7  C   UNL     1       2.459   3.878   0.079  0.00  0.00    +0.049 C 
ATOM      8  C   UNL     1       2.622   5.271  -0.410  0.00  0.00    -0.023 C 
ATOM      9  C   UNL     1       3.857   5.416  -0.873  0.00  0.00    -0.030 C 
ATOM     10  C   UNL     1       4.618   4.093  -0.756  0.00  0.00    +0.033 C 
ATOM     11  C   UNL     1       3.471   3.074  -0.789  0.00  0.00    +0.029 C 
ATOM     12  C   UNL     1       3.687   1.765  -0.051  0.00  0.00    +0.108 C 
ATOM     13  N   UNL     1       2.383   1.068  -0.082  0.00  0.00    -0.336 N 
ATOM     14  H   UNL     1       2.363   0.101  -0.146  0.00  0.00    +0.147 HD
ENDROOT
BRANCH  12  15
ATOM     15  C   UNL     1       4.735   0.939  -0.752  0.00  0.00    +0.015 A 
ATOM     16  C   UNL     1       4.355  -0.032  -1.660  0.00  0.00    +0.012 A 
ATOM     17  C   UNL     1       5.314  -0.787  -2.308  0.00  0.00    +0.046 A 
ATOM     18  C   UNL     1       6.660  -0.581  -2.040  0.00  0.00    +0.120 A 
ATOM     19  C   UNL     1       7.043   0.389  -1.127  0.00  0.00    +0.091 A 
ATOM     20  C   UNL     1       6.079   1.149  -0.482  0.00  0.00    +0.125 A 
BRANCH  20  21
ATOM     21  O   UNL     1       6.452   2.101   0.414  0.00  0.00    -0.506 OA
ATOM     22  H   UNL     1       6.522   1.779   1.324  0.00  0.00    +0.292 HD
ENDBRANCH  20  21
BRANCH  18  23
ATOM     23  O   UNL     1       7.601  -1.327  -2.674  0.00  0.00    -0.507 OA
ATOM     24  H   UNL     1       7.837  -2.141  -2.208  0.00  0.00    +0.292 HD
ENDBRANCH  18  23
ENDBRANCH  12  15
BRANCH   1  26
ATOM     25  N   UNL     1      -3.689   3.164   0.034  0.00  0.00    -0.313 N 
ATOM     26  C   UNL     1      -2.531   3.853   0.048  0.00  0.00    +0.244 C 
ATOM     27  O   UNL     1      -2.547   5.069   0.076  0.00  0.00    -0.270 OA
ATOM     28  H   UNL     1      -3.676   2.194   0.012  0.00  0.00    +0.149 HD
BRANCH  25  29
ATOM     29  C   UNL     1      -4.968   3.879   0.053  0.00  0.00    +0.086 C 
BRANCH  29  30
ATOM     30  C   UNL     1      -6.117   2.869   0.032  0.00  0.00    -0.060 C 
BRANCH  30  31
ATOM     31  N   UNL     1      -7.392   3.600   0.194  0.00  0.00    +0.380 N 
ATOM     32  H   UNL     1      -7.273   4.322   0.914  0.00  0.00    -0.082 HD
BRANCH  31  34
ATOM     33  C   UNL     1      -8.961   5.173  -0.829  0.00  0.00    -0.017 C 
ATOM     34  C   UNL     1      -7.769   4.248  -1.080  0.00  0.00    -0.082 C 
ENDBRANCH  31  34
BRANCH  31  35
ATOM     35  C   UNL     1      -8.457   2.668   0.621  0.00  0.00    -0.082 C 
ATOM     36  C   UNL     1      -8.281   2.373   2.112  0.00  0.00    -0.017 C 
ENDBRANCH  31  35
ENDBRANCH  30  31
ENDBRANCH  29  30
ENDBRANCH  25  29
ENDBRANCH   1  26
TORSDOF 9
