REMARK  Name = ZINC64890817
REMARK  8 active torsions:
REMARK  status: ('A' for Active; 'I' for Inactive)
REMARK    1  A    between atoms: C_1  and  C_2
REMARK    2  A    between atoms: C_2  and  C_3
REMARK    3  A    between atoms: C_3  and  N_4
REMARK    4  A    between atoms: C_8  and  C_17
REMARK    5  A    between atoms: C_19  and  C_23
REMARK    6  A    between atoms: C_23  and  N_24
REMARK    7  A    between atoms: N_24  and  S_25
REMARK    8  A    between atoms: S_25  and  C_28
REMARK                            x       y       z     vdW  Elec       q    Type
REMARK                         _______ _______ _______ _____ _____    ______ ____
ROOT
ATOM      1  C   UNL     1      -3.448  -4.821   3.699  0.00  0.00    +0.134 C 
ATOM      2  N   UNL     1      -4.128  -4.378   4.712  0.00  0.00    -0.341 N 
ATOM      3  C   UNL     1      -5.136  -5.381   5.076  0.00  0.00    +0.258 C 
ATOM      4  O   UNL     1      -4.954  -6.461   4.148  0.00  0.00    -0.247 OA
ATOM      5  N   UNL     1      -3.888  -6.059   3.302  0.00  0.00    -0.247 N 
ATOM      6  H   UNL     1      -3.527  -6.576   2.565  0.00  0.00    +0.196 HD
ATOM      7  H   UNL     1      -3.993  -3.526   5.155  0.00  0.00    +0.164 HD
ENDROOT
BRANCH   1  12
ATOM      8  N   UNL     1       0.762  -1.976   1.234  0.00  0.00    -0.302 N 
ATOM      9  C   UNL     1      -0.269  -2.686   1.837  0.00  0.00    +0.068 A 
ATOM     10  C   UNL     1      -1.314  -1.996   2.445  0.00  0.00    +0.028 A 
ATOM     11  C   UNL     1      -2.342  -2.684   3.047  0.00  0.00    +0.013 A 
ATOM     12  C   UNL     1      -2.342  -4.082   3.051  0.00  0.00    +0.019 A 
ATOM     13  C   UNL     1      -1.300  -4.779   2.444  0.00  0.00    +0.039 A 
ATOM     14  C   UNL     1      -0.263  -4.084   1.837  0.00  0.00    +0.067 A 
ATOM     15  N   UNL     1       0.775  -4.788   1.232  0.00  0.00    -0.316 N 
ATOM     16  H   UNL     1       0.770  -5.758   1.236  0.00  0.00    +0.169 HD
ATOM     17  C   UNL     1       1.787  -4.123   0.639  0.00  0.00    +0.314 A 
ATOM     18  O   UNL     1       2.695  -4.732   0.110  0.00  0.00    -0.262 OA
ATOM     19  C   UNL     1       1.777  -2.631   0.636  0.00  0.00    +0.316 A 
ATOM     20  O   UNL     1       2.677  -2.013   0.103  0.00  0.00    -0.262 OA
BRANCH   8  21
ATOM     21  C   UNL     1       0.742  -0.511   1.242  0.00  0.00    +0.125 C 
BRANCH  21  23
ATOM     22  C   UNL     1      -0.019   1.526   0.010  0.00  0.00    +0.005 C 
ATOM     23  C   UNL     1       0.002  -0.004   0.002  0.00  0.00    +0.018 C 
ENDBRANCH  21  23
ENDBRANCH   8  21
ENDBRANCH   1  12
BRANCH   3  24
ATOM     24  C   UNL     1      -4.905  -5.868   6.508  0.00  0.00    +0.162 C 
BRANCH  24  25
ATOM     25  N   UNL     1      -3.573  -6.468   6.612  0.00  0.00    -0.186 NA
ATOM     26  H   UNL     1      -3.083  -6.704   5.808  0.00  0.00    +0.148 HD
BRANCH  25  27
ATOM     27  S   UNL     1      -2.901  -6.742   8.101  0.00  0.00    +0.059 S 
ATOM     28  O   UNL     1      -1.637  -7.348   7.870  0.00  0.00    -0.153 OA
ATOM     29  O   UNL     1      -3.046  -5.537   8.840  0.00  0.00    -0.153 OA
BRANCH  27  30
ATOM     30  C   UNL     1      -3.899  -7.950   8.907  0.00  0.00    +0.105 A 
ATOM     31  C   UNL     1      -4.971  -7.554   9.685  0.00  0.00    +0.028 A 
ATOM     32  C   UNL     1      -5.753  -8.502  10.318  0.00  0.00    +0.002 A 
ATOM     33  C   UNL     1      -5.464  -9.845  10.172  0.00  0.00    +0.000 A 
ATOM     34  C   UNL     1      -4.393 -10.242   9.394  0.00  0.00    +0.002 A 
ATOM     35  C   UNL     1      -3.613  -9.294   8.758  0.00  0.00    +0.028 A 
ENDBRANCH  27  30
ENDBRANCH  25  27
ENDBRANCH  24  25
ENDBRANCH   3  24
TORSDOF 7
