REMARK  Name = ZINC12886368
REMARK  8 active torsions:
REMARK  status: ('A' for Active; 'I' for Inactive)
REMARK    1  A    between atoms: C_1  and  C_2
REMARK    2  A    between atoms: C_17  and  C_19
REMARK    3  A    between atoms: C_19  and  C_20
REMARK    4  A    between atoms: C_20  and  S_21
REMARK    5  A    between atoms: S_21  and  C_22
REMARK    6  A    between atoms: N_25  and  C_28
REMARK    7  A    between atoms: C_28  and  C_29
REMARK    8  A    between atoms: C_29  and  C_30
REMARK                            x       y       z     vdW  Elec       q    Type
REMARK                         _______ _______ _______ _____ _____    ______ ____
ROOT
ATOM      1  C   UNL     1      -2.991  -2.281   6.450  0.00  0.00    +0.044 C 
ATOM      2  C   UNL     1      -3.689  -1.861   5.183  0.00  0.00    -0.049 A 
ATOM      3  C   UNL     1      -2.985  -1.787   3.994  0.00  0.00    +0.008 A 
ATOM      4  C   UNL     1      -3.624  -1.403   2.836  0.00  0.00    -0.026 A 
ATOM      5  C   UNL     1      -4.979  -1.084   2.846  0.00  0.00    +0.054 A 
ATOM      6  C   UNL     1      -5.681  -1.161   4.047  0.00  0.00    +0.063 A 
ATOM      7  C   UNL     1      -5.036  -1.547   5.205  0.00  0.00    +0.025 A 
ATOM      8 CL   UNL     1      -7.372  -0.768   4.088  0.00  0.00    -0.082 Cl
ATOM      9  N   UNL     1      -5.399  -0.725   1.563  0.00  0.00    -0.285 N 
ATOM     10  C   UNL     1      -4.397  -0.782   0.665  0.00  0.00    +0.211 C 
ATOM     11  O   UNL     1      -4.469  -0.525  -0.518  0.00  0.00    -0.277 OA
ATOM     12  C   UNL     1      -3.171  -1.225   1.415  0.00  0.00    +0.050 C 
ATOM     13  C   UNL     1      -2.602  -2.529   0.840  0.00  0.00    +0.088 C 
ATOM     14  C   UNL     1      -1.438  -2.074  -0.083  0.00  0.00    +0.073 C 
ATOM     15  C   UNL     1      -1.433  -0.534   0.013  0.00  0.00    -0.057 C 
ATOM     16  C   UNL     1      -0.202  -2.621   0.593  0.00  0.00    +0.224 C 
ATOM     17  O   UNL     1       0.935  -2.481   0.194  0.00  0.00    -0.275 OA
ATOM     18  N   UNL     1      -0.556  -3.283   1.700  0.00  0.00    -0.241 N 
ATOM     19  C   UNL     1      -1.872  -3.299   1.940  0.00  0.00    +0.225 C 
ATOM     20  O   UNL     1      -2.406  -3.845   2.882  0.00  0.00    -0.275 OA
ATOM     21  H   UNL     1      -6.308  -0.465   1.344  0.00  0.00    +0.155 HD
ATOM     22  N   UNL     1      -2.096  -0.254   1.288  0.00  0.00    +0.394 N 
ATOM     23  H   UNL     1      -1.432  -0.357   2.064  0.00  0.00    -0.083 HD
ATOM     24  H   UNL     1      -2.478   0.699   1.289  0.00  0.00    -0.083 HD
ENDROOT
BRANCH  15  25
ATOM     25  C   UNL     1       0.002  -0.004   0.002  0.00  0.00    -0.004 C 
BRANCH  25  26
ATOM     26  C   UNL     1      -0.019   1.526   0.010  0.00  0.00    +0.067 C 
BRANCH  26  27
ATOM     27  S   UNL     1       1.683   2.154  -0.002  0.00  0.00    -0.164 S 
ATOM     28  C   UNL     1       1.486   3.957   0.009  0.00  0.00    +0.084 C 
ENDBRANCH  26  27
ENDBRANCH  25  26
ENDBRANCH  15  25
BRANCH  18  29
ATOM     29  C   UNL     1       0.417  -3.938   2.577  0.00  0.00    +0.121 C 
BRANCH  29  30
ATOM     30  C   UNL     1       0.882  -2.950   3.650  0.00  0.00    +0.054 C 
BRANCH  30  31
ATOM     31  C   UNL     1       1.883  -3.624   4.552  0.00  0.00    -0.046 A 
ATOM     32  C   UNL     1       1.454  -4.288   5.686  0.00  0.00    +0.004 A 
ATOM     33  C   UNL     1       2.372  -4.910   6.512  0.00  0.00    +0.000 A 
ATOM     34  C   UNL     1       3.720  -4.859   6.209  0.00  0.00    +0.000 A 
ATOM     35  C   UNL     1       4.149  -4.190   5.078  0.00  0.00    +0.000 A 
ATOM     36  C   UNL     1       3.231  -3.573   4.250  0.00  0.00    +0.004 A 
ENDBRANCH  30  31
ENDBRANCH  29  30
ENDBRANCH  18  29
TORSDOF 6
