REMARK  Name = ZINC57315859
REMARK  10 active torsions:
REMARK  status: ('A' for Active; 'I' for Inactive)
REMARK    1  A    between atoms: C_1  and  C_2
REMARK    2  A    between atoms: C_2  and  C_3
REMARK    3  A    between atoms: C_2  and  C_4
REMARK    4  A    between atoms: C_2  and  C_5
REMARK    5  A    between atoms: C_8  and  O_11
REMARK    6  A    between atoms: O_11  and  C_12
REMARK    7  A    between atoms: C_12  and  C_13
REMARK    8  A    between atoms: C_12  and  C_14
REMARK    9  A    between atoms: C_12  and  C_15
REMARK   10  A    between atoms: N_17  and  C_18
REMARK                            x       y       z     vdW  Elec       q    Type
REMARK                         _______ _______ _______ _____ _____    ______ ____
ROOT
ATOM      1  C   UNL     1       4.018  -1.519  -4.855  0.00  0.00    +0.180 C 
ATOM      2  C   UNL     1       4.210  -0.002  -4.887  0.00  0.00    +0.065 C 
ATOM      3  C   UNL     1       4.736  -2.098  -3.634  0.00  0.00    +0.065 C 
ENDROOT
BRANCH   1   4
ATOM      4  C   UNL     1       4.590  -2.126  -6.110  0.00  0.00    +0.257 C 
ATOM      5  O   UNL     1       3.875  -2.754  -6.861  0.00  0.00    -0.271 OA
ATOM      6  N   UNL     1       5.898  -1.970  -6.397  0.00  0.00    -0.309 N 
ATOM      7  H   UNL     1       6.470  -1.467  -5.797  0.00  0.00    +0.149 HD
BRANCH   6   8
ATOM      8  C   UNL     1       6.454  -2.559  -7.618  0.00  0.00    +0.079 C 
ATOM      9  C   UNL     1       6.838  -4.016  -7.351  0.00  0.00    +0.010 C 
ATOM     10  C   UNL     1       7.419  -4.632  -8.625  0.00  0.00    +0.009 C 
ATOM     11  C   UNL     1       8.662  -3.847  -9.050  0.00  0.00    -0.010 C 
ATOM     12  C   UNL     1       9.707  -3.904  -7.933  0.00  0.00    +0.007 C 
ATOM     13  C   UNL     1       9.125  -3.288  -6.659  0.00  0.00    -0.010 C 
ATOM     14  C   UNL     1       7.882  -4.073  -6.235  0.00  0.00    +0.009 C 
ATOM     15  C   UNL     1       8.742  -1.831  -6.926  0.00  0.00    +0.009 C 
ATOM     16  C   UNL     1       7.697  -1.774  -8.042  0.00  0.00    +0.010 C 
ATOM     17  C   UNL     1       8.279  -2.390  -9.316  0.00  0.00    +0.009 C 
ENDBRANCH   6   8
ENDBRANCH   1   4
BRANCH   1  18
ATOM     18  O   UNL     1       2.623  -1.821  -4.773  0.00  0.00    -0.477 OA
BRANCH  18  22
ATOM     19  C   UNL     1       0.224  -0.422  -7.825  0.00  0.00    -0.042 A 
ATOM     20  C   UNL     1      -0.346  -1.039  -6.726  0.00  0.00    +0.008 A 
ATOM     21  C   UNL     1       0.456  -1.508  -5.703  0.00  0.00    +0.046 A 
ATOM     22  C   UNL     1       1.833  -1.360  -5.779  0.00  0.00    +0.122 A 
ATOM     23  C   UNL     1       2.402  -0.741  -6.882  0.00  0.00    +0.046 A 
ATOM     24  C   UNL     1       1.597  -0.279  -7.905  0.00  0.00    +0.008 A 
BRANCH  19  26
ATOM     25  C   UNL     1      -0.281  -0.618 -10.244  0.00  0.00    +0.015 C 
ATOM     26  C   UNL     1      -0.652   0.089  -8.939  0.00  0.00    -0.013 C 
ATOM     27  C   UNL     1      -0.446   1.597  -9.099  0.00  0.00    +0.015 C 
ATOM     28  C   UNL     1      -2.118  -0.193  -8.605  0.00  0.00    +0.015 C 
ENDBRANCH  19  26
ENDBRANCH  18  22
ENDBRANCH   1  18
TORSDOF 5
