REMARK  Name = ZINC20805757
REMARK  9 active torsions:
REMARK  status: ('A' for Active; 'I' for Inactive)
REMARK    1  A    between atoms: C_1  and  C_2
REMARK    2  A    between atoms: C_2  and  C_4
REMARK    3  A    between atoms: C_7  and  N_10
REMARK    4  A    between atoms: C_11  and  C_13
REMARK    5  A    between atoms: C_13  and  S_14
REMARK    6  A    between atoms: S_14  and  C_15
REMARK    7  A    between atoms: N_19  and  N_20
REMARK    8  A    between atoms: N_21  and  N_22
REMARK    9  A    between atoms: C_23  and  C_24
REMARK                            x       y       z     vdW  Elec       q    Type
REMARK                         _______ _______ _______ _____ _____    ______ ____
ROOT
ATOM      1  C   UNL     1      -2.379  -2.709   0.269  0.00  0.00    +0.210 A 
ATOM      2  N   UNL     1      -3.114  -1.635   0.103  0.00  0.00    -0.119 NA
ATOM      3  N   UNL     1      -2.269  -0.519   0.152  0.00  0.00    -0.109 NA
ATOM      4  C   UNL     1      -1.044  -0.947   0.338  0.00  0.00    +0.254 A 
ATOM      5  N   UNL     1      -1.080  -2.312   0.418  0.00  0.00    -0.211 N 
ATOM      6  N   UNL     1       0.090  -0.155   0.442  0.00  0.00    -0.204 N 
ATOM      7  H   UNL     1       1.074  -0.620   0.603  0.00  0.00    +0.177 HD
ENDROOT
BRANCH   5   8
ATOM      8  N   UNL     1      -0.007  -3.134   0.613  0.00  0.00    -0.294 N 
ATOM      9  H   UNL     1       1.001  -2.706   0.721  0.00  0.00    +0.163 HD
ATOM     10  H   UNL     1      -0.150  -4.223   0.661  0.00  0.00    +0.163 HD
ENDBRANCH   5   8
BRANCH   6  11
ATOM     11  N   UNL     1      -0.017   1.238   0.341  0.00  0.00    -0.187 NA
ATOM     12  C   UNL     1       1.045   1.981   0.437  0.00  0.00    +0.139 C 
BRANCH  12  13
ATOM     13  C   UNL     1       0.932   3.443   0.331  0.00  0.00    +0.002 A 
ATOM     14  C   UNL     1       2.069   4.244   0.321  0.00  0.00    +0.010 A 
ATOM     15  C   UNL     1       1.959   5.624   0.215  0.00  0.00    +0.001 A 
ATOM     16  C   UNL     1       0.750   6.244   0.130  0.00  0.00    +0.008 A 
ATOM     17  C   UNL     1      -0.441   5.498   0.141  0.00  0.00    -0.017 A 
ATOM     18  C   UNL     1      -0.377   4.086   0.241  0.00  0.00    -0.009 A 
ATOM     19  C   UNL     1      -1.561   3.340   0.251  0.00  0.00    +0.009 A 
ATOM     20  C   UNL     1      -2.762   3.979   0.165  0.00  0.00    +0.001 A 
ATOM     21  C   UNL     1      -2.828   5.367   0.067  0.00  0.00    +0.001 A 
ATOM     22  C   UNL     1      -1.696   6.124   0.053  0.00  0.00    +0.008 A 
ENDBRANCH  12  13
ENDBRANCH   6  11
BRANCH   1  23
ATOM     23  S   UNL     1      -2.963  -4.371   0.293  0.00  0.00    -0.075 S 
BRANCH  23  24
ATOM     24  C   UNL     1      -4.732  -4.086   0.038  0.00  0.00    +0.173 C 
BRANCH  24  26
ATOM     25  N   UNL     1      -6.792  -5.441  -0.154  0.00  0.00    -0.285 N 
ATOM     26  C   UNL     1      -5.457  -5.407   0.023  0.00  0.00    +0.227 C 
ATOM     27  O   UNL     1      -4.838  -6.440   0.169  0.00  0.00    -0.275 OA
ATOM     28  H   UNL     1      -7.365  -4.503  -0.200  0.00  0.00    +0.155 HD
BRANCH  25  32
ATOM     29  C   UNL     1      -8.748  -9.094  -0.527  0.00  0.00    +0.017 A 
ATOM     30  C   UNL     1      -9.389  -8.014   0.094  0.00  0.00    +0.013 A 
ATOM     31  C   UNL     1      -8.741  -6.813   0.215  0.00  0.00    +0.024 A 
ATOM     32  C   UNL     1      -7.447  -6.665  -0.279  0.00  0.00    +0.033 A 
ATOM     33  C   UNL     1      -6.809  -7.733  -0.902  0.00  0.00    +0.024 A 
ATOM     34  C   UNL     1      -7.447  -8.940  -1.022  0.00  0.00    +0.013 A 
BRANCH  29  36
ATOM     35  C   UNL     1      -8.748 -11.544  -1.327  0.00  0.00    +0.091 C 
ATOM     36  C   UNL     1      -9.439 -10.384  -0.658  0.00  0.00    +0.160 C 
ATOM     37  O   UNL     1     -10.566 -10.515  -0.228  0.00  0.00    -0.292 OA
ENDBRANCH  29  36
ENDBRANCH  25  32
ENDBRANCH  24  26
ENDBRANCH  23  24
ENDBRANCH   1  23
TORSDOF 8
