REMARK  Name = ZINC63170971
REMARK  7 active torsions:
REMARK  status: ('A' for Active; 'I' for Inactive)
REMARK    1  A    between atoms: C_1  and  C_2
REMARK    2  A    between atoms: C_2  and  C_4
REMARK    3  A    between atoms: C_2  and  N_17
REMARK    4  A    between atoms: C_4  and  C_5
REMARK    5  A    between atoms: C_5  and  N_6
REMARK    6  A    between atoms: N_6  and  S_7
REMARK    7  A    between atoms: S_7  and  C_10
REMARK                            x       y       z     vdW  Elec       q    Type
REMARK                         _______ _______ _______ _____ _____    ______ ____
ROOT
ATOM      1  N   UNL     1       1.364  -2.523   2.486  0.00  0.00    -0.190 NA
ATOM      2  H   UNL     1       1.970  -1.935   2.963  0.00  0.00    +0.148 HD
ENDROOT
BRANCH   1   3
ATOM      3  S   UNL     1       1.131  -4.075   3.012  0.00  0.00    +0.060 S 
ATOM      4  O   UNL     1       1.965  -4.248   4.149  0.00  0.00    -0.153 OA
ATOM      5  O   UNL     1      -0.274  -4.282   3.059  0.00  0.00    -0.153 OA
BRANCH   3   6
ATOM      6  C   UNL     1       1.755  -5.149   1.761  0.00  0.00    +0.127 A 
ATOM      7  C   UNL     1       2.842  -5.965   2.015  0.00  0.00    +0.052 A 
ATOM      8  C   UNL     1       3.297  -6.778   1.031  0.00  0.00    +0.058 A 
ATOM      9  S   UNL     1       2.177  -6.402  -0.307  0.00  0.00    -0.073 S 
ATOM     10  C   UNL     1       1.174  -5.191   0.537  0.00  0.00    +0.082 A 
ATOM     11 BR   UNL     1      -0.313  -4.217  -0.109  0.00  0.00    -0.041 Br
ATOM     12 BR   UNL     1       4.745  -7.995   1.065  0.00  0.00    -0.042 Br
ENDBRANCH   3   6
ENDBRANCH   1   3
BRANCH   1  13
ATOM     13  C   UNL     1       0.655  -2.037   1.299  0.00  0.00    +0.104 C 
BRANCH  13  14
ATOM     14  C   UNL     1       0.742  -0.511   1.242  0.00  0.00    +0.000 C 
BRANCH  14  16
ATOM     15  C   UNL     1      -0.019   1.526   0.010  0.00  0.00    -0.014 C 
ATOM     16  C   UNL     1       0.002  -0.004   0.002  0.00  0.00    -0.077 C 
BRANCH  16  17
ATOM     17  N   UNL     1       0.690  -0.478  -1.207  0.00  0.00    +0.380 N 
ATOM     18  H   UNL     1       1.636  -0.129  -1.214  0.00  0.00    -0.090 HD
ATOM     19  H   UNL     1       0.703  -1.487  -1.212  0.00  0.00    -0.090 HD
ATOM     20  H   UNL     1       0.202  -0.144  -2.024  0.00  0.00    -0.090 HD
ENDBRANCH  16  17
ENDBRANCH  14  16
ENDBRANCH  13  14
ENDBRANCH   1  13
TORSDOF 6
