REMARK  Name = ZINC01839312
REMARK  6 active torsions:
REMARK  status: ('A' for Active; 'I' for Inactive)
REMARK    1  A    between atoms: C_1  and  C_2
REMARK    2  A    between atoms: C_5  and  N_8
REMARK    3  A    between atoms: C_17  and  C_21
REMARK    4  A    between atoms: C_17  and  N_25
REMARK    5  A    between atoms: N_25  and  S_26
REMARK    6  A    between atoms: S_26  and  C_29
REMARK                            x       y       z     vdW  Elec       q    Type
REMARK                         _______ _______ _______ _____ _____    ______ ____
ROOT
ATOM      1  N   UNL     1      -2.892   2.886  -2.942  0.00  0.00    -0.249 N 
ATOM      2  C   UNL     1      -3.977   2.570  -2.149  0.00  0.00    +0.125 A 
ATOM      3  C   UNL     1      -4.790   3.581  -1.732  0.00  0.00    +0.095 A 
ATOM      4  C   UNL     1      -4.520   4.903  -2.108  0.00  0.00    +0.262 A 
ATOM      5  O   UNL     1      -5.246   5.809  -1.737  0.00  0.00    -0.267 OA
ATOM      6  N   UNL     1      -3.448   5.164  -2.885  0.00  0.00    -0.274 N 
ATOM      7  H   UNL     1      -3.249   6.104  -3.162  0.00  0.00    +0.173 HD
ATOM      8  C   UNL     1      -2.646   4.161  -3.287  0.00  0.00    +0.335 A 
ATOM      9  O   UNL     1      -1.681   4.414  -3.982  0.00  0.00    -0.246 OA
ATOM     10  C   UNL     1      -5.875   2.946  -0.894  0.00  0.00    +0.243 C 
ATOM     11  C   UNL     1      -5.527   1.472  -0.923  0.00  0.00    +0.254 C 
ATOM     12  O   UNL     1      -6.130   0.572  -0.378  0.00  0.00    -0.273 OA
ATOM     13  N   UNL     1      -4.416   1.358  -1.673  0.00  0.00    -0.269 N 
ATOM     14  H   UNL     1      -3.974   0.515  -1.857  0.00  0.00    +0.156 HD
ENDROOT
BRANCH   1  19
ATOM     15  C   UNL     1       0.572  -1.234  -4.742  0.00  0.00    +0.044 C 
ATOM     16  C   UNL     1      -0.348  -0.140  -4.264  0.00  0.00    -0.050 A 
ATOM     17  C   UNL     1      -1.452   0.212  -5.018  0.00  0.00    +0.005 A 
ATOM     18  C   UNL     1      -2.294   1.218  -4.586  0.00  0.00    +0.026 A 
ATOM     19  C   UNL     1      -2.037   1.869  -3.386  0.00  0.00    +0.053 A 
ATOM     20  C   UNL     1      -0.927   1.514  -2.632  0.00  0.00    +0.026 A 
ATOM     21  C   UNL     1      -0.086   0.511  -3.072  0.00  0.00    +0.005 A 
ENDBRANCH   1  19
BRANCH  10  22
ATOM     22  C   UNL     1      -5.835   3.481   0.539  0.00  0.00    +0.422 C 
ATOM     23  F   UNL     1      -4.547   3.319   1.062  0.00  0.00    -0.168 F 
ATOM     24  F   UNL     1      -6.171   4.839   0.540  0.00  0.00    -0.168 F 
ATOM     25  F   UNL     1      -6.750   2.773   1.326  0.00  0.00    -0.168 F 
ENDBRANCH  10  22
BRANCH  10  26
ATOM     26  N   UNL     1      -7.191   3.178  -1.492  0.00  0.00    -0.162 NA
ATOM     27  H   UNL     1      -7.346   3.967  -2.034  0.00  0.00    +0.150 HD
BRANCH  26  28
ATOM     28  S   UNL     1      -8.416   2.091  -1.244  0.00  0.00    +0.060 S 
ATOM     29  O   UNL     1      -8.249   1.585   0.073  0.00  0.00    -0.153 OA
ATOM     30  O   UNL     1      -9.614   2.726  -1.670  0.00  0.00    -0.153 OA
BRANCH  28  31
ATOM     31  C   UNL     1      -8.145   0.740  -2.341  0.00  0.00    +0.105 A 
ATOM     32  C   UNL     1      -8.346   0.901  -3.699  0.00  0.00    +0.030 A 
ATOM     33  C   UNL     1      -8.127  -0.158  -4.561  0.00  0.00    +0.022 A 
ATOM     34  C   UNL     1      -7.718  -1.382  -4.062  0.00  0.00    +0.041 A 
ATOM     35  C   UNL     1      -7.522  -1.544  -2.703  0.00  0.00    +0.022 A 
ATOM     36  C   UNL     1      -7.736  -0.483  -1.843  0.00  0.00    +0.030 A 
ATOM     37 CL   UNL     1      -7.449  -2.713  -5.143  0.00  0.00    -0.084 Cl
ENDBRANCH  28  31
ENDBRANCH  26  28
ENDBRANCH  10  26
TORSDOF 5
