REMARK  Name = ZINC20834582
REMARK  12 active torsions:
REMARK  status: ('A' for Active; 'I' for Inactive)
REMARK    1  A    between atoms: C_1  and  C_2
REMARK    2  A    between atoms: C_2  and  C_3
REMARK    3  A    between atoms: C_3  and  C_5
REMARK    4  A    between atoms: C_3  and  C_6
REMARK    5  A    between atoms: C_9  and  N_12
REMARK    6  A    between atoms: C_13  and  C_15
REMARK    7  A    between atoms: C_15  and  C_16
REMARK    8  A    between atoms: C_16  and  S_17
REMARK    9  A    between atoms: S_17  and  C_18
REMARK   10  A    between atoms: N_23  and  N_24
REMARK   11  A    between atoms: C_25  and  C_26
REMARK   12  A    between atoms: C_31  and  O_32
REMARK                            x       y       z     vdW  Elec       q    Type
REMARK                         _______ _______ _______ _____ _____    ______ ____
ROOT
ATOM      1  C   UNL     1       6.176   3.071  -0.506  0.00  0.00    +0.210 A 
ATOM      2  N   UNL     1       7.542   3.070  -0.523  0.00  0.00    -0.186 NA
ATOM      3  C   UNL     1       7.962   4.342  -0.793  0.00  0.00    +0.232 A 
ATOM      4  N   UNL     1       6.901   5.098  -0.938  0.00  0.00    -0.245 N 
ATOM      5  N   UNL     1       5.769   4.292  -0.761  0.00  0.00    -0.144 NA
ATOM      6  N   UNL     1       9.281   4.761  -0.896  0.00  0.00    -0.205 N 
ATOM      7  H   UNL     1      10.100   4.039  -0.755  0.00  0.00    +0.177 HD
ATOM      8  H   UNL     1       7.014   6.170  -1.159  0.00  0.00    +0.192 HD
ENDROOT
BRANCH   6   9
ATOM      9  N   UNL     1       9.571   6.102  -1.179  0.00  0.00    -0.187 NA
ATOM     10  C   UNL     1      10.805   6.493  -1.275  0.00  0.00    +0.142 C 
BRANCH  10  11
ATOM     11  C   UNL     1      11.110   7.904  -1.573  0.00  0.00    +0.037 A 
ATOM     12  C   UNL     1      12.436   8.329  -1.677  0.00  0.00    +0.028 A 
ATOM     13  C   UNL     1      12.714   9.652  -1.956  0.00  0.00    +0.019 A 
ATOM     14  C   UNL     1      11.683  10.559  -2.133  0.00  0.00    +0.019 A 
ATOM     15  C   UNL     1      10.367  10.150  -2.032  0.00  0.00    +0.047 A 
ATOM     16  C   UNL     1      10.070   8.825  -1.759  0.00  0.00    +0.126 A 
ATOM     17 BR   UNL     1      14.510  10.227  -2.097  0.00  0.00    -0.050 Br
BRANCH  16  18
ATOM     18  O   UNL     1       8.776   8.421  -1.665  0.00  0.00    -0.506 OA
ATOM     19  H   UNL     1       7.962   9.146  -1.812  0.00  0.00    +0.292 HD
ENDBRANCH  16  18
ENDBRANCH  10  11
ENDBRANCH   6   9
BRANCH   1  20
ATOM     20  S   UNL     1       5.142   1.677  -0.203  0.00  0.00    -0.084 S 
BRANCH  20  21
ATOM     21  C   UNL     1       3.459   2.344  -0.322  0.00  0.00    +0.086 C 
BRANCH  21  22
ATOM     22  C   UNL     1       2.448   1.223  -0.076  0.00  0.00    +0.107 C 
BRANCH  22  24
ATOM     23  N   UNL     1      -0.011   0.966   0.007  0.00  0.00    -0.285 N 
ATOM     24  C   UNL     1       1.050   1.777  -0.174  0.00  0.00    +0.218 C 
ATOM     25  O   UNL     1       0.879   2.953  -0.417  0.00  0.00    -0.275 OA
ATOM     26  H   UNL     1       0.140  -0.115   0.144  0.00  0.00    +0.155 HD
BRANCH  23  30
ATOM     27  C   UNL     1      -3.863   2.553   0.051  0.00  0.00    -0.044 A 
ATOM     28  C   UNL     1      -3.645   1.284  -0.456  0.00  0.00    +0.006 A 
ATOM     29  C   UNL     1      -2.369   0.756  -0.472  0.00  0.00    +0.023 A 
ATOM     30  C   UNL     1      -1.305   1.499   0.022  0.00  0.00    +0.033 A 
ATOM     31  C   UNL     1      -1.528   2.769   0.536  0.00  0.00    +0.023 A 
ATOM     32  C   UNL     1      -2.805   3.295   0.543  0.00  0.00    +0.006 A 
BRANCH  27  33
ATOM     33  C   UNL     1      -5.256   3.126   0.067  0.00  0.00    +0.016 C 
ATOM     34  C   UNL     1      -5.288   4.412  -0.763  0.00  0.00    +0.012 C 
BRANCH  33  36
ATOM     35  C   UNL     1      -7.120   3.904   1.538  0.00  0.00    +0.004 C 
ATOM     36  C   UNL     1      -5.663   3.439   1.508  0.00  0.00    +0.004 C 
ENDBRANCH  33  36
ENDBRANCH  27  33
ENDBRANCH  23  30
ENDBRANCH  22  24
ENDBRANCH  21  22
ENDBRANCH  20  21
ENDBRANCH   1  20
TORSDOF 10
