REMARK  Name = ZINC07342737
REMARK  4 active torsions:
REMARK  status: ('A' for Active; 'I' for Inactive)
REMARK    1  A    between atoms: C_1  and  C_2
REMARK    2  A    between atoms: C_5  and  C_8
REMARK    3  A    between atoms: C_20  and  N_24
REMARK    4  A    between atoms: C_21  and  C_22
REMARK                            x       y       z     vdW  Elec       q    Type
REMARK                         _______ _______ _______ _____ _____    ______ ____
ROOT
ATOM      1  C   UNL     1       0.059  -4.275  -0.021  0.00  0.00    +0.105 C 
ATOM      2  C   UNL     1       1.301  -4.762   0.673  0.00  0.00    +0.091 A 
ATOM      3  C   UNL     1       2.511  -4.702   0.037  0.00  0.00    +0.260 A 
ATOM      4  O   UNL     1       2.603  -4.207  -1.216  0.00  0.00    -0.267 OA
ATOM      5  N   UNL     1       3.624  -5.150   0.689  0.00  0.00    -0.301 N 
ATOM      6  H   UNL     1       4.489  -5.114   0.251  0.00  0.00    +0.171 HD
ATOM      7  C   UNL     1       3.523  -5.641   1.938  0.00  0.00    +0.183 A 
ATOM      8  S   UNL     1       4.930  -6.198   2.739  0.00  0.00    -0.011 S 
ATOM      9  N   UNL     1       2.349  -5.701   2.562  0.00  0.00    -0.187 NA
ATOM     10  C   UNL     1       1.238  -5.278   1.969  0.00  0.00    +0.234 A 
ATOM     11  O   UNL     1       0.060  -5.351   2.625  0.00  0.00    -0.423 OA
ATOM     12  C   UNL     1      -1.094  -5.291   1.940  0.00  0.00    +0.200 C 
ATOM     13  C   UNL     1      -1.162  -4.794   0.686  0.00  0.00    +0.098 C 
ENDROOT
BRANCH   1  18
ATOM     14  C   UNL     1      -0.018   1.503   0.010  0.00  0.00    +0.044 C 
ATOM     15  C   UNL     1       0.002  -0.004   0.002  0.00  0.00    -0.050 A 
ATOM     16  C   UNL     1       0.006  -0.689  -1.199  0.00  0.00    +0.003 A 
ATOM     17  C   UNL     1       0.025  -2.071  -1.206  0.00  0.00    +0.005 A 
ATOM     18  C   UNL     1       0.040  -2.768  -0.013  0.00  0.00    -0.034 A 
ATOM     19  C   UNL     1       0.037  -2.084   1.188  0.00  0.00    +0.005 A 
ATOM     20  C   UNL     1       0.023  -0.702   1.195  0.00  0.00    +0.003 A 
ENDBRANCH   1  18
BRANCH  12  21
ATOM     21  N   UNL     1      -2.243  -5.751   2.535  0.00  0.00    -0.328 N 
ATOM     22  H   UNL     1      -2.212  -6.111   3.435  0.00  0.00    +0.145 HD
ATOM     23  H   UNL     1      -3.085  -5.716   2.055  0.00  0.00    +0.145 HD
ENDBRANCH  12  21
BRANCH  13  24
ATOM     24  C   UNL     1      -2.427  -4.760   0.017  0.00  0.00    +0.101 C 
ATOM     25  N   UNL     1      -3.431  -4.732  -0.514  0.00  0.00    -0.191 NA
ENDBRANCH  13  24
TORSDOF 3
