REMARK  Name = ZINC56916758
REMARK  9 active torsions:
REMARK  status: ('A' for Active; 'I' for Inactive)
REMARK    1  A    between atoms: C_1  and  C_2
REMARK    2  A    between atoms: C_2  and  C_3
REMARK    3  A    between atoms: C_3  and  C_5
REMARK    4  A    between atoms: C_3  and  N_6
REMARK    5  A    between atoms: C_7  and  C_9
REMARK    6  A    between atoms: C_9  and  C_10
REMARK    7  A    between atoms: C_10  and  N_11
REMARK    8  A    between atoms: N_17  and  C_20
REMARK    9  A    between atoms: C_20  and  C_21
REMARK                            x       y       z     vdW  Elec       q    Type
REMARK                         _______ _______ _______ _____ _____    ______ ____
ROOT
ATOM      1  N   UNL     1       1.867   0.827  -8.534  0.00  0.00    -0.299 N 
ATOM      2  C   UNL     1       0.540   1.038  -8.433  0.00  0.00    +0.302 C 
ATOM      3  O   UNL     1      -0.031   0.823  -7.382  0.00  0.00    -0.253 OA
ATOM      4  N   UNL     1      -0.154   1.489  -9.497  0.00  0.00    -0.283 N 
ATOM      5  C   UNL     1      -1.578   1.835  -9.378  0.00  0.00    +0.124 C 
ATOM      6  C   UNL     1      -1.787   3.240  -9.954  0.00  0.00    +0.104 C 
ATOM      7  N   UNL     1      -1.248   3.291 -11.319  0.00  0.00    -0.294 NA
ATOM      8  C   UNL     1       0.203   3.058 -11.328  0.00  0.00    +0.104 C 
ATOM      9  C   UNL     1       0.495   1.652 -10.807  0.00  0.00    +0.124 C 
ATOM     10  H   UNL     1       2.311   0.928  -9.391  0.00  0.00    +0.150 HD
ENDROOT
BRANCH   1  11
ATOM     11  C   UNL     1       2.641   0.445  -7.350  0.00  0.00    +0.115 C 
BRANCH  11  12
ATOM     12  C   UNL     1       4.111   0.268  -7.736  0.00  0.00    +0.114 C 
BRANCH  12  14
ATOM     13  N   UNL     1       6.234  -0.336  -6.620  0.00  0.00    -0.313 N 
ATOM     14  C   UNL     1       4.906  -0.124  -6.518  0.00  0.00    +0.215 C 
ATOM     15  O   UNL     1       4.352  -0.250  -5.447  0.00  0.00    -0.276 OA
ATOM     16  H   UNL     1       6.677  -0.235  -7.477  0.00  0.00    +0.149 HD
BRANCH  13  17
ATOM     17  C   UNL     1       7.007  -0.718  -5.436  0.00  0.00    +0.070 C 
ATOM     18  C   UNL     1       7.414   0.540  -4.665  0.00  0.00    +0.028 C 
BRANCH  17  20
ATOM     19  C   UNL     1       7.855  -2.797  -6.530  0.00  0.00    +0.005 C 
ATOM     20  C   UNL     1       8.261  -1.479  -5.869  0.00  0.00    +0.018 C 
ENDBRANCH  17  20
ENDBRANCH  13  17
ENDBRANCH  12  14
ENDBRANCH  11  12
ENDBRANCH   1  11
BRANCH   7  21
ATOM     21  C   UNL     1      -1.581   4.566 -11.969  0.00  0.00    +0.139 C 
BRANCH  21  22
ATOM     22  C   UNL     1      -1.231   4.489 -13.433  0.00  0.00    +0.048 A 
ATOM     23  C   UNL     1      -0.074   4.907 -13.990  0.00  0.00    +0.115 A 
ATOM     24  N   UNL     1      -0.159   4.659 -15.333  0.00  0.00    -0.308 N 
ATOM     25  C   UNL     1       0.705   4.873 -16.368  0.00  0.00    +0.092 A 
ATOM     26  C   UNL     1       0.367   4.527 -17.628  0.00  0.00    +0.018 A 
ATOM     27  C   UNL     1      -0.882   3.941 -17.891  0.00  0.00    +0.005 A 
ATOM     28  C   UNL     1      -1.752   3.721 -16.869  0.00  0.00    +0.045 A 
ATOM     29  C   UNL     1      -1.384   4.088 -15.559  0.00  0.00    +0.115 A 
ATOM     30  N   UNL     1      -2.012   3.991 -14.395  0.00  0.00    -0.342 N 
ATOM     31  H   UNL     1      -2.898   3.620 -14.264  0.00  0.00    +0.167 HD
ENDBRANCH  21  22
ENDBRANCH   7  21
TORSDOF 7
