REMARK  Name = ZINC39666355
REMARK  10 active torsions:
REMARK  status: ('A' for Active; 'I' for Inactive)
REMARK    1  A    between atoms: C_1  and  C_2
REMARK    2  A    between atoms: C_2  and  C_3
REMARK    3  A    between atoms: C_3  and  C_4
REMARK    4  A    between atoms: C_4  and  C_5
REMARK    5  A    between atoms: C_9  and  C_18
REMARK    6  A    between atoms: N_20  and  C_21
REMARK    7  A    between atoms: C_21  and  C_22
REMARK    8  A    between atoms: C_22  and  C_24
REMARK    9  A    between atoms: C_22  and  O_25
REMARK   10  A    between atoms: O_25  and  C_26
REMARK                            x       y       z     vdW  Elec       q    Type
REMARK                         _______ _______ _______ _____ _____    ______ ____
ROOT
ATOM      1  C   UNL     1      -4.963  -3.335  -1.067  0.00  0.00    +0.216 C 
ATOM      2  O   UNL     1      -6.077  -2.862  -1.132  0.00  0.00    -0.276 OA
ATOM      3  N   UNL     1      -4.803  -4.660  -0.875  0.00  0.00    -0.300 N 
ATOM      4  C   UNL     1      -3.533  -5.414  -0.763  0.00  0.00    +0.121 C 
ATOM      5  C   UNL     1      -3.795  -6.459   0.345  0.00  0.00    +0.100 C 
ATOM      6  C   UNL     1      -5.322  -6.637   0.362  0.00  0.00    -0.004 C 
ATOM      7  C   UNL     1      -5.858  -5.689  -0.721  0.00  0.00    +0.115 C 
ATOM      8  C   UNL     1      -5.690  -8.080   0.032  0.00  0.00    -0.010 C 
ATOM      9  C   UNL     1      -7.210  -8.246   0.112  0.00  0.00    -0.082 C 
ATOM     10  N   UNL     1      -7.671  -7.899   1.462  0.00  0.00    +0.379 N 
ATOM     11  C   UNL     1      -7.397  -6.484   1.736  0.00  0.00    -0.082 C 
ATOM     12  C   UNL     1      -5.885  -6.243   1.725  0.00  0.00    -0.010 C 
ATOM     13  H   UNL     1      -8.664  -8.068   1.530  0.00  0.00    -0.086 HD
ATOM     14  H   UNL     1      -7.189  -8.472   2.138  0.00  0.00    -0.086 HD
ENDROOT
BRANCH   5  15
ATOM     15  C   UNL     1      -3.116  -7.761   0.009  0.00  0.00    +0.218 C 
ATOM     16  O   UNL     1      -2.974  -8.090  -1.149  0.00  0.00    -0.275 OA
ATOM     17  N   UNL     1      -2.667  -8.561   0.997  0.00  0.00    -0.312 N 
ATOM     18  H   UNL     1      -2.781  -8.298   1.923  0.00  0.00    +0.149 HD
BRANCH  17  19
ATOM     19  C   UNL     1      -2.007  -9.828   0.671  0.00  0.00    +0.148 C 
BRANCH  19  20
ATOM     20  C   UNL     1      -1.597 -10.537   1.963  0.00  0.00    +0.187 C 
ATOM     21  C   UNL     1      -0.799 -11.797   1.622  0.00  0.00    +0.053 C 
BRANCH  20  22
ATOM     22  O   UNL     1      -2.768 -10.899   2.699  0.00  0.00    -0.486 OA
BRANCH  22  23
ATOM     23  C   UNL     1      -2.631 -11.042   4.044  0.00  0.00    +0.139 A 
ATOM     24  C   UNL     1      -1.377 -10.949   4.629  0.00  0.00    +0.047 A 
ATOM     25  C   UNL     1      -1.241 -11.094   5.996  0.00  0.00    +0.004 A 
ATOM     26  C   UNL     1      -2.353 -11.332   6.782  0.00  0.00    +0.002 A 
ATOM     27  C   UNL     1      -3.605 -11.426   6.202  0.00  0.00    +0.023 A 
ATOM     28  C   UNL     1      -3.748 -11.275   4.835  0.00  0.00    +0.083 A 
ATOM     29 CL   UNL     1      -5.320 -11.386   4.108  0.00  0.00    -0.080 Cl
ENDBRANCH  22  23
ENDBRANCH  20  22
ENDBRANCH  19  20
ENDBRANCH  17  19
ENDBRANCH   5  15
BRANCH   1  30
ATOM     30  C   UNL     1      -3.756  -2.442  -1.202  0.00  0.00    +0.096 C 
BRANCH  30  31
ATOM     31  C   UNL     1      -4.212  -0.997  -1.410  0.00  0.00    +0.009 C 
BRANCH  31  33
ATOM     32  C   UNL     1      -3.443   1.355  -1.756  0.00  0.00    +0.004 C 
ATOM     33  C   UNL     1      -2.987  -0.090  -1.547  0.00  0.00    -0.003 C 
ENDBRANCH  31  33
ENDBRANCH  30  31
ENDBRANCH   1  30
TORSDOF 8
