REMARK  Name = ZINC22371883
REMARK  11 active torsions:
REMARK  status: ('A' for Active; 'I' for Inactive)
REMARK    1  A    between atoms: C_1  and  C_2
REMARK    2  A    between atoms: C_5  and  N_8
REMARK    3  A    between atoms: N_8  and  C_9
REMARK    4  A    between atoms: N_8  and  S_28
REMARK    5  A    between atoms: C_9  and  C_10
REMARK    6  A    between atoms: N_12  and  C_13
REMARK    7  A    between atoms: C_16  and  C_26
REMARK    8  A    between atoms: C_16  and  C_27
REMARK    9  A    between atoms: C_21  and  O_24
REMARK   10  A    between atoms: O_24  and  C_25
REMARK   11  A    between atoms: S_28  and  C_31
REMARK                            x       y       z     vdW  Elec       q    Type
REMARK                         _______ _______ _______ _____ _____    ______ ____
ROOT
ATOM      1  C   UNL     1       4.557  -2.701  -3.484  0.00  0.00    +0.227 C 
ENDROOT
BRANCH   1   2
ATOM      2  C   UNL     1       4.002  -1.484  -2.790  0.00  0.00    +0.233 C 
ATOM      3  O   UNL     1       4.124  -1.362  -1.590  0.00  0.00    -0.274 OA
ATOM      4  N   UNL     1       3.370  -0.531  -3.504  0.00  0.00    -0.307 N 
ATOM      5  H   UNL     1       3.260  -0.641  -4.592  0.00  0.00    +0.149 HD
BRANCH   4   6
ATOM      6  C   UNL     1       2.831   0.652  -2.829  0.00  0.00    +0.111 C 
ATOM      7  C   UNL     1       2.749   1.813  -3.824  0.00  0.00    +0.074 C 
ATOM      8  C   UNL     1       1.920   2.936  -3.187  0.00  0.00    +0.107 C 
ATOM      9  O   UNL     1       0.586   2.461  -3.003  0.00  0.00    -0.486 OA
ATOM     10  C   UNL     1       0.418   1.252  -2.404  0.00  0.00    +0.126 A 
ATOM     11  C   UNL     1       1.455   0.343  -2.296  0.00  0.00    +0.018 A 
ATOM     12  C   UNL     1       1.239  -0.880  -1.683  0.00  0.00    +0.054 A 
ATOM     13  C   UNL     1      -0.011  -1.195  -1.174  0.00  0.00    +0.121 A 
ATOM     14  C   UNL     1      -1.049  -0.282  -1.279  0.00  0.00    +0.049 A 
ATOM     15  C   UNL     1      -0.836   0.935  -1.891  0.00  0.00    +0.049 A 
ATOM     16  C   UNL     1       1.911   4.156  -4.109  0.00  0.00    +0.055 C 
ATOM     17  C   UNL     1       2.522   3.317  -1.833  0.00  0.00    +0.055 C 
BRANCH  13  18
ATOM     18  O   UNL     1      -0.218  -2.397  -0.572  0.00  0.00    -0.495 OA
ATOM     19  C   UNL     1      -1.532  -2.654  -0.071  0.00  0.00    +0.277 C 
ENDBRANCH  13  18
ENDBRANCH   4   6
ENDBRANCH   1   2
BRANCH   1  20
ATOM     20  N   UNL     1       5.191  -3.579  -2.498  0.00  0.00    -0.194 N 
BRANCH  20  25
ATOM     21  C   UNL     1      10.570  -2.683  -0.944  0.00  0.00    +0.044 C 
ATOM     22  C   UNL     1       9.141  -2.921  -1.357  0.00  0.00    -0.050 A 
ATOM     23  C   UNL     1       8.200  -1.921  -1.194  0.00  0.00    +0.005 A 
ATOM     24  C   UNL     1       6.889  -2.136  -1.572  0.00  0.00    +0.025 A 
ATOM     25  C   UNL     1       6.516  -3.358  -2.115  0.00  0.00    +0.052 A 
ATOM     26  C   UNL     1       7.462  -4.363  -2.272  0.00  0.00    +0.025 A 
ATOM     27  C   UNL     1       8.773  -4.140  -1.897  0.00  0.00    +0.005 A 
ENDBRANCH  20  25
BRANCH  20  28
ATOM     28  S   UNL     1       4.336  -4.834  -1.836  0.00  0.00    +0.075 S 
ATOM     29  O   UNL     1       5.026  -5.216  -0.654  0.00  0.00    -0.150 OA
ATOM     30  O   UNL     1       2.972  -4.436  -1.827  0.00  0.00    -0.150 OA
BRANCH  28  31
ATOM     31  C   UNL     1       4.457  -6.192  -2.951  0.00  0.00    +0.109 A 
ATOM     32  C   UNL     1       3.586  -6.288  -4.020  0.00  0.00    +0.030 A 
ATOM     33  C   UNL     1       3.684  -7.351  -4.899  0.00  0.00    +0.022 A 
ATOM     34  C   UNL     1       4.647  -8.324  -4.702  0.00  0.00    +0.041 A 
ATOM     35  C   UNL     1       5.515  -8.231  -3.629  0.00  0.00    +0.022 A 
ATOM     36  C   UNL     1       5.420  -7.165  -2.754  0.00  0.00    +0.030 A 
ATOM     37 CL   UNL     1       4.766  -9.663  -5.801  0.00  0.00    -0.084 Cl
ENDBRANCH  28  31
ENDBRANCH  20  28
ENDBRANCH   1  20
TORSDOF 7
