REMARK  Name = ZINC05328819
REMARK  12 active torsions:
REMARK  status: ('A' for Active; 'I' for Inactive)
REMARK    1  A    between atoms: C_4  and  C_7
REMARK    2  A    between atoms: C_7  and  C_8
REMARK    3  A    between atoms: C_8  and  C_10
REMARK    4  A    between atoms: C_8  and  N_13
REMARK    5  A    between atoms: C_14  and  C_16
REMARK    6  A    between atoms: C_16  and  N_17
REMARK    7  A    between atoms: C_18  and  C_20
REMARK    8  A    between atoms: C_20  and  C_22
REMARK    9  A    between atoms: C_20  and  N_29
REMARK   10  A    between atoms: C_22  and  C_23
REMARK   11  A    between atoms: C_30  and  C_32
REMARK   12  A    between atoms: C_32  and  N_58
REMARK                            x       y       z     vdW  Elec       q    Type
REMARK                         _______ _______ _______ _____ _____    ______ ____
ROOT
ATOM      1  N   UNL     1      -3.300   3.235   5.596  0.00  0.00    -0.305 N 
ATOM      2  C   UNL     1      -3.527   4.282   6.415  0.00  0.00    +0.234 C 
ATOM      3  O   UNL     1      -3.873   5.348   5.953  0.00  0.00    -0.274 OA
ATOM      4  H   UNL     1      -3.023   2.382   5.965  0.00  0.00    +0.149 HD
ENDROOT
BRANCH   1   5
ATOM      5  C   UNL     1      -3.472   3.386   4.149  0.00  0.00    +0.200 C 
BRANCH   5   7
ATOM      6  N   UNL     1      -3.249   1.981   2.126  0.00  0.00    -0.302 N 
ATOM      7  C   UNL     1      -3.159   2.080   3.467  0.00  0.00    +0.231 C 
ATOM      8  O   UNL     1      -2.825   1.117   4.125  0.00  0.00    -0.274 OA
ATOM      9  H   UNL     1      -3.517   2.751   1.600  0.00  0.00    +0.150 HD
BRANCH   6  10
ATOM     10  C   UNL     1      -2.945   0.711   1.462  0.00  0.00    +0.163 C 
BRANCH  10  11
ATOM     11  C   UNL     1      -4.172  -0.164   1.465  0.00  0.00    +0.231 C 
ATOM     12  O   UNL     1      -5.200   0.234   1.972  0.00  0.00    -0.274 OA
ATOM     13  N   UNL     1      -4.127  -1.389   0.905  0.00  0.00    -0.328 N 
ATOM     14  H   UNL     1      -3.306  -1.708   0.500  0.00  0.00    +0.145 HD
ATOM     15  H   UNL     1      -4.917  -1.952   0.907  0.00  0.00    +0.145 HD
ENDBRANCH  10  11
BRANCH  10  16
ATOM     16  C   UNL     1      -2.514   0.980   0.019  0.00  0.00    +0.067 C 
BRANCH  16  20
ATOM     17  C   UNL     1       1.156   3.165   0.008  0.00  0.00    +0.000 A 
ATOM     18  C   UNL     1       1.175   1.783   0.000  0.00  0.00    +0.000 A 
ATOM     19  C   UNL     1      -0.013   1.076   0.008  0.00  0.00    +0.004 A 
ATOM     20  C   UNL     1      -1.219   1.751   0.017  0.00  0.00    -0.045 A 
ATOM     21  C   UNL     1      -1.238   3.133   0.030  0.00  0.00    +0.004 A 
ATOM     22  C   UNL     1      -0.050   3.840   0.022  0.00  0.00    +0.000 A 
ENDBRANCH  16  20
ENDBRANCH  10  16
ENDBRANCH   6  10
ENDBRANCH   5   7
ENDBRANCH   1   5
BRANCH   2  23
ATOM     23  C   UNL     1      -3.350   4.126   7.903  0.00  0.00    +0.163 C 
BRANCH  23  24
ATOM     24  N   UNL     1      -3.180   5.446   8.515  0.00  0.00    -0.305 N 
ATOM     25  C   UNL     1      -4.151   6.373   8.398  0.00  0.00    +0.196 C 
ATOM     26  O   UNL     1      -5.165   6.115   7.785  0.00  0.00    -0.278 OA
ATOM     27  H   UNL     1      -2.369   5.653   9.005  0.00  0.00    +0.149 HD
BRANCH  25  28
ATOM     28  C   UNL     1      -3.976   7.731   9.028  0.00  0.00    +0.011 C 
BRANCH  28  31
ATOM     29  H   UNL     1      -6.002   8.093   9.083  0.00  0.00    -0.089 HD
ATOM     30  H   UNL     1      -5.072   9.468   9.171  0.00  0.00    -0.089 HD
ATOM     31  N   UNL     1      -5.163   8.553   8.734  0.00  0.00    +0.384 N 
ATOM     32  H   UNL     1      -5.247   8.674   7.718  0.00  0.00    -0.089 HD
ENDBRANCH  28  31
ENDBRANCH  25  28
ENDBRANCH  23  24
BRANCH  23  33
ATOM     33  C   UNL     1      -4.585   3.444   8.495  0.00  0.00    +0.067 C 
BRANCH  33  34
ATOM     34  C   UNL     1      -4.358   3.178   9.961  0.00  0.00    -0.045 A 
ATOM     35  C   UNL     1      -3.796   1.982  10.367  0.00  0.00    +0.004 A 
ATOM     36  C   UNL     1      -3.583   1.740  11.711  0.00  0.00    +0.000 A 
ATOM     37  C   UNL     1      -3.942   2.688  12.650  0.00  0.00    +0.000 A 
ATOM     38  C   UNL     1      -4.510   3.882  12.244  0.00  0.00    +0.000 A 
ATOM     39  C   UNL     1      -4.717   4.127  10.900  0.00  0.00    +0.004 A 
ENDBRANCH  33  34
ENDBRANCH  23  33
ENDBRANCH   2  23
TORSDOF 12
