REMARK  Name = ZINC20481023
REMARK  6 active torsions:
REMARK  status: ('A' for Active; 'I' for Inactive)
REMARK    1  A    between atoms: C_1  and  C_2
REMARK    2  A    between atoms: C_2  and  N_3
REMARK    3  A    between atoms: N_3  and  C_4
REMARK    4  A    between atoms: C_6  and  O_11
REMARK    5  A    between atoms: C_9  and  C_10
REMARK    6  A    between atoms: C_12  and  C_14
REMARK                            x       y       z     vdW  Elec       q    Type
REMARK                         _______ _______ _______ _____ _____    ______ ____
ROOT
ATOM      1  N   UNL     1      -0.522   1.607   1.121  0.00  0.00    -0.267 N 
ATOM      2  C   UNL     1      -1.423   1.202   0.204  0.00  0.00    +0.252 C 
ATOM      3  O   UNL     1      -1.420   1.694  -0.908  0.00  0.00    -0.270 OA
ENDROOT
BRANCH   1   4
ATOM      4  C   UNL     1       0.337   2.673   0.835  0.00  0.00    +0.043 A 
ATOM      5  C   UNL     1       0.010   3.958   1.246  0.00  0.00    +0.069 A 
ATOM      6  C   UNL     1       0.863   5.012   0.962  0.00  0.00    +0.119 A 
ATOM      7  C   UNL     1       2.042   4.781   0.267  0.00  0.00    +0.046 A 
ATOM      8  C   UNL     1       2.366   3.501  -0.142  0.00  0.00    +0.009 A 
ATOM      9  C   UNL     1       1.521   2.447   0.145  0.00  0.00    -0.029 A 
ATOM     10  C   UNL     1       1.880   1.051  -0.297  0.00  0.00    +0.045 C 
BRANCH   6  11
ATOM     11  O   UNL     1       0.546   6.271   1.363  0.00  0.00    -0.507 OA
ATOM     12  H   UNL     1       1.224   7.107   1.137  0.00  0.00    +0.292 HD
ENDBRANCH   6  11
ENDBRANCH   1   4
BRANCH   2  13
ATOM     13  C   UNL     1      -2.410   0.158   0.548  0.00  0.00    +0.056 A 
ATOM     14  C   UNL     1      -1.992  -1.139   0.868  0.00  0.00    +0.031 A 
ATOM     15  C   UNL     1      -2.956  -2.079   1.188  0.00  0.00    +0.037 A 
ATOM     16  C   UNL     1      -4.291  -1.713   1.172  0.00  0.00    +0.126 A 
ATOM     17  N   UNL     1      -4.656  -0.484   0.861  0.00  0.00    -0.261 NA
ATOM     18  C   UNL     1      -3.775   0.447   0.554  0.00  0.00    +0.123 A 
ATOM     19 BR   UNL     1      -2.456  -3.847   1.636  0.00  0.00    -0.049 Br
ENDBRANCH   2  13
BRANCH   1  21
ATOM     20  C   UNL     1      -1.396   1.603   3.405  0.00  0.00    +0.025 C 
ATOM     21  C   UNL     1      -0.442   0.929   2.417  0.00  0.00    +0.110 C 
ENDBRANCH   1  21
TORSDOF 4
