REMARK  Name = ZINC33598419
REMARK  10 active torsions:
REMARK  status: ('A' for Active; 'I' for Inactive)
REMARK    1  A    between atoms: C_1  and  C_2
REMARK    2  A    between atoms: C_2  and  C_3
REMARK    3  A    between atoms: C_7  and  C_39
REMARK    4  A    between atoms: C_8  and  N_9
REMARK    5  A    between atoms: C_14  and  C_32
REMARK    6  A    between atoms: C_17  and  C_22
REMARK    7  A    between atoms: C_17  and  C_29
REMARK    8  A    between atoms: C_22  and  C_23
REMARK    9  A    between atoms: C_37  and  C_38
REMARK   10  A    between atoms: C_39  and  C_40
REMARK                            x       y       z     vdW  Elec       q    Type
REMARK                         _______ _______ _______ _____ _____    ______ ____
ROOT
ATOM      1  N   UNL     1      -1.998   1.802   3.289  0.00  0.00    -0.209 N 
ATOM      2  C   UNL     1      -1.179   2.865   3.027  0.00  0.00    +0.229 C 
ATOM      3  O   UNL     1      -0.835   3.730   3.804  0.00  0.00    -0.275 OA
ATOM      4  C   UNL     1      -0.795   2.742   1.587  0.00  0.00    +0.077 C 
ATOM      5  C   UNL     1       0.625   3.005   1.117  0.00  0.00    -0.026 C 
ATOM      6  N   UNL     1       0.938   1.909   0.151  0.00  0.00    +0.395 N 
ATOM      7  C   UNL     1      -0.190   0.916   0.202  0.00  0.00    +0.048 C 
ATOM      8  C   UNL     1      -0.771   1.167   1.532  0.00  0.00    +0.086 C 
ATOM      9  C   UNL     1      -1.930   0.830   2.322  0.00  0.00    +0.229 C 
ATOM     10  O   UNL     1      -2.681  -0.109   2.165  0.00  0.00    -0.275 OA
ATOM     11  H   UNL     1       1.033   2.327  -0.862  0.00  0.00    -0.083 HD
ATOM     12  H   UNL     1       1.884   1.426   0.438  0.00  0.00    -0.083 HD
ENDROOT
BRANCH   5  13
ATOM     13  C   UNL     1       1.579   2.961   2.283  0.00  0.00    -0.058 A 
ATOM     14  C   UNL     1       2.128   1.756   2.681  0.00  0.00    +0.002 A 
ATOM     15  C   UNL     1       3.005   1.716   3.748  0.00  0.00    +0.000 A 
ATOM     16  C   UNL     1       3.327   2.879   4.423  0.00  0.00    +0.000 A 
ATOM     17  C   UNL     1       2.775   4.082   4.027  0.00  0.00    +0.003 A 
ATOM     18  C   UNL     1       1.900   4.123   2.958  0.00  0.00    -0.049 A 
ATOM     19  C   UNL     1       1.298   5.436   2.527  0.00  0.00    +0.044 C 
ENDBRANCH   5  13
BRANCH   1  25
ATOM     20  C   UNL     1      -2.338   1.128   5.585  0.00  0.00    -0.026 A 
ATOM     21  C   UNL     1      -3.147   1.047   6.702  0.00  0.00    +0.005 A 
ATOM     22  C   UNL     1      -4.439   1.539   6.658  0.00  0.00    +0.001 A 
ATOM     23  C   UNL     1      -4.922   2.118   5.499  0.00  0.00    +0.005 A 
ATOM     24  C   UNL     1      -4.116   2.207   4.381  0.00  0.00    -0.026 A 
ATOM     25  C   UNL     1      -2.819   1.714   4.422  0.00  0.00    +0.050 A 
BRANCH  20  27
ATOM     26  C   UNL     1       0.039   1.717   5.974  0.00  0.00    +0.009 C 
ATOM     27  C   UNL     1      -0.933   0.586   5.631  0.00  0.00    +0.033 C 
ENDBRANCH  20  27
BRANCH  24  28
ATOM     28  C   UNL     1      -4.644   2.838   3.119  0.00  0.00    +0.033 C 
ATOM     29  C   UNL     1      -5.186   1.748   2.192  0.00  0.00    +0.009 C 
ENDBRANCH  24  28
ENDBRANCH   1  25
BRANCH   7  30
ATOM     30  C   UNL     1       0.332  -0.494   0.103  0.00  0.00    +0.346 C 
ATOM     31  O   UNL     1      -0.196  -1.379   0.734  0.00  0.00    -0.248 OA
ATOM     32  O   UNL     1       1.382  -0.767  -0.687  0.00  0.00    -0.248 OA
ENDBRANCH   7  30
BRANCH   7  33
ATOM     33  C   UNL     1      -1.211   1.195  -0.903  0.00  0.00    +0.003 C 
BRANCH  33  34
ATOM     34  C   UNL     1      -0.583   0.891  -2.265  0.00  0.00    -0.012 C 
ATOM     35  C   UNL     1       0.541   1.891  -2.543  0.00  0.00    +0.003 C 
ATOM     36  C   UNL     1       1.168   1.586  -3.905  0.00  0.00    +0.000 C 
ATOM     37  C   UNL     1       0.101   1.702  -4.996  0.00  0.00    +0.000 C 
ATOM     38  C   UNL     1      -1.023   0.702  -4.717  0.00  0.00    +0.000 C 
ATOM     39  C   UNL     1      -1.650   1.006  -3.355  0.00  0.00    +0.003 C 
ENDBRANCH  33  34
ENDBRANCH   7  33
TORSDOF 7
