REMARK  Name = ZINC27655990
REMARK  17 active torsions:
REMARK  status: ('A' for Active; 'I' for Inactive)
REMARK    1  A    between atoms: C_1  and  C_2
REMARK    2  A    between atoms: C_2  and  O_3
REMARK    3  A    between atoms: O_3  and  C_4
REMARK    4  A    between atoms: C_6  and  C_28
REMARK    5  A    between atoms: C_8  and  C_24
REMARK    6  A    between atoms: C_9  and  C_23
REMARK    7  A    between atoms: C_11  and  C_12
REMARK    8  A    between atoms: C_12  and  O_13
REMARK    9  A    between atoms: O_13  and  C_14
REMARK   10  A    between atoms: C_14  and  C_15
REMARK   11  A    between atoms: C_15  and  N_16
REMARK   12  A    between atoms: N_16  and  C_17
REMARK   13  A    between atoms: C_17  and  C_18
REMARK   14  A    between atoms: C_17  and  C_19
REMARK   15  A    between atoms: C_17  and  C_20
REMARK   16  A    between atoms: C_24  and  O_26
REMARK   17  A    between atoms: O_26  and  C_27
REMARK                            x       y       z     vdW  Elec       q    Type
REMARK                         _______ _______ _______ _____ _____    ______ ____
ROOT
ATOM      1  C   UNL     1      -1.485  -1.864   0.038  0.00  0.00    +0.338 C 
ATOM      2  C   UNL     1      -2.756  -2.395   0.028  0.00  0.00    +0.072 C 
ATOM      3  C   UNL     1      -3.000  -3.873   0.278  0.00  0.00    +0.098 C 
ATOM      4  C   UNL     1      -4.449  -4.321   0.238  0.00  0.00    +0.069 C 
ATOM      5  C   UNL     1      -5.397  -3.371  -0.015  0.00  0.00    +0.049 C 
ATOM      6  N   UNL     1      -5.091  -2.099  -0.222  0.00  0.00    -0.253 NA
ATOM      7  C   UNL     1      -3.877  -1.597  -0.207  0.00  0.00    +0.078 C 
ATOM      8  C   UNL     1      -6.845  -3.785  -0.061  0.00  0.00    +0.066 C 
ATOM      9  O   UNL     1      -0.423  -2.662   0.267  0.00  0.00    -0.245 OA
ENDROOT
BRANCH   3  10
ATOM     10  C   UNL     1      -2.441  -4.220   1.634  0.00  0.00    -0.017 A 
ATOM     11  C   UNL     1      -2.929  -3.591   2.764  0.00  0.00    +0.006 A 
ATOM     12  C   UNL     1      -2.416  -3.909   4.008  0.00  0.00    +0.000 A 
ATOM     13  C   UNL     1      -1.415  -4.856   4.122  0.00  0.00    +0.001 A 
ATOM     14  C   UNL     1      -0.927  -5.485   2.993  0.00  0.00    +0.020 A 
ATOM     15  C   UNL     1      -1.443  -5.171   1.748  0.00  0.00    +0.045 A 
ATOM     16 CL   UNL     1      -0.835  -5.966   0.330  0.00  0.00    -0.083 Cl
ENDBRANCH   3  10
BRANCH   4  17
ATOM     17  C   UNL     1      -4.803  -5.664   0.454  0.00  0.00    +0.338 C 
ATOM     18  O   UNL     1      -5.977  -5.979   0.535  0.00  0.00    -0.245 OA
BRANCH  17  19
ATOM     19  O   UNL     1      -3.842  -6.605   0.571  0.00  0.00    -0.465 OA
ATOM     20  C   UNL     1      -4.273  -7.950   0.789  0.00  0.00    +0.280 C 
ENDBRANCH  17  19
ENDBRANCH   4  17
BRANCH   1  21
ATOM     21  O   UNL     1      -1.303  -0.547  -0.182  0.00  0.00    -0.462 OA
BRANCH  21  23
ATOM     22  C   UNL     1       0.049   1.441  -0.425  0.00  0.00    +0.048 C 
ATOM     23  C   UNL     1       0.042  -0.065  -0.157  0.00  0.00    +0.229 C 
ENDBRANCH  21  23
ENDBRANCH   1  21
BRANCH   7  24
ATOM     24  C   UNL     1      -3.690  -0.122  -0.454  0.00  0.00    +0.215 C 
BRANCH  24  25
ATOM     25  O   UNL     1      -4.963   0.490  -0.668  0.00  0.00    -0.376 OA
BRANCH  25  26
ATOM     26  C   UNL     1      -4.897   1.896  -0.913  0.00  0.00    +0.141 C 
BRANCH  26  27
ATOM     27  C   UNL     1      -6.310   2.443  -1.127  0.00  0.00    -0.053 C 
BRANCH  27  28
ATOM     28  N   UNL     1      -7.083   2.301   0.114  0.00  0.00    +0.390 N 
ATOM     29  H   UNL     1      -7.135   1.326   0.368  0.00  0.00    -0.084 HD
ATOM     30  H   UNL     1      -6.631   2.818   0.853  0.00  0.00    -0.084 HD
BRANCH  28  31
ATOM     31  C   UNL     1      -8.440   2.826  -0.091  0.00  0.00    +0.004 C 
ATOM     32  C   UNL     1      -8.361   4.305  -0.476  0.00  0.00    -0.001 C 
ATOM     33  C   UNL     1      -9.126   2.043  -1.212  0.00  0.00    -0.001 C 
BRANCH  31  34
ATOM     34  C   UNL     1      -9.233   2.680   1.182  0.00  0.00    +0.199 C 
ATOM     35  O   UNL     1     -10.050   3.522   1.487  0.00  0.00    -0.278 OA
ATOM     36  N   UNL     1      -9.034   1.613   1.981  0.00  0.00    -0.330 N 
ATOM     37  H   UNL     1      -8.380   0.940   1.737  0.00  0.00    +0.145 HD
ATOM     38  H   UNL     1      -9.544   1.519   2.801  0.00  0.00    +0.145 HD
ENDBRANCH  31  34
ENDBRANCH  28  31
ENDBRANCH  27  28
ENDBRANCH  26  27
ENDBRANCH  25  26
ENDBRANCH  24  25
ENDBRANCH   7  24
TORSDOF 12
