REMARK  Name = ZINC19048097
REMARK  7 active torsions:
REMARK  status: ('A' for Active; 'I' for Inactive)
REMARK    1  A    between atoms: C_5  and  C_7
REMARK    2  A    between atoms: C_7  and  N_8
REMARK    3  A    between atoms: C_9  and  C_11
REMARK    4  A    between atoms: C_11  and  S_12
REMARK    5  A    between atoms: S_12  and  C_13
REMARK    6  A    between atoms: C_16  and  C_19
REMARK    7  A    between atoms: N_17  and  N_18
REMARK                            x       y       z     vdW  Elec       q    Type
REMARK                         _______ _______ _______ _____ _____    ______ ____
ROOT
ATOM      1  C   UNL     1      -0.128  -0.826  -1.082  0.00  0.00    +0.209 A 
ATOM      2  N   UNL     1       0.001  -2.061  -0.650  0.00  0.00    -0.121 NA
ATOM      3  N   UNL     1       0.143  -2.069   0.627  0.00  0.00    -0.127 NA
ATOM      4  C   UNL     1       0.119  -0.840   1.089  0.00  0.00    +0.183 A 
ATOM      5  N   UNL     1      -0.051  -0.006   0.007  0.00  0.00    -0.224 N 
ENDROOT
BRANCH   4   6
ATOM      6  C   UNL     1       0.250  -0.429   2.503  0.00  0.00    +0.035 A 
ATOM      7  C   UNL     1      -0.639   0.497   3.049  0.00  0.00    +0.013 A 
ATOM      8  C   UNL     1      -0.512   0.876   4.369  0.00  0.00    +0.001 A 
ATOM      9  C   UNL     1       0.495   0.339   5.152  0.00  0.00    +0.001 A 
ATOM     10  C   UNL     1       1.381  -0.579   4.618  0.00  0.00    +0.016 A 
ATOM     11  C   UNL     1       1.261  -0.971   3.300  0.00  0.00    +0.029 A 
ATOM     12 BR   UNL     1       2.467  -2.233   2.572  0.00  0.00    -0.050 Br
ENDBRANCH   4   6
BRANCH   5  13
ATOM     13  N   UNL     1      -0.133   1.357   0.022  0.00  0.00    -0.295 N 
ATOM     14  H   UNL     1       0.767   1.775  -0.163  0.00  0.00    +0.163 HD
ATOM     15  H   UNL     1      -0.825   1.685  -0.635  0.00  0.00    +0.163 HD
ENDBRANCH   5  13
BRANCH   1  16
ATOM     16  S   UNL     1      -0.353  -0.323  -2.755  0.00  0.00    -0.075 S 
BRANCH  16  17
ATOM     17  C   UNL     1      -0.349  -1.938  -3.573  0.00  0.00    +0.173 C 
BRANCH  17  19
ATOM     18  N   UNL     1      -0.563  -2.822  -5.873  0.00  0.00    -0.310 N 
ATOM     19  C   UNL     1      -0.533  -1.750  -5.057  0.00  0.00    +0.224 C 
ATOM     20  O   UNL     1      -0.655  -0.634  -5.516  0.00  0.00    -0.275 OA
ATOM     21  H   UNL     1      -0.466  -3.715  -5.505  0.00  0.00    +0.149 HD
BRANCH  18  22
ATOM     22  C   UNL     1      -0.742  -2.640  -7.315  0.00  0.00    +0.142 C 
BRANCH  22  27
ATOM     23  C   UNL     1       0.407  -5.670  -9.252  0.00  0.00    +0.000 A 
ATOM     24  C   UNL     1      -0.733  -6.453  -9.245  0.00  0.00    +0.003 A 
ATOM     25  C   UNL     1      -1.877  -6.002  -8.614  0.00  0.00    +0.038 A 
ATOM     26  C   UNL     1      -1.881  -4.767  -7.988  0.00  0.00    +0.128 A 
ATOM     27  C   UNL     1      -0.739  -3.985  -7.996  0.00  0.00    +0.005 A 
ATOM     28  C   UNL     1       0.403  -4.435  -8.633  0.00  0.00    +0.008 A 
ATOM     29  F   UNL     1      -2.999  -4.325  -7.371  0.00  0.00    -0.205 F 
ENDBRANCH  22  27
ENDBRANCH  18  22
ENDBRANCH  17  19
ENDBRANCH  16  17
ENDBRANCH   1  16
TORSDOF 7
