REMARK  Name = ZINC14980181
REMARK  9 active torsions:
REMARK  status: ('A' for Active; 'I' for Inactive)
REMARK    1  A    between atoms: C_1  and  O_2
REMARK    2  A    between atoms: O_2  and  C_3
REMARK    3  A    between atoms: C_5  and  N_26
REMARK    4  A    between atoms: C_18  and  C_19
REMARK    5  A    between atoms: C_18  and  N_67
REMARK    6  A    between atoms: C_24  and  O_25
REMARK    7  A    between atoms: C_27  and  C_29
REMARK    8  A    between atoms: C_29  and  O_30
REMARK    9  A    between atoms: O_30  and  C_31
REMARK                            x       y       z     vdW  Elec       q    Type
REMARK                         _______ _______ _______ _____ _____    ______ ____
ROOT
ATOM      1  C   UNL     1       2.949  -0.505   0.160  0.00  0.00    +0.153 C 
ATOM      2  C   UNL     1       3.616  -1.745   0.794  0.00  0.00    +0.133 C 
ATOM      3  C   UNL     1       3.678  -1.447   2.277  0.00  0.00    -0.021 A 
ATOM      4  C   UNL     1       4.432  -2.034   3.280  0.00  0.00    +0.006 A 
ATOM      5  C   UNL     1       4.323  -1.591   4.583  0.00  0.00    +0.000 A 
ATOM      6  C   UNL     1       3.457  -0.557   4.889  0.00  0.00    +0.000 A 
ATOM      7  C   UNL     1       2.704   0.030   3.892  0.00  0.00    +0.004 A 
ATOM      8  C   UNL     1       2.812  -0.413   2.583  0.00  0.00    -0.034 A 
ATOM      9  C   UNL     1       2.114   0.051   1.328  0.00  0.00    +0.021 C 
ATOM     10  C   UNL     1       0.696  -0.512   1.269  0.00  0.00    -0.005 C 
ATOM     11  C   UNL     1       0.002  -0.004   0.002  0.00  0.00    -0.077 C 
ATOM     12  C   UNL     1       1.343   2.016   0.000  0.00  0.00    -0.077 C 
ATOM     13  C   UNL     1       2.082   1.575   1.267  0.00  0.00    -0.005 C 
ATOM     14  N   UNL     1      -0.033   1.474   0.035  0.00  0.00    +0.383 N 
ATOM     15  H   UNL     1      -0.487   1.776   0.905  0.00  0.00    -0.081 HD
ENDROOT
BRANCH   2  16
ATOM     16  N   UNL     1       2.805  -2.940   0.550  0.00  0.00    -0.303 N 
ATOM     17  C   UNL     1       3.372  -4.162   0.602  0.00  0.00    +0.251 C 
ATOM     18  O   UNL     1       4.554  -4.272   0.852  0.00  0.00    -0.272 OA
ATOM     19  H   UNL     1       1.860  -2.852   0.350  0.00  0.00    +0.149 HD
BRANCH  17  20
ATOM     20  C   UNL     1       2.538  -5.391   0.350  0.00  0.00    +0.324 C 
BRANCH  20  21
ATOM     21  O   UNL     1       3.359  -6.555   0.461  0.00  0.00    -0.483 OA
BRANCH  21  22
ATOM     22  C   UNL     1       2.757  -7.757   0.262  0.00  0.00    +0.121 A 
ATOM     23  C   UNL     1       1.401  -7.815  -0.029  0.00  0.00    +0.045 A 
ATOM     24  C   UNL     1       0.792  -9.037  -0.237  0.00  0.00    +0.004 A 
ATOM     25  C   UNL     1       1.530 -10.203  -0.145  0.00  0.00    +0.000 A 
ATOM     26  C   UNL     1       2.880 -10.148   0.150  0.00  0.00    +0.004 A 
ATOM     27  C   UNL     1       3.494  -8.928   0.354  0.00  0.00    +0.045 A 
ENDBRANCH  21  22
ENDBRANCH  20  21
ENDBRANCH  17  20
ENDBRANCH   2  16
BRANCH   1  29
ATOM     28  C   UNL     1       4.266   0.359  -1.646  0.00  0.00    +0.194 C 
ATOM     29  O   UNL     1       3.932   0.443  -0.259  0.00  0.00    -0.377 OA
ENDBRANCH   1  29
BRANCH  14  30
ATOM     30  C   UNL     1      -0.806   1.986  -1.114  0.00  0.00    -0.039 C 
BRANCH  30  31
ATOM     31  C   UNL     1      -1.010   3.469  -0.939  0.00  0.00    -0.022 A 
ATOM     32  C   UNL     1      -2.207   3.948  -0.442  0.00  0.00    +0.005 A 
ATOM     33  C   UNL     1      -2.393   5.308  -0.276  0.00  0.00    +0.000 A 
ATOM     34  C   UNL     1      -1.387   6.192  -0.617  0.00  0.00    +0.004 A 
ATOM     35  C   UNL     1      -0.191   5.719  -1.120  0.00  0.00    +0.045 A 
ATOM     36  C   UNL     1       0.001   4.354  -1.282  0.00  0.00    +0.118 A 
BRANCH  36  37
ATOM     37  O   UNL     1       1.177   3.886  -1.776  0.00  0.00    -0.507 OA
ATOM     38  H   UNL     1       1.194   3.802  -2.739  0.00  0.00    +0.292 HD
ENDBRANCH  36  37
ENDBRANCH  30  31
ENDBRANCH  14  30
TORSDOF 8
