REMARK  Name = ZINC48524362
REMARK  25 active torsions:
REMARK  status: ('A' for Active; 'I' for Inactive)
REMARK    1  A    between atoms: C_1  and  C_2
REMARK    2  A    between atoms: C_2  and  C_3
REMARK    3  A    between atoms: C_3  and  C_4
REMARK    4  A    between atoms: C_4  and  C_5
REMARK    5  A    between atoms: C_4  and  C_21
REMARK    6  A    between atoms: C_6  and  O_20
REMARK    7  A    between atoms: C_7  and  C_16
REMARK    8  A    between atoms: C_9  and  C_12
REMARK    9  A    between atoms: C_10  and  O_11
REMARK   10  A    between atoms: C_12  and  C_13
REMARK   11  A    between atoms: C_12  and  C_14
REMARK   12  A    between atoms: C_12  and  C_15
REMARK   13  A    between atoms: C_16  and  C_17
REMARK   14  A    between atoms: C_16  and  C_18
REMARK   15  A    between atoms: C_16  and  C_19
REMARK   16  A    between atoms: C_22  and  O_36
REMARK   17  A    between atoms: C_23  and  C_32
REMARK   18  A    between atoms: C_25  and  C_28
REMARK   19  A    between atoms: C_26  and  O_27
REMARK   20  A    between atoms: C_28  and  C_29
REMARK   21  A    between atoms: C_28  and  C_30
REMARK   22  A    between atoms: C_28  and  C_31
REMARK   23  A    between atoms: C_32  and  C_33
REMARK   24  A    between atoms: C_32  and  C_34
REMARK   25  A    between atoms: C_32  and  C_35
REMARK                            x       y       z     vdW  Elec       q    Type
REMARK                         _______ _______ _______ _____ _____    ______ ____
ROOT
ATOM      1  C   UNL     1       0.499  -2.081  -0.798  0.00  0.00    +0.063 C 
ENDROOT
BRANCH   1   2
ATOM      2  C   UNL     1      -0.834  -2.550  -1.320  0.00  0.00    +0.044 A 
ATOM      3  C   UNL     1      -1.622  -3.395  -0.555  0.00  0.00    +0.128 A 
ATOM      4  C   UNL     1      -2.850  -3.825  -1.038  0.00  0.00    +0.000 A 
ATOM      5  C   UNL     1      -3.287  -3.411  -2.282  0.00  0.00    +0.015 A 
ATOM      6  C   UNL     1      -2.504  -2.568  -3.047  0.00  0.00    +0.000 A 
ATOM      7  C   UNL     1      -1.278  -2.131  -2.565  0.00  0.00    +0.128 A 
BRANCH   6   8
ATOM      8  C   UNL     1      -2.983  -2.119  -4.403  0.00  0.00    -0.009 C 
ATOM      9  C   UNL     1      -4.355  -2.735  -4.689  0.00  0.00    +0.015 C 
ATOM     10  C   UNL     1      -3.095  -0.594  -4.425  0.00  0.00    +0.015 C 
ATOM     11  C   UNL     1      -1.988  -2.574  -5.472  0.00  0.00    +0.015 C 
ENDBRANCH   6   8
BRANCH   4  12
ATOM     12  C   UNL     1      -3.707  -4.744  -0.206  0.00  0.00    -0.009 C 
ATOM     13  C   UNL     1      -4.988  -5.079  -0.972  0.00  0.00    +0.015 C 
ATOM     14  C   UNL     1      -2.936  -6.033   0.087  0.00  0.00    +0.015 C 
ATOM     15  C   UNL     1      -4.066  -4.054   1.111  0.00  0.00    +0.015 C 
ENDBRANCH   4  12
BRANCH   7  16
ATOM     16  O   UNL     1      -0.511  -1.297  -3.316  0.00  0.00    -0.506 OA
ATOM     17  H   UNL     1       0.103  -1.754  -3.907  0.00  0.00    +0.292 HD
ENDBRANCH   7  16
BRANCH   3  18
ATOM     18  O   UNL     1      -1.192  -3.803   0.668  0.00  0.00    -0.506 OA
ATOM     19  H   UNL     1      -1.383  -3.178   1.381  0.00  0.00    +0.292 HD
ENDBRANCH   3  18
ENDBRANCH   1   2
BRANCH   1  20
ATOM     20  C   UNL     1       1.581  -2.449  -1.781  0.00  0.00    +0.044 A 
ATOM     21  C   UNL     1       1.899  -3.780  -1.998  0.00  0.00    +0.128 A 
ATOM     22  C   UNL     1       2.896  -4.116  -2.903  0.00  0.00    +0.000 A 
ATOM     23  C   UNL     1       3.571  -3.124  -3.588  0.00  0.00    +0.015 A 
ATOM     24  C   UNL     1       3.256  -1.796  -3.373  0.00  0.00    +0.000 A 
ATOM     25  C   UNL     1       2.256  -1.456  -2.474  0.00  0.00    +0.128 A 
BRANCH  24  26
ATOM     26  C   UNL     1       3.995  -0.717  -4.122  0.00  0.00    -0.009 C 
ATOM     27  C   UNL     1       5.032  -1.356  -5.046  0.00  0.00    +0.015 C 
ATOM     28  C   UNL     1       3.002   0.098  -4.955  0.00  0.00    +0.015 C 
ATOM     29  C   UNL     1       4.700   0.205  -3.124  0.00  0.00    +0.015 C 
ENDBRANCH  24  26
BRANCH  22  30
ATOM     30  C   UNL     1       3.242  -5.564  -3.139  0.00  0.00    -0.009 C 
ATOM     31  C   UNL     1       4.419  -5.654  -4.113  0.00  0.00    +0.015 C 
ATOM     32  C   UNL     1       3.627  -6.219  -1.812  0.00  0.00    +0.015 C 
ATOM     33  C   UNL     1       2.031  -6.287  -3.734  0.00  0.00    +0.015 C 
ENDBRANCH  22  30
BRANCH  25  34
ATOM     34  O   UNL     1       1.942  -0.149  -2.268  0.00  0.00    -0.506 OA
ATOM     35  H   UNL     1       2.505   0.292  -1.617  0.00  0.00    +0.292 HD
ENDBRANCH  25  34
BRANCH  21  36
ATOM     36  O   UNL     1       1.236  -4.756  -1.324  0.00  0.00    -0.506 OA
ATOM     37  H   UNL     1       0.463  -5.101  -1.791  0.00  0.00    +0.292 HD
ENDBRANCH  21  36
ENDBRANCH   1  20
BRANCH   1  38
ATOM     38  C   UNL     1       0.471  -0.563  -0.615  0.00  0.00    +0.013 C 
BRANCH  38  40
ATOM     39  C   UNL     1      -0.547   1.317   0.678  0.00  0.00    +0.004 C 
ATOM     40  C   UNL     1      -0.519  -0.201   0.495  0.00  0.00    -0.002 C 
ENDBRANCH  38  40
ENDBRANCH   1  38
TORSDOF 12
