REMARK  Name = ZINC10352974
REMARK  6 active torsions:
REMARK  status: ('A' for Active; 'I' for Inactive)
REMARK    1  A    between atoms: C_1  and  C_2
REMARK    2  A    between atoms: C_8  and  C_10
REMARK    3  A    between atoms: C_11  and  C_31
REMARK    4  A    between atoms: N_12  and  C_25
REMARK    5  A    between atoms: C_16  and  C_18
REMARK    6  A    between atoms: C_21  and  O_24
REMARK                            x       y       z     vdW  Elec       q    Type
REMARK                         _______ _______ _______ _____ _____    ______ ____
ROOT
ATOM      1  C   UNL     1      -1.192   7.099  -0.247  0.00  0.00    +0.056 C 
ATOM      2  C   UNL     1      -1.013   5.775  -0.052  0.00  0.00    +0.025 C 
ATOM      3  N   UNL     1       0.216   5.268   0.264  0.00  0.00    -0.255 N 
ATOM      4  C   UNL     1       1.314   6.020   0.409  0.00  0.00    +0.142 C 
ATOM      5  S   UNL     1       2.793   5.257   0.814  0.00  0.00    -0.018 S 
ATOM      6  N   UNL     1       1.295   7.357   0.241  0.00  0.00    -0.315 N 
ATOM      7  C   UNL     1       0.017   8.002  -0.102  0.00  0.00    +0.139 C 
ATOM      8  C   UNL     1      -2.188   4.841  -0.187  0.00  0.00    +0.062 C 
ATOM      9  H   UNL     1       2.104   7.882   0.347  0.00  0.00    +0.149 HD
ENDROOT
BRANCH   1  17
ATOM     10  C   UNL     1      -7.207  10.076  -1.768  0.00  0.00    +0.089 C 
ATOM     11  C   UNL     1      -6.022   9.223  -2.142  0.00  0.00    +0.136 A 
ATOM     12  C   UNL     1      -4.988   8.882  -1.341  0.00  0.00    +0.091 A 
ATOM     13  C   UNL     1      -4.160   8.081  -2.174  0.00  0.00    +0.168 A 
ATOM     14  N   UNL     1      -4.753   8.031  -3.338  0.00  0.00    -0.063 NA
ATOM     15  O   UNL     1      -5.789   8.655  -3.334  0.00  0.00    -0.358 OA
ATOM     16  N   UNL     1      -2.954   7.476  -1.821  0.00  0.00    -0.264 N 
ATOM     17  C   UNL     1      -2.464   7.626  -0.575  0.00  0.00    +0.249 C 
ATOM     18  O   UNL     1      -3.116   8.214   0.269  0.00  0.00    -0.270 OA
ATOM     19  H   UNL     1      -2.469   6.948  -2.474  0.00  0.00    +0.157 HD
ENDBRANCH   1  17
BRANCH   7  20
ATOM     20  C   UNL     1       0.203   8.740  -1.403  0.00  0.00    -0.022 A 
ATOM     21  C   UNL     1       0.738   8.086  -2.497  0.00  0.00    +0.009 A 
ATOM     22  C   UNL     1       0.905   8.759  -3.692  0.00  0.00    +0.046 A 
ATOM     23  C   UNL     1       0.545  10.095  -3.790  0.00  0.00    +0.117 A 
ATOM     24  C   UNL     1       0.014  10.751  -2.689  0.00  0.00    +0.046 A 
ATOM     25  C   UNL     1      -0.156  10.072  -1.498  0.00  0.00    +0.009 A 
BRANCH  23  26
ATOM     26  O   UNL     1       0.713  10.761  -4.963  0.00  0.00    -0.507 OA
ATOM     27  H   UNL     1       1.575  11.191  -5.052  0.00  0.00    +0.292 HD
ENDBRANCH  23  26
ENDBRANCH   7  20
BRANCH   3  28
ATOM     28  C   UNL     1       0.332   3.885   0.453  0.00  0.00    +0.040 A 
ATOM     29  C   UNL     1       0.116   3.334   1.709  0.00  0.00    +0.024 A 
ATOM     30  C   UNL     1       0.232   1.970   1.892  0.00  0.00    +0.002 A 
ATOM     31  C   UNL     1       0.562   1.153   0.826  0.00  0.00    +0.000 A 
ATOM     32  C   UNL     1       0.783   1.700  -0.424  0.00  0.00    +0.002 A 
ATOM     33  C   UNL     1       0.663   3.062  -0.615  0.00  0.00    +0.024 A 
ENDBRANCH   3  28
TORSDOF 4
