REMARK  Name = ZINC13149291
REMARK  9 active torsions:
REMARK  status: ('A' for Active; 'I' for Inactive)
REMARK    1  A    between atoms: C_1  and  C_2
REMARK    2  A    between atoms: C_2  and  C_3
REMARK    3  A    between atoms: C_2  and  C_4
REMARK    4  A    between atoms: C_4  and  O_5
REMARK    5  A    between atoms: O_5  and  C_6
REMARK    6  A    between atoms: C_9  and  C_14
REMARK    7  A    between atoms: C_11  and  O_12
REMARK    8  A    between atoms: O_12  and  C_13
REMARK    9  A    between atoms: C_25  and  C_27
REMARK                            x       y       z     vdW  Elec       q    Type
REMARK                         _______ _______ _______ _____ _____    ______ ____
ROOT
ATOM      1  C   UNL     1      -1.067   2.343   0.020  0.00  0.00    +0.026 C 
ATOM      2  C   UNL     1      -0.031   1.506   0.134  0.00  0.00    +0.079 C 
ATOM      3  C   UNL     1      -0.029  -0.011   0.204  0.00  0.00    +0.302 C 
ATOM      4  N   UNL     1       1.296  -0.582   0.320  0.00  0.00    -0.247 N 
ATOM      5  C   UNL     1       2.365   0.229   0.355  0.00  0.00    +0.281 C 
ATOM      6  O   UNL     1       3.533  -0.096   0.449  0.00  0.00    -0.262 OA
ATOM      7  S   UNL     1       1.709   1.879   0.235  0.00  0.00    -0.028 S 
ATOM      8  N   UNL     1      -0.856  -0.426   1.347  0.00  0.00    -0.186 N 
ATOM      9  C   UNL     1      -2.290  -0.066   1.415  0.00  0.00    +0.138 C 
ATOM     10  C   UNL     1      -2.826  -1.013   2.497  0.00  0.00    +0.086 C 
ATOM     11  C   UNL     1      -1.572  -1.593   3.118  0.00  0.00    +0.069 C 
ATOM     12  N   UNL     1      -0.539  -1.209   2.441  0.00  0.00    -0.183 NA
ATOM     13  C   UNL     1      -2.871  -0.371   0.060  0.00  0.00    +0.017 A 
ATOM     14  C   UNL     1      -4.243  -0.448  -0.086  0.00  0.00    +0.009 A 
ATOM     15  C   UNL     1      -4.801  -0.682  -1.328  0.00  0.00    +0.001 A 
ATOM     16  C   UNL     1      -3.980  -0.839  -2.429  0.00  0.00    +0.004 A 
ATOM     17  C   UNL     1      -2.611  -0.774  -2.287  0.00  0.00    +0.046 A 
ATOM     18  C   UNL     1      -2.038  -0.549  -1.035  0.00  0.00    +0.131 A 
ATOM     19  O   UNL     1      -0.683  -0.522  -0.966  0.00  0.00    -0.446 OA
ATOM     20  H   UNL     1       1.411  -1.544   0.371  0.00  0.00    +0.155 HD
ENDROOT
BRANCH   1  24
ATOM     21  C   UNL     1      -0.465   6.536   0.357  0.00  0.00    +0.162 A 
ATOM     22  C   UNL     1      -1.614   6.047  -0.244  0.00  0.00    +0.050 A 
ATOM     23  C   UNL     1      -1.813   4.687  -0.356  0.00  0.00    +0.012 A 
ATOM     24  C   UNL     1      -0.856   3.798   0.138  0.00  0.00    -0.020 A 
ATOM     25  C   UNL     1       0.299   4.291   0.750  0.00  0.00    +0.057 A 
ATOM     26  C   UNL     1       0.495   5.656   0.852  0.00  0.00    +0.162 A 
BRANCH  26  27
ATOM     27  O   UNL     1       1.621   6.139   1.441  0.00  0.00    -0.491 OA
ATOM     28  C   UNL     1       2.562   5.179   1.926  0.00  0.00    +0.277 C 
ENDBRANCH  26  27
BRANCH  21  29
ATOM     29  O   UNL     1      -0.273   7.878   0.465  0.00  0.00    -0.488 OA
BRANCH  29  30
ATOM     30  C   UNL     1      -1.297   8.724  -0.064  0.00  0.00    +0.232 C 
BRANCH  30  32
ATOM     31  C   UNL     1       0.344  10.507  -0.673  0.00  0.00    +0.010 C 
ATOM     32  C   UNL     1      -0.908  10.189   0.147  0.00  0.00    +0.020 C 
ATOM     33  C   UNL     1      -2.057  11.092  -0.304  0.00  0.00    +0.010 C 
ENDBRANCH  30  32
ENDBRANCH  29  30
ENDBRANCH  21  29
ENDBRANCH   1  24
BRANCH  11  34
ATOM     34  C   UNL     1      -1.534  -2.461   4.310  0.00  0.00    -0.002 A 
ATOM     35  C   UNL     1      -2.719  -2.805   4.965  0.00  0.00    +0.010 A 
ATOM     36  C   UNL     1      -2.677  -3.621   6.077  0.00  0.00    +0.001 A 
ATOM     37  C   UNL     1      -1.464  -4.090   6.549  0.00  0.00    +0.000 A 
ATOM     38  C   UNL     1      -0.286  -3.748   5.908  0.00  0.00    +0.001 A 
ATOM     39  C   UNL     1      -0.313  -2.938   4.793  0.00  0.00    +0.010 A 
ENDBRANCH  11  34
TORSDOF 6
