REMARK  Name = ZINC64349215
REMARK  8 active torsions:
REMARK  status: ('A' for Active; 'I' for Inactive)
REMARK    1  A    between atoms: C_1  and  C_2
REMARK    2  A    between atoms: C_5  and  N_9
REMARK    3  A    between atoms: C_6  and  C_8
REMARK    4  A    between atoms: C_10  and  C_12
REMARK    5  A    between atoms: C_12  and  C_14
REMARK    6  A    between atoms: C_12  and  N_24
REMARK    7  A    between atoms: C_14  and  C_15
REMARK    8  A    between atoms: C_25  and  C_27
REMARK                            x       y       z     vdW  Elec       q    Type
REMARK                         _______ _______ _______ _____ _____    ______ ____
ROOT
ATOM      1  C   UNL     1      -0.134  -6.343  -1.187  0.00  0.00    +0.163 C 
ENDROOT
BRANCH   1   3
ATOM      2  N   UNL     1       0.059  -4.170  -0.021  0.00  0.00    -0.284 N 
ATOM      3  C   UNL     1      -0.040  -4.839  -1.187  0.00  0.00    +0.238 C 
ATOM      4  O   UNL     1      -0.054  -4.230  -2.236  0.00  0.00    -0.273 OA
ATOM      5  H   UNL     1       0.135  -4.658   0.814  0.00  0.00    +0.155 HD
BRANCH   2  10
ATOM      6  C   UNL     1       0.026   1.503   0.005  0.00  0.00    +0.044 C 
ATOM      7  C   UNL     1       0.034  -0.004  -0.002  0.00  0.00    -0.050 A 
ATOM      8  C   UNL     1       0.632  -0.685  -1.046  0.00  0.00    +0.005 A 
ATOM      9  C   UNL     1       0.642  -2.066  -1.055  0.00  0.00    +0.024 A 
ATOM     10  C   UNL     1       0.051  -2.771  -0.014  0.00  0.00    +0.036 A 
ATOM     11  C   UNL     1      -0.548  -2.083   1.033  0.00  0.00    -0.029 A 
ATOM     12  C   UNL     1      -0.550  -0.702   1.039  0.00  0.00    +0.008 A 
ATOM     13  C   UNL     1      -1.191  -2.843   2.165  0.00  0.00    +0.045 C 
ENDBRANCH   2  10
ENDBRANCH   1   3
BRANCH   1  14
ATOM     14  N   UNL     1      -0.232  -6.826  -2.567  0.00  0.00    -0.302 N 
ATOM     15  C   UNL     1      -0.813  -8.014  -2.825  0.00  0.00    +0.231 C 
ATOM     16  O   UNL     1      -1.256  -8.683  -1.915  0.00  0.00    -0.274 OA
ATOM     17  H   UNL     1       0.122  -6.290  -3.294  0.00  0.00    +0.150 HD
BRANCH  15  18
ATOM     18  C   UNL     1      -0.914  -8.511  -4.244  0.00  0.00    +0.145 C 
ATOM     19  C   UNL     1      -2.095  -7.836  -4.942  0.00  0.00    +0.063 C 
ATOM     20  C   UNL     1      -2.353  -8.497  -6.272  0.00  0.00    -0.041 A 
ATOM     21  C   UNL     1      -3.129  -7.826  -7.205  0.00  0.00    +0.004 A 
ATOM     22  C   UNL     1      -3.393  -8.397  -8.433  0.00  0.00    +0.000 A 
ATOM     23  C   UNL     1      -2.882  -9.646  -8.735  0.00  0.00    +0.000 A 
ATOM     24  C   UNL     1      -2.108 -10.314  -7.808  0.00  0.00    +0.005 A 
ATOM     25  C   UNL     1      -1.840  -9.740  -6.573  0.00  0.00    -0.030 A 
ATOM     26  C   UNL     1      -0.982 -10.503  -5.599  0.00  0.00    +0.117 C 
ATOM     27  N   UNL     1      -1.135  -9.965  -4.244  0.00  0.00    -0.301 NA
ATOM     28  H   UNL     1      -0.513 -10.426  -3.597  0.00  0.00    +0.123 HD
ENDBRANCH  15  18
ENDBRANCH   1  14
BRANCH   1  29
ATOM     29  C   UNL     1       1.115  -6.931  -0.528  0.00  0.00    +0.065 C 
BRANCH  29  30
ATOM     30  C   UNL     1       0.967  -8.427  -0.417  0.00  0.00    -0.039 C 
ATOM     31  C   UNL     1       1.432  -9.357  -1.282  0.00  0.00    -0.001 A 
ATOM     32  C   UNL     1       2.186  -9.257  -2.538  0.00  0.00    +0.010 A 
ATOM     33  C   UNL     1       2.516 -10.392  -3.197  0.00  0.00    +0.001 A 
ATOM     34  C   UNL     1       2.157 -11.656  -2.711  0.00  0.00    +0.002 A 
ATOM     35  C   UNL     1       1.465 -11.828  -1.565  0.00  0.00    +0.026 A 
ATOM     36  C   UNL     1       1.066 -10.704  -0.791  0.00  0.00    +0.043 A 
ATOM     37  N   UNL     1       0.400 -10.611   0.334  0.00  0.00    -0.380 N 
ATOM     38  C   UNL     1       0.273  -9.193   0.687  0.00  0.00    +0.144 C 
ATOM     39  H   UNL     1       0.052 -11.356   0.849  0.00  0.00    +0.160 HD
ENDBRANCH  29  30
ENDBRANCH   1  29
TORSDOF 6
