REMARK  Name = ZINC17995255
REMARK  6 active torsions:
REMARK  status: ('A' for Active; 'I' for Inactive)
REMARK    1  A    between atoms: C_1  and  O_2
REMARK    2  A    between atoms: O_2  and  C_3
REMARK    3  A    between atoms: C_7  and  C_10
REMARK    4  A    between atoms: C_8  and  O_9
REMARK    5  A    between atoms: N_18  and  C_21
REMARK    6  A    between atoms: N_30  and  C_31
REMARK                            x       y       z     vdW  Elec       q    Type
REMARK                         _______ _______ _______ _____ _____    ______ ____
ROOT
ATOM      1  C   UNL     1      -2.549  -4.175   0.017  0.00  0.00    +0.161 C 
ATOM      2  C   UNL     1      -2.491  -4.715   1.440  0.00  0.00    +0.146 C 
ATOM      3  C   UNL     1      -3.369  -6.003   1.201  0.00  0.00    +0.249 C 
ATOM      4  C   UNL     1      -3.019  -6.809   2.353  0.00  0.00    +0.259 C 
ATOM      5  O   UNL     1      -3.735  -7.581   2.955  0.00  0.00    -0.272 OA
ATOM      6  N   UNL     1      -1.707  -6.514   2.618  0.00  0.00    -0.208 N 
ATOM      7  C   UNL     1      -1.259  -5.397   1.947  0.00  0.00    +0.235 C 
ATOM      8  O   UNL     1      -0.112  -5.038   1.791  0.00  0.00    -0.274 OA
ATOM      9  O   UNL     1      -4.458  -5.508   0.540  0.00  0.00    -0.257 OA
ATOM     10  N   UNL     1      -3.874  -4.644  -0.485  0.00  0.00    -0.244 N 
ENDROOT
BRANCH   6  11
ATOM     11  C   UNL     1      -0.904  -7.262   3.491  0.00  0.00    +0.045 A 
ATOM     12  C   UNL     1       0.416  -6.893   3.709  0.00  0.00    +0.025 A 
ATOM     13  C   UNL     1       1.206  -7.630   4.570  0.00  0.00    +0.023 A 
ATOM     14  C   UNL     1       0.682  -8.737   5.214  0.00  0.00    +0.059 A 
ATOM     15  C   UNL     1      -0.635  -9.108   4.998  0.00  0.00    +0.061 A 
ATOM     16  C   UNL     1      -1.430  -8.370   4.141  0.00  0.00    +0.045 A 
ATOM     17 CL   UNL     1      -1.289 -10.498   5.808  0.00  0.00    -0.082 Cl
ATOM     18 CL   UNL     1       1.677  -9.663   6.295  0.00  0.00    -0.082 Cl
ENDBRANCH   6  11
BRANCH   1  23
ATOM     19  C   UNL     1      -1.201  -0.638   0.010  0.00  0.00    +0.162 A 
ATOM     20  C   UNL     1      -2.374   0.099   0.019  0.00  0.00    +0.049 A 
ATOM     21  C   UNL     1      -3.596  -0.546   0.027  0.00  0.00    +0.004 A 
ATOM     22  C   UNL     1      -3.652  -1.928   0.026  0.00  0.00    +0.009 A 
ATOM     23  C   UNL     1      -2.485  -2.669   0.017  0.00  0.00    +0.023 A 
ATOM     24  C   UNL     1      -1.257  -2.028   0.003  0.00  0.00    +0.164 A 
BRANCH  19  26
ATOM     25  C   UNL     1      -0.017   1.425   0.010  0.00  0.00    +0.277 C 
ATOM     26  O   UNL     1       0.002  -0.004   0.002  0.00  0.00    -0.491 OA
ENDBRANCH  19  26
BRANCH  24  27
ATOM     27  O   UNL     1      -0.108  -2.756  -0.012  0.00  0.00    -0.503 OA
ATOM     28  H   UNL     1       0.232  -2.972   0.867  0.00  0.00    +0.292 HD
ENDBRANCH  24  27
ENDBRANCH   1  23
BRANCH  10  29
ATOM     29  C   UNL     1      -4.454  -4.307  -1.710  0.00  0.00    +0.065 A 
ATOM     30  C   UNL     1      -3.784  -3.466  -2.589  0.00  0.00    +0.028 A 
ATOM     31  C   UNL     1      -4.361  -3.135  -3.800  0.00  0.00    +0.002 A 
ATOM     32  C   UNL     1      -5.603  -3.639  -4.137  0.00  0.00    +0.000 A 
ATOM     33  C   UNL     1      -6.273  -4.477  -3.264  0.00  0.00    +0.002 A 
ATOM     34  C   UNL     1      -5.700  -4.817  -2.054  0.00  0.00    +0.028 A 
ENDBRANCH  10  29
TORSDOF 5
