REMARK  Name = ZINC39666078
REMARK  9 active torsions:
REMARK  status: ('A' for Active; 'I' for Inactive)
REMARK    1  A    between atoms: C_1  and  C_2
REMARK    2  A    between atoms: C_5  and  O_8
REMARK    3  A    between atoms: O_8  and  C_9
REMARK    4  A    between atoms: C_9  and  C_11
REMARK    5  A    between atoms: C_9  and  C_12
REMARK    6  A    between atoms: C_12  and  N_13
REMARK    7  A    between atoms: C_14  and  C_16
REMARK    8  A    between atoms: C_27  and  C_29
REMARK    9  A    between atoms: C_29  and  C_35
REMARK                            x       y       z     vdW  Elec       q    Type
REMARK                         _______ _______ _______ _____ _____    ______ ____
ROOT
ATOM      1  C   UNL     1       5.103  -6.450  -0.069  0.00  0.00    +0.100 C 
ATOM      2  C   UNL     1       5.804  -5.886   1.187  0.00  0.00    +0.121 C 
ATOM      3  N   UNL     1       6.381  -7.074   1.859  0.00  0.00    -0.300 N 
ATOM      4  C   UNL     1       6.884  -7.918   0.749  0.00  0.00    +0.115 C 
ATOM      5  C   UNL     1       5.816  -7.782  -0.355  0.00  0.00    -0.004 C 
ATOM      6  C   UNL     1       4.826  -8.940  -0.276  0.00  0.00    -0.010 C 
ATOM      7  C   UNL     1       5.547 -10.246  -0.620  0.00  0.00    -0.082 C 
ATOM      8  N   UNL     1       6.115 -10.153  -1.971  0.00  0.00    +0.379 N 
ATOM      9  C   UNL     1       7.133  -9.097  -2.014  0.00  0.00    -0.082 C 
ATOM     10  C   UNL     1       6.479  -7.742  -1.729  0.00  0.00    -0.010 C 
ATOM     11  C   UNL     1       6.436  -7.330   3.181  0.00  0.00    +0.222 C 
ATOM     12  O   UNL     1       6.058  -6.496   3.976  0.00  0.00    -0.275 OA
ATOM     13  H   UNL     1       6.536 -11.035  -2.219  0.00  0.00    -0.086 HD
ATOM     14  H   UNL     1       5.380  -9.937  -2.628  0.00  0.00    -0.086 HD
ENDROOT
BRANCH  11  15
ATOM     15  C   UNL     1       6.967  -8.652   3.671  0.00  0.00    +0.044 C 
ATOM     16  C   UNL     1       6.088  -9.785   3.137  0.00  0.00    +0.016 C 
ATOM     17  C   UNL     1       4.654  -9.595   3.634  0.00  0.00    +0.001 C 
ATOM     18  C   UNL     1       4.638  -9.616   5.164  0.00  0.00    +0.000 C 
ATOM     19  C   UNL     1       5.517  -8.483   5.699  0.00  0.00    +0.001 C 
ATOM     20  C   UNL     1       6.951  -8.673   5.201  0.00  0.00    +0.016 C 
ATOM     21  C   UNL     1       8.402  -8.841   3.174  0.00  0.00    +0.021 C 
ENDBRANCH  11  15
BRANCH   1  23
ATOM     22  N   UNL     1       2.742  -6.600  -0.792  0.00  0.00    -0.312 N 
ATOM     23  C   UNL     1       3.641  -6.687   0.208  0.00  0.00    +0.218 C 
ATOM     24  O   UNL     1       3.273  -6.957   1.332  0.00  0.00    -0.275 OA
ATOM     25  H   UNL     1       3.036  -6.385  -1.691  0.00  0.00    +0.149 HD
BRANCH  22  26
ATOM     26  C   UNL     1       1.321  -6.831  -0.522  0.00  0.00    +0.148 C 
BRANCH  26  27
ATOM     27  C   UNL     1       0.523  -6.672  -1.819  0.00  0.00    +0.187 C 
ATOM     28  C   UNL     1      -0.972  -6.790  -1.515  0.00  0.00    +0.053 C 
BRANCH  27  29
ATOM     29  O   UNL     1       0.904  -7.696  -2.740  0.00  0.00    -0.488 OA
BRANCH  29  34
ATOM     30  C   UNL     1       0.157  -6.611  -8.217  0.00  0.00    +0.044 C 
ATOM     31  C   UNL     1       0.356  -6.901  -6.751  0.00  0.00    -0.050 A 
ATOM     32  C   UNL     1      -0.098  -6.005  -5.802  0.00  0.00    +0.007 A 
ATOM     33  C   UNL     1       0.084  -6.268  -4.458  0.00  0.00    +0.046 A 
ATOM     34  C   UNL     1       0.723  -7.434  -4.062  0.00  0.00    +0.121 A 
ATOM     35  C   UNL     1       1.178  -8.332  -5.016  0.00  0.00    +0.046 A 
ATOM     36  C   UNL     1       0.989  -8.067  -6.359  0.00  0.00    +0.007 A 
ENDBRANCH  29  34
ENDBRANCH  27  29
ENDBRANCH  26  27
ENDBRANCH  22  26
ENDBRANCH   1  23
TORSDOF 6
