REMARK  Name = ZINC25250264
REMARK  7 active torsions:
REMARK  status: ('A' for Active; 'I' for Inactive)
REMARK    1  A    between atoms: C_1  and  C_2
REMARK    2  A    between atoms: C_3  and  C_12
REMARK    3  A    between atoms: C_12  and  C_14
REMARK    4  A    between atoms: C_14  and  O_15
REMARK    5  A    between atoms: O_15  and  C_16
REMARK    6  A    between atoms: C_16  and  C_18
REMARK    7  A    between atoms: C_23  and  N_24
REMARK                            x       y       z     vdW  Elec       q    Type
REMARK                         _______ _______ _______ _____ _____    ______ ____
ROOT
ATOM      1  C   UNL     1      -4.770   0.587   0.145  0.00  0.00    +0.080 A 
ATOM      2  C   UNL     1      -4.603  -0.797   0.119  0.00  0.00    +0.017 A 
ATOM      3  C   UNL     1      -5.693  -1.636   0.255  0.00  0.00    +0.013 A 
ATOM      4  C   UNL     1      -6.971  -1.109   0.420  0.00  0.00    +0.035 A 
ATOM      5  C   UNL     1      -7.159   0.284   0.449  0.00  0.00    +0.054 A 
ATOM      6  C   UNL     1      -6.054   1.137   0.316  0.00  0.00    +0.050 A 
ATOM      7  C   UNL     1      -8.509   0.845   0.623  0.00  0.00    +0.196 C 
ATOM      8  O   UNL     1      -8.668   2.050   0.647  0.00  0.00    -0.287 OA
ATOM      9  C   UNL     1      -9.671  -0.057   0.768  0.00  0.00    +0.033 A 
ATOM     10  C   UNL     1     -10.950   0.467   0.933  0.00  0.00    +0.012 A 
ATOM     11  C   UNL     1     -12.032  -0.385   1.069  0.00  0.00    +0.001 A 
ATOM     12  C   UNL     1     -11.852  -1.756   1.041  0.00  0.00    +0.001 A 
ATOM     13  C   UNL     1     -10.588  -2.294   0.878  0.00  0.00    +0.012 A 
ATOM     14  C   UNL     1      -9.488  -1.451   0.740  0.00  0.00    +0.033 A 
ATOM     15  C   UNL     1      -8.133  -2.015   0.566  0.00  0.00    +0.195 C 
ATOM     16  O   UNL     1      -7.974  -3.219   0.541  0.00  0.00    -0.287 OA
ENDROOT
BRANCH   6  17
ATOM     17  N   UNL     1      -6.225   2.505   0.347  0.00  0.00    -0.357 N 
ATOM     18  H   UNL     1      -7.230   2.931   0.481  0.00  0.00    +0.142 HD
ATOM     19  H   UNL     1      -5.356   3.171   0.239  0.00  0.00    +0.142 HD
ENDBRANCH   6  17
BRANCH   1  20
ATOM     20  C   UNL     1      -3.600   1.474  -0.001  0.00  0.00    +0.341 C 
ATOM     21  O   UNL     1      -3.753   2.679  -0.034  0.00  0.00    -0.245 OA
BRANCH  20  22
ATOM     22  O   UNL     1      -2.364   0.949  -0.097  0.00  0.00    -0.453 OA
BRANCH  22  23
ATOM     23  C   UNL     1      -1.260   1.881  -0.238  0.00  0.00    +0.312 C 
BRANCH  23  24
ATOM     24  C   UNL     1       0.035   1.117  -0.331  0.00  0.00    +0.203 C 
ATOM     25  O   UNL     1       0.022  -0.096  -0.379  0.00  0.00    -0.288 OA
BRANCH  24  28
ATOM     26  C   UNL     1       1.560   1.910  -2.911  0.00  0.00    +0.064 C 
ATOM     27  C   UNL     1       1.978   2.185  -1.490  0.00  0.00    +0.025 A 
ATOM     28  C   UNL     1       1.269   1.814  -0.367  0.00  0.00    +0.049 A 
ATOM     29  C   UNL     1       2.056   2.283   0.790  0.00  0.00    +0.011 A 
ATOM     30  C   UNL     1       1.883   2.213   2.170  0.00  0.00    +0.011 A 
ATOM     31  C   UNL     1       2.830   2.766   3.005  0.00  0.00    +0.001 A 
ATOM     32  C   UNL     1       3.951   3.389   2.476  0.00  0.00    +0.002 A 
ATOM     33  C   UNL     1       4.134   3.465   1.113  0.00  0.00    +0.026 A 
ATOM     34  C   UNL     1       3.189   2.913   0.253  0.00  0.00    +0.047 A 
ATOM     35  N   UNL     1       3.099   2.834  -1.122  0.00  0.00    -0.358 N 
ATOM     36  H   UNL     1       3.791   3.215  -1.888  0.00  0.00    +0.166 HD
ENDBRANCH  24  28
ENDBRANCH  23  24
ENDBRANCH  22  23
ENDBRANCH  20  22
ENDBRANCH   1  20
TORSDOF 6
