REMARK  Name = ZINC12664878
REMARK  8 active torsions:
REMARK  status: ('A' for Active; 'I' for Inactive)
REMARK    1  A    between atoms: C_2  and  C_3
REMARK    2  A    between atoms: C_3  and  N_4
REMARK    3  A    between atoms: C_8  and  S_32
REMARK    4  A    between atoms: N_13  and  C_14
REMARK    5  A    between atoms: C_14  and  C_16
REMARK    6  A    between atoms: N_21  and  S_23
REMARK    7  A    between atoms: S_23  and  C_26
REMARK    8  A    between atoms: S_32  and  N_35
REMARK                            x       y       z     vdW  Elec       q    Type
REMARK                         _______ _______ _______ _____ _____    ______ ____
ROOT
ATOM      1  N   UNL     1      -3.154   2.922   4.833  0.00  0.00    -0.310 N 
ATOM      2  C   UNL     1      -2.369   2.688   3.720  0.00  0.00    +0.059 A 
ATOM      3  C   UNL     1      -1.427   3.542   3.123  0.00  0.00    +0.029 A 
ATOM      4  C   UNL     1      -0.723   3.145   2.011  0.00  0.00    +0.030 A 
ATOM      5  C   UNL     1      -0.927   1.900   1.439  0.00  0.00    +0.106 A 
ATOM      6  C   UNL     1      -1.849   1.038   2.007  0.00  0.00    +0.045 A 
ATOM      7  C   UNL     1      -2.549   1.433   3.122  0.00  0.00    +0.041 A 
ATOM      8  S   UNL     1      -3.787   0.671   4.142  0.00  0.00    -0.052 S 
ATOM      9  C   UNL     1      -4.018   1.968   5.270  0.00  0.00    +0.167 A 
ATOM     10  N   UNL     1      -4.843   2.017   6.314  0.00  0.00    -0.156 NA
ENDROOT
BRANCH   5  11
ATOM     11  S   UNL     1      -0.017   1.417   0.010  0.00  0.00    +0.056 S 
ATOM     12  O   UNL     1       0.002  -0.004   0.002  0.00  0.00    -0.153 OA
ATOM     13  O   UNL     1       1.172   2.195   0.003  0.00  0.00    -0.153 OA
BRANCH  11  14
ATOM     14  N   UNL     1      -0.897   1.885  -1.312  0.00  0.00    -0.204 NA
ATOM     15  H   UNL     1      -1.201   1.223  -1.952  0.00  0.00    +0.144 HD
ATOM     16  H   UNL     1      -1.110   2.822  -1.446  0.00  0.00    +0.144 HD
ENDBRANCH  11  14
ENDBRANCH   5  11
BRANCH  10  17
ATOM     17  C   UNL     1      -5.623   0.978   6.593  0.00  0.00    +0.243 C 
ATOM     18  O   UNL     1      -5.584  -0.017   5.895  0.00  0.00    -0.273 OA
BRANCH  17  19
ATOM     19  C   UNL     1      -6.558   1.034   7.774  0.00  0.00    +0.093 C 
ATOM     20  C   UNL     1      -7.539   2.195   7.595  0.00  0.00    +0.015 C 
ATOM     21  C   UNL     1      -8.467   2.272   8.809  0.00  0.00    +0.018 C 
ATOM     22  C   UNL     1      -9.270   0.971   8.918  0.00  0.00    +0.109 C 
ATOM     23  N   UNL     1      -8.334  -0.161   8.945  0.00  0.00    -0.176 NA
ATOM     24  C   UNL     1      -7.338  -0.280   7.871  0.00  0.00    +0.122 C 
BRANCH  23  25
ATOM     25  S   UNL     1      -8.400  -1.281  10.162  0.00  0.00    +0.061 S 
ATOM     26  O   UNL     1      -9.722  -1.240  10.681  0.00  0.00    -0.153 OA
ATOM     27  O   UNL     1      -7.819  -2.473   9.650  0.00  0.00    -0.153 OA
BRANCH  25  28
ATOM     28  C   UNL     1      -7.337  -0.716  11.449  0.00  0.00    +0.105 A 
ATOM     29  C   UNL     1      -6.006  -1.091  11.461  0.00  0.00    +0.028 A 
ATOM     30  C   UNL     1      -5.171  -0.643  12.467  0.00  0.00    +0.002 A 
ATOM     31  C   UNL     1      -5.669   0.171  13.467  0.00  0.00    +0.000 A 
ATOM     32  C   UNL     1      -7.000   0.542  13.458  0.00  0.00    +0.002 A 
ATOM     33  C   UNL     1      -7.834   0.099  12.449  0.00  0.00    +0.028 A 
ENDBRANCH  25  28
ENDBRANCH  23  25
ENDBRANCH  17  19
ENDBRANCH  10  17
BRANCH   1  34
ATOM     34  C   UNL     1      -3.054   4.199   5.544  0.00  0.00    +0.212 C 
BRANCH  34  36
ATOM     35  C   UNL     1      -5.388   4.778   6.647  0.00  0.00    +0.005 C 
ATOM     36  C   UNL     1      -4.353   4.521   6.158  0.00  0.00    -0.084 C 
ENDBRANCH  34  36
ENDBRANCH   1  34
TORSDOF 8
