REMARK  Name = ZINC20254771
REMARK  8 active torsions:
REMARK  status: ('A' for Active; 'I' for Inactive)
REMARK    1  A    between atoms: C_1  and  C_2
REMARK    2  A    between atoms: C_5  and  N_21
REMARK    3  A    between atoms: C_6  and  C_20
REMARK    4  A    between atoms: C_7  and  N_8
REMARK    5  A    between atoms: N_8  and  S_9
REMARK    6  A    between atoms: S_9  and  C_12
REMARK    7  A    between atoms: C_13  and  C_19
REMARK    8  A    between atoms: C_17  and  C_18
REMARK                            x       y       z     vdW  Elec       q    Type
REMARK                         _______ _______ _______ _____ _____    ______ ____
ROOT
ATOM      1  N   UNL     1       0.966   1.190   2.621  0.00  0.00    -0.216 N 
ATOM      2  H   UNL     1       1.290   0.433   1.891  0.00  0.00    +0.174 HD
ENDROOT
BRANCH   1   9
ATOM      3  C   UNL     1      -1.419   0.728   4.098  0.00  0.00    +0.046 C 
ATOM      4  C   UNL     1      -1.329   1.804   3.046  0.00  0.00    -0.028 A 
ATOM      5  C   UNL     1      -2.426   2.599   2.777  0.00  0.00    +0.007 A 
ATOM      6  C   UNL     1      -2.348   3.587   1.814  0.00  0.00    +0.023 A 
ATOM      7  C   UNL     1      -1.163   3.786   1.116  0.00  0.00    +0.029 A 
ATOM      8  C   UNL     1      -0.061   2.985   1.380  0.00  0.00    -0.007 A 
ATOM      9  C   UNL     1      -0.143   1.994   2.348  0.00  0.00    +0.056 A 
ATOM     10  C   UNL     1       1.224   3.194   0.621  0.00  0.00    +0.047 C 
BRANCH   7  11
ATOM     11  N   UNL     1      -1.083   4.788   0.146  0.00  0.00    -0.358 N 
ATOM     12  H   UNL     1      -0.145   4.945  -0.406  0.00  0.00    +0.142 HD
ATOM     13  H   UNL     1      -1.958   5.420  -0.066  0.00  0.00    +0.142 HD
ENDBRANCH   7  11
ENDBRANCH   1   9
BRANCH   1  14
ATOM     14  S   UNL     1       1.793   1.375   4.044  0.00  0.00    +0.076 S 
ATOM     15  O   UNL     1       0.819   1.409   5.079  0.00  0.00    -0.150 OA
ATOM     16  O   UNL     1       2.852   0.427   4.024  0.00  0.00    -0.150 OA
BRANCH  14  17
ATOM     17  C   UNL     1       2.543   2.969   4.007  0.00  0.00    +0.151 A 
ATOM     18  C   UNL     1       2.031   4.103   4.539  0.00  0.00    +0.060 A 
ATOM     19  N   UNL     1       2.906   5.102   4.299  0.00  0.00    -0.280 N 
ATOM     20  H   UNL     1       2.686   6.121   4.649  0.00  0.00    +0.189 HD
ATOM     21  N   UNL     1       3.992   4.564   3.597  0.00  0.00    -0.177 NA
ATOM     22  C   UNL     1       3.776   3.285   3.427  0.00  0.00    +0.087 A 
ATOM     23  C   UNL     1       4.696   2.319   2.725  0.00  0.00    +0.069 C 
ATOM     24  C   UNL     1       0.718   4.228   5.268  0.00  0.00    +0.067 C 
ENDBRANCH  14  17
ENDBRANCH   1  14
TORSDOF 4
