REMARK  Name = ZINC33811952
REMARK  15 active torsions:
REMARK  status: ('A' for Active; 'I' for Inactive)
REMARK    1  A    between atoms: C_1  and  C_2
REMARK    2  A    between atoms: C_2  and  C_3
REMARK    3  A    between atoms: C_3  and  C_4
REMARK    4  A    between atoms: C_4  and  C_5
REMARK    5  A    between atoms: C_5  and  C_7
REMARK    6  A    between atoms: C_5  and  C_9
REMARK    7  A    between atoms: C_7  and  C_8
REMARK    8  A    between atoms: C_9  and  N_10
REMARK    9  A    between atoms: C_14  and  C_15
REMARK   10  A    between atoms: C_16  and  C_33
REMARK   11  A    between atoms: C_17  and  C_31
REMARK   12  A    between atoms: N_20  and  C_30
REMARK   13  A    between atoms: C_21  and  N_22
REMARK   14  A    between atoms: N_25  and  C_28
REMARK   15  A    between atoms: C_28  and  C_29
REMARK                            x       y       z     vdW  Elec       q    Type
REMARK                         _______ _______ _______ _____ _____    ______ ____
ROOT
ATOM      1  C   UNL     1       0.467   2.343  -1.819  0.00  0.00    +0.019 A 
ATOM      2  C   UNL     1      -0.109   3.591  -2.112  0.00  0.00    -0.017 A 
ATOM      3  C   UNL     1       0.701   4.603  -2.621  0.00  0.00    +0.120 A 
ATOM      4  C   UNL     1       2.081   4.351  -2.830  0.00  0.00    +0.270 A 
ATOM      5  O   UNL     1       2.795   5.233  -3.275  0.00  0.00    -0.266 OA
ATOM      6  N   UNL     1       2.608   3.148  -2.542  0.00  0.00    -0.298 N 
ATOM      7  C   UNL     1       1.840   2.147  -2.039  0.00  0.00    +0.111 A 
ATOM      8  C   UNL     1       4.037   2.915  -2.768  0.00  0.00    +0.154 C 
ATOM      9  C   UNL     1      -1.578   3.830  -1.880  0.00  0.00    +0.046 C 
ENDROOT
BRANCH   1  14
ATOM     10  N   UNL     1      -1.374   2.265   2.088  0.00  0.00    -0.255 N 
ATOM     11  C   UNL     1      -0.718   2.383   0.947  0.00  0.00    +0.258 C 
ATOM     12  O   UNL     1       0.024   3.327   0.744  0.00  0.00    -0.269 OA
ATOM     13  C   UNL     1      -0.906   1.370  -0.043  0.00  0.00    +0.077 C 
ATOM     14  C   UNL     1      -0.357   1.258  -1.283  0.00  0.00    +0.032 C 
ATOM     15  S   UNL     1      -2.066   0.293   0.789  0.00  0.00    -0.061 S 
ATOM     16  C   UNL     1      -2.197   1.217   2.312  0.00  0.00    +0.121 C 
ATOM     17  S   UNL     1      -3.135   0.867   3.701  0.00  0.00    -0.027 S 
BRANCH  10  18
ATOM     18  C   UNL     1      -1.205   3.285   3.126  0.00  0.00    +0.118 C 
BRANCH  18  19
ATOM     19  C   UNL     1      -2.147   4.458   2.845  0.00  0.00    +0.007 C 
BRANCH  19  20
ATOM     20  C   UNL     1      -1.883   5.576   3.856  0.00  0.00    +0.002 C 
ATOM     21  C   UNL     1      -0.482   6.148   3.630  0.00  0.00    +0.004 C 
ENDBRANCH  19  20
BRANCH  19  22
ATOM     22  C   UNL     1      -3.597   3.989   2.971  0.00  0.00    +0.005 C 
BRANCH  22  23
ATOM     23  C   UNL     1      -4.538   5.127   2.570  0.00  0.00    +0.000 C 
BRANCH  23  25
ATOM     24  C   UNL     1      -6.929   5.796   2.294  0.00  0.00    +0.004 C 
ATOM     25  C   UNL     1      -5.989   4.658   2.696  0.00  0.00    -0.003 C 
ENDBRANCH  23  25
ENDBRANCH  22  23
ENDBRANCH  19  22
ENDBRANCH  18  19
ENDBRANCH  10  18
ENDBRANCH   1  14
BRANCH   7  26
ATOM     26  N   UNL     1       2.406   0.940  -1.750  0.00  0.00    -0.320 N 
ATOM     27  C   UNL     1       1.863  -0.117  -2.616  0.00  0.00    +0.088 C 
ATOM     28  C   UNL     1       2.579  -1.436  -2.316  0.00  0.00    -0.060 C 
ATOM     29  N   UNL     1       2.399  -1.777  -0.898  0.00  0.00    +0.382 N 
ATOM     30  C   UNL     1       2.941  -0.720  -0.033  0.00  0.00    -0.060 C 
ATOM     31  C   UNL     1       2.226   0.599  -0.332  0.00  0.00    +0.088 C 
ATOM     32  H   UNL     1       1.319  -1.855  -0.702  0.00  0.00    -0.082 HD
BRANCH  29  33
ATOM     33  C   UNL     1       3.008  -3.077  -0.588  0.00  0.00    -0.082 C 
ATOM     34  C   UNL     1       2.251  -4.184  -1.324  0.00  0.00    -0.017 C 
ENDBRANCH  29  33
ENDBRANCH   7  26
BRANCH   3  35
ATOM     35  C   UNL     1       0.145   5.885  -2.931  0.00  0.00    +0.105 C 
ATOM     36  N   UNL     1      -0.296   6.903  -3.176  0.00  0.00    -0.191 NA
ENDBRANCH   3  35
TORSDOF 10
