REMARK  Name = ZINC19890892
REMARK  7 active torsions:
REMARK  status: ('A' for Active; 'I' for Inactive)
REMARK    1  A    between atoms: C_1  and  C_2
REMARK    2  A    between atoms: C_2  and  O_3
REMARK    3  A    between atoms: O_3  and  C_4
REMARK    4  A    between atoms: C_6  and  C_11
REMARK    5  A    between atoms: C_9  and  O_10
REMARK    6  A    between atoms: C_16  and  C_20
REMARK    7  A    between atoms: C_16  and  C_21
REMARK                            x       y       z     vdW  Elec       q    Type
REMARK                         _______ _______ _______ _____ _____    ______ ____
ROOT
ATOM      1  C   UNL     1       2.489   1.043  -0.016  0.00  0.00    +0.173 C 
ATOM      2  C   UNL     1       2.834   0.620   1.389  0.00  0.00    +0.041 C 
ATOM      3  C   UNL     1       2.666  -0.664   1.775  0.00  0.00    +0.020 C 
ATOM      4  C   UNL     1       3.003  -1.110   3.174  0.00  0.00    +0.058 C 
ATOM      5  C   UNL     1       2.796   0.053   4.148  0.00  0.00    -0.023 C 
ATOM      6  C   UNL     1       3.675   1.226   3.701  0.00  0.00    +0.086 C 
ATOM      7  C   UNL     1       3.329   1.585   2.281  0.00  0.00    +0.164 C 
ATOM      8  O   UNL     1       3.480   2.729   1.901  0.00  0.00    -0.292 OA
ATOM      9  C   UNL     1       1.326   0.478   4.135  0.00  0.00    +0.011 C 
ATOM     10  C   UNL     1       3.192  -0.383   5.560  0.00  0.00    +0.011 C 
ATOM     11  N   UNL     1       2.184  -1.583   0.881  0.00  0.00    -0.290 N 
ATOM     12  C   UNL     1       2.234  -1.315  -0.469  0.00  0.00    +0.188 C 
ATOM     13  N   UNL     1       2.379  -0.105  -0.905  0.00  0.00    -0.243 NA
ATOM     14  N   UNL     1       2.128  -2.352  -1.371  0.00  0.00    -0.241 N 
ATOM     15  C   UNL     1       2.176  -2.096  -2.727  0.00  0.00    +0.295 A 
ATOM     16  N   UNL     1       2.086  -3.003  -3.664  0.00  0.00    -0.195 NA
ATOM     17  C   UNL     1       2.172  -2.389  -4.876  0.00  0.00    +0.111 A 
ATOM     18  C   UNL     1       2.138  -2.847  -6.194  0.00  0.00    +0.031 A 
ATOM     19  C   UNL     1       2.254  -1.950  -7.232  0.00  0.00    +0.002 A 
ATOM     20  C   UNL     1       2.405  -0.596  -6.976  0.00  0.00    +0.004 A 
ATOM     21  C   UNL     1       2.441  -0.129  -5.678  0.00  0.00    +0.048 A 
ATOM     22  C   UNL     1       2.325  -1.018  -4.621  0.00  0.00    +0.157 A 
ATOM     23  O   UNL     1       2.318  -0.877  -3.276  0.00  0.00    -0.424 OA
ATOM     24  H   UNL     1       1.759  -2.532   1.242  0.00  0.00    +0.154 HD
ATOM     25  H   UNL     1       2.005  -3.384  -1.010  0.00  0.00    +0.159 HD
ENDROOT
BRANCH   1  28
ATOM     26  C   UNL     1      -0.044   3.845   0.022  0.00  0.00    +0.162 A 
ATOM     27  C   UNL     1       1.163   3.164   0.007  0.00  0.00    +0.055 A 
ATOM     28  C   UNL     1       1.176   1.782   0.000  0.00  0.00    -0.015 A 
ATOM     29  C   UNL     1      -0.013   1.076   0.008  0.00  0.00    +0.010 A 
ATOM     30  C   UNL     1      -1.220   1.749   0.017  0.00  0.00    +0.049 A 
ATOM     31  C   UNL     1      -1.240   3.135   0.030  0.00  0.00    +0.158 A 
BRANCH  31  32
ATOM     32  O   UNL     1      -2.427   3.799   0.044  0.00  0.00    -0.503 OA
ATOM     33  H   UNL     1      -3.372   3.236   0.051  0.00  0.00    +0.292 HD
ENDBRANCH  31  32
BRANCH  26  34
ATOM     34  O   UNL     1      -0.059   5.205   0.029  0.00  0.00    -0.489 OA
BRANCH  34  36
ATOM     35  C   UNL     1       0.990   7.382   0.030  0.00  0.00    +0.048 C 
ATOM     36  C   UNL     1       1.207   5.868   0.020  0.00  0.00    +0.226 C 
ENDBRANCH  34  36
ENDBRANCH  26  34
ENDBRANCH   1  28
TORSDOF 4
