REMARK  Name = ZINC03211363
REMARK  6 active torsions:
REMARK  status: ('A' for Active; 'I' for Inactive)
REMARK    1  A    between atoms: C_4  and  C_7
REMARK    2  A    between atoms: C_7  and  N_8
REMARK    3  A    between atoms: N_16  and  N_17
REMARK    4  A    between atoms: C_18  and  C_20
REMARK    5  A    between atoms: N_22  and  C_23
REMARK    6  A    between atoms: C_26  and  O_29
REMARK                            x       y       z     vdW  Elec       q    Type
REMARK                         _______ _______ _______ _____ _____    ______ ____
ROOT
ATOM      1  N   UNL     1       4.154  -0.953   1.338  0.00  0.00    -0.261 N 
ATOM      2  C   UNL     1       4.955  -0.084   2.071  0.00  0.00    +0.046 A 
ATOM      3  C   UNL     1       5.510   1.151   1.752  0.00  0.00    +0.024 A 
ATOM      4  C   UNL     1       6.282   1.823   2.678  0.00  0.00    +0.002 A 
ATOM      5  C   UNL     1       6.514   1.280   3.931  0.00  0.00    +0.001 A 
ATOM      6  C   UNL     1       5.972   0.055   4.265  0.00  0.00    +0.012 A 
ATOM      7  C   UNL     1       5.191  -0.629   3.339  0.00  0.00    +0.028 A 
ATOM      8  C   UNL     1       4.479  -1.927   3.376  0.00  0.00    +0.153 C 
ATOM      9  N   UNL     1       4.426  -2.781   4.370  0.00  0.00    -0.174 NA
ATOM     10  C   UNL     1       3.838  -2.048   2.050  0.00  0.00    +0.272 C 
ATOM     11  O   UNL     1       3.148  -2.975   1.670  0.00  0.00    -0.268 OA
ENDROOT
BRANCH   9  12
ATOM     12  N   UNL     1       3.700  -3.972   4.232  0.00  0.00    -0.198 N 
ATOM     13  C   UNL     1       3.644  -4.849   5.253  0.00  0.00    +0.318 C 
ATOM     14  O   UNL     1       4.223  -4.608   6.292  0.00  0.00    -0.263 OA
ATOM     15  H   UNL     1       3.237  -4.164   3.401  0.00  0.00    +0.178 HD
BRANCH  13  16
ATOM     16  C   UNL     1       2.872  -6.117   5.107  0.00  0.00    +0.305 C 
ATOM     17  O   UNL     1       2.292  -6.357   4.067  0.00  0.00    -0.265 OA
ATOM     18  N   UNL     1       2.816  -6.994   6.128  0.00  0.00    -0.278 N 
ATOM     19  H   UNL     1       3.333  -6.834   6.934  0.00  0.00    +0.155 HD
BRANCH  18  20
ATOM     20  C   UNL     1       2.014  -8.135   6.027  0.00  0.00    +0.034 A 
ATOM     21  C   UNL     1       1.359  -8.626   7.149  0.00  0.00    +0.027 A 
ATOM     22  C   UNL     1       0.568  -9.753   7.049  0.00  0.00    +0.047 A 
ATOM     23  C   UNL     1       0.427 -10.395   5.827  0.00  0.00    +0.117 A 
ATOM     24  C   UNL     1       1.081  -9.906   4.705  0.00  0.00    +0.047 A 
ATOM     25  C   UNL     1       1.868  -8.776   4.803  0.00  0.00    +0.027 A 
BRANCH  23  26
ATOM     26  O   UNL     1      -0.353 -11.505   5.729  0.00  0.00    -0.507 OA
ATOM     27  H   UNL     1      -1.277 -11.319   5.514  0.00  0.00    +0.292 HD
ENDBRANCH  23  26
ENDBRANCH  18  20
ENDBRANCH  13  16
ENDBRANCH   9  12
BRANCH   1  28
ATOM     28  C   UNL     1       3.707  -0.704  -0.035  0.00  0.00    +0.149 C 
BRANCH  28  32
ATOM     29  C   UNL     1      -0.011   1.400   0.037  0.00  0.00    +0.000 A 
ATOM     30  C   UNL     1       1.180   2.102   0.023  0.00  0.00    +0.000 A 
ATOM     31  C   UNL     1       2.383   1.421   0.001  0.00  0.00    +0.005 A 
ATOM     32  C   UNL     1       2.395   0.039  -0.009  0.00  0.00    -0.030 A 
ATOM     33  C   UNL     1       1.204  -0.663   0.006  0.00  0.00    +0.005 A 
ATOM     34  C   UNL     1       0.001   0.018   0.028  0.00  0.00    +0.000 A 
ENDBRANCH  28  32
ENDBRANCH   1  28
TORSDOF 6
