REMARK  Name = ZINC38845242
REMARK  19 active torsions:
REMARK  status: ('A' for Active; 'I' for Inactive)
REMARK    1  A    between atoms: C_1  and  C_2
REMARK    2  A    between atoms: C_2  and  N_3
REMARK    3  A    between atoms: N_3  and  C_4
REMARK    4  A    between atoms: N_3  and  C_6
REMARK    5  A    between atoms: C_4  and  C_5
REMARK    6  A    between atoms: C_6  and  C_7
REMARK    7  A    between atoms: C_7  and  N_8
REMARK    8  A    between atoms: C_17  and  S_18
REMARK    9  A    between atoms: S_18  and  C_19
REMARK   10  A    between atoms: C_20  and  C_22
REMARK   11  A    between atoms: C_24  and  O_34
REMARK   12  A    between atoms: C_25  and  O_31
REMARK   13  A    between atoms: C_26  and  O_28
REMARK   14  A    between atoms: O_28  and  C_29
REMARK   15  A    between atoms: C_29  and  C_30
REMARK   16  A    between atoms: O_31  and  C_32
REMARK   17  A    between atoms: C_32  and  C_33
REMARK   18  A    between atoms: O_34  and  C_35
REMARK   19  A    between atoms: C_35  and  C_36
REMARK                            x       y       z     vdW  Elec       q    Type
REMARK                         _______ _______ _______ _____ _____    ______ ____
ROOT
ATOM      1  N   UNL     1       0.106  -3.265   1.052  0.00  0.00    -0.248 N 
ATOM      2  C   UNL     1       1.168  -3.923   0.453  0.00  0.00    +0.168 A 
ATOM      3  N   UNL     1       1.939  -4.862   0.947  0.00  0.00    -0.223 NA
ATOM      4  C   UNL     1       2.947  -5.420   0.242  0.00  0.00    +0.094 A 
ATOM      5  C   UNL     1       3.123  -4.927  -1.069  0.00  0.00    +0.042 A 
ATOM      6  S   UNL     1       1.832  -3.712  -1.193  0.00  0.00    -0.052 S 
ATOM      7  C   UNL     1       4.104  -5.391  -1.912  0.00  0.00    +0.017 A 
ATOM      8  C   UNL     1       4.966  -6.383  -1.481  0.00  0.00    +0.002 A 
ATOM      9  C   UNL     1       4.828  -6.895  -0.200  0.00  0.00    +0.017 A 
ATOM     10  C   UNL     1       3.848  -6.437   0.654  0.00  0.00    +0.034 A 
ATOM     11  C   UNL     1      -0.247  -3.568   2.317  0.00  0.00    +0.252 C 
ATOM     12  O   UNL     1       0.419  -4.354   2.962  0.00  0.00    -0.270 OA
ENDROOT
BRANCH  11  13
ATOM     13  C   UNL     1      -1.443  -2.947   2.918  0.00  0.00    +0.044 A 
ATOM     14  C   UNL     1      -2.499  -3.747   3.363  0.00  0.00    +0.062 A 
ATOM     15  C   UNL     1      -3.618  -3.163   3.925  0.00  0.00    +0.166 A 
ATOM     16  C   UNL     1      -3.694  -1.778   4.049  0.00  0.00    +0.204 A 
ATOM     17  C   UNL     1      -2.643  -0.978   3.606  0.00  0.00    +0.166 A 
ATOM     18  C   UNL     1      -1.520  -1.558   3.048  0.00  0.00    +0.062 A 
BRANCH  17  19
ATOM     19  O   UNL     1      -2.721   0.374   3.728  0.00  0.00    -0.488 OA
BRANCH  19  20
ATOM     20  C   UNL     1      -1.607   1.133   3.253  0.00  0.00    +0.226 C 
ATOM     21  C   UNL     1      -1.875   2.623   3.473  0.00  0.00    +0.048 C 
ENDBRANCH  19  20
ENDBRANCH  17  19
BRANCH  16  22
ATOM     22  O   UNL     1      -4.795  -1.206   4.602  0.00  0.00    -0.485 OA
BRANCH  22  23
ATOM     23  C   UNL     1      -4.781  -1.006   6.017  0.00  0.00    +0.226 C 
ATOM     24  C   UNL     1      -6.096  -0.355   6.453  0.00  0.00    +0.048 C 
ENDBRANCH  22  23
ENDBRANCH  16  22
BRANCH  15  25
ATOM     25  O   UNL     1      -4.646  -3.941   4.359  0.00  0.00    -0.488 OA
BRANCH  25  26
ATOM     26  C   UNL     1      -4.456  -5.356   4.303  0.00  0.00    +0.226 C 
ATOM     27  C   UNL     1      -5.743  -6.061   4.736  0.00  0.00    +0.048 C 
ENDBRANCH  25  26
ENDBRANCH  15  25
ENDBRANCH  11  13
BRANCH  10  28
ATOM     28  S   UNL     1       3.713  -7.119   2.273  0.00  0.00    -0.126 S 
ATOM     29  C   UNL     1       5.042  -8.351   2.343  0.00  0.00    +0.090 C 
ENDBRANCH  10  28
BRANCH   1  30
ATOM     30  C   UNL     1      -0.633  -2.240   0.310  0.00  0.00    +0.097 C 
BRANCH  30  31
ATOM     31  C   UNL     1      -1.873  -2.869  -0.329  0.00  0.00    -0.059 C 
BRANCH  31  32
ATOM     32  N   UNL     1      -2.583  -1.855  -1.121  0.00  0.00    +0.380 N 
ATOM     33  H   UNL     1      -2.748  -1.038  -0.551  0.00  0.00    -0.082 HD
BRANCH  32  35
ATOM     34  C   UNL     1      -2.481  -0.387  -3.078  0.00  0.00    -0.017 C 
ATOM     35  C   UNL     1      -1.768  -1.484  -2.285  0.00  0.00    -0.082 C 
ENDBRANCH  32  35
BRANCH  32  36
ATOM     36  C   UNL     1      -3.868  -2.401  -1.577  0.00  0.00    -0.082 C 
ATOM     37  C   UNL     1      -4.746  -2.719  -0.364  0.00  0.00    -0.017 C 
ENDBRANCH  32  36
ENDBRANCH  31  32
ENDBRANCH  30  31
ENDBRANCH   1  30
TORSDOF 13
