REMARK  Name = ZINC39491621
REMARK  16 active torsions:
REMARK  status: ('A' for Active; 'I' for Inactive)
REMARK    1  A    between atoms: C_1  and  C_2
REMARK    2  A    between atoms: C_2  and  C_3
REMARK    3  A    between atoms: C_3  and  N_4
REMARK    4  A    between atoms: N_4  and  C_5
REMARK    5  A    between atoms: C_5  and  C_6
REMARK    6  A    between atoms: N_8  and  C_19
REMARK    7  A    between atoms: C_12  and  C_15
REMARK    8  A    between atoms: C_15  and  O_17
REMARK    9  A    between atoms: O_17  and  C_18
REMARK   10  A    between atoms: C_19  and  C_20
REMARK   11  A    between atoms: C_20  and  C_22
REMARK   12  A    between atoms: C_20  and  C_26
REMARK   13  A    between atoms: C_22  and  C_23
REMARK   14  A    between atoms: C_23  and  C_24
REMARK   15  A    between atoms: C_23  and  C_25
REMARK   16  A    between atoms: C_31  and  O_32
REMARK                            x       y       z     vdW  Elec       q    Type
REMARK                         _______ _______ _______ _____ _____    ______ ____
ROOT
ATOM      1  C   UNL     1      -2.411  -3.932  -0.627  0.00  0.00    -0.039 A 
ATOM      2  C   UNL     1      -2.630  -4.869  -1.562  0.00  0.00    +0.088 A 
ATOM      3  N   UNL     1      -2.640  -6.111  -0.986  0.00  0.00    -0.346 N 
ATOM      4  C   UNL     1      -2.422  -6.003   0.366  0.00  0.00    +0.049 A 
ATOM      5  C   UNL     1      -2.262  -4.633   0.652  0.00  0.00    +0.002 A 
ATOM      6  C   UNL     1      -2.019  -4.218   1.959  0.00  0.00    +0.025 A 
ATOM      7  C   UNL     1      -1.933  -5.168   2.973  0.00  0.00    +0.060 A 
ATOM      8  C   UNL     1      -2.091  -6.529   2.674  0.00  0.00    +0.017 A 
ATOM      9  C   UNL     1      -2.337  -6.937   1.397  0.00  0.00    +0.027 A 
ENDROOT
BRANCH   7  10
ATOM     10  C   UNL     1      -1.676  -4.743   4.362  0.00  0.00    +0.339 C 
ATOM     11  O   UNL     1      -1.539  -3.564   4.621  0.00  0.00    -0.245 OA
BRANCH  10  12
ATOM     12  O   UNL     1      -1.593  -5.662   5.343  0.00  0.00    -0.464 OA
ATOM     13  C   UNL     1      -1.342  -5.180   6.665  0.00  0.00    +0.280 C 
ENDBRANCH  10  12
ENDBRANCH   7  10
BRANCH   1  14
ATOM     14  C   UNL     1      -2.327  -2.444  -0.850  0.00  0.00    -0.045 C 
BRANCH  14  15
ATOM     15  N   UNL     1      -0.916  -2.036  -0.903  0.00  0.00    +0.382 N 
ATOM     16  H   UNL     1      -0.456  -2.516  -1.661  0.00  0.00    -0.085 HD
ATOM     17  H   UNL     1      -0.465  -2.271  -0.032  0.00  0.00    -0.085 HD
BRANCH  15  18
ATOM     18  C   UNL     1      -0.835  -0.585  -1.121  0.00  0.00    -0.082 C 
BRANCH  18  20
ATOM     19  C   UNL     1       0.719   1.351  -1.403  0.00  0.00    +0.002 C 
ATOM     20  C   UNL     1       0.634  -0.160  -1.176  0.00  0.00    -0.022 C 
ENDBRANCH  18  20
ENDBRANCH  15  18
ENDBRANCH  14  15
ENDBRANCH   1  14
BRANCH   3  21
ATOM     21  C   UNL     1      -2.853  -7.369  -1.705  0.00  0.00    +0.130 C 
BRANCH  21  22
ATOM     22  C   UNL     1      -4.307  -7.814  -1.536  0.00  0.00    +0.043 C 
BRANCH  22  23
ATOM     23  C   UNL     1      -5.220  -6.806  -2.184  0.00  0.00    -0.001 A 
ATOM     24  C   UNL     1      -5.111  -6.544  -3.537  0.00  0.00    +0.007 A 
ATOM     25  C   UNL     1      -5.948  -5.619  -4.132  0.00  0.00    +0.001 A 
ATOM     26  C   UNL     1      -6.896  -4.953  -3.376  0.00  0.00    +0.004 A 
ATOM     27  C   UNL     1      -7.008  -5.211  -2.024  0.00  0.00    +0.046 A 
ATOM     28  C   UNL     1      -6.173  -6.143  -1.425  0.00  0.00    +0.120 A 
BRANCH  28  29
ATOM     29  O   UNL     1      -6.285  -6.403  -0.096  0.00  0.00    -0.506 OA
ATOM     30  H   UNL     1      -5.734  -5.839   0.463  0.00  0.00    +0.292 HD
ENDBRANCH  28  29
ENDBRANCH  22  23
BRANCH  22  31
ATOM     31  C   UNL     1      -4.503  -9.180  -2.198  0.00  0.00    +0.013 C 
BRANCH  31  32
ATOM     32  C   UNL     1      -3.685 -10.232  -1.448  0.00  0.00    -0.017 C 
ATOM     33  C   UNL     1      -4.247 -10.404  -0.035  0.00  0.00    +0.007 C 
ATOM     34  C   UNL     1      -3.764 -11.566  -2.193  0.00  0.00    +0.007 C 
ENDBRANCH  31  32
ENDBRANCH  22  31
ENDBRANCH  21  22
ENDBRANCH   3  21
TORSDOF 12
