REMARK  Name = ZINC03066337
REMARK  10 active torsions:
REMARK  status: ('A' for Active; 'I' for Inactive)
REMARK    1  A    between atoms: C_1  and  C_2
REMARK    2  A    between atoms: N_4  and  C_5
REMARK    3  A    between atoms: C_8  and  S_11
REMARK    4  A    between atoms: S_11  and  N_14
REMARK    5  A    between atoms: N_14  and  C_15
REMARK    6  A    between atoms: C_15  and  C_17
REMARK    7  A    between atoms: C_15  and  N_21
REMARK    8  A    between atoms: C_22  and  C_24
REMARK    9  A    between atoms: C_24  and  O_25
REMARK   10  A    between atoms: O_25  and  C_26
REMARK                            x       y       z     vdW  Elec       q    Type
REMARK                         _______ _______ _______ _____ _____    ______ ____
ROOT
ATOM      1  C   UNL     1      -2.161  -6.976   2.717  0.00  0.00    +0.213 C 
ENDROOT
BRANCH   1   2
ATOM      2  C   UNL     1      -3.100  -8.173   2.561  0.00  0.00    +0.223 C 
ATOM      3 CL   UNL     1      -2.365  -9.620   3.348  0.00  0.00    -0.080 Cl
ATOM      4 CL   UNL     1      -4.682  -7.803   3.341  0.00  0.00    -0.080 Cl
ATOM      5 CL   UNL     1      -3.358  -8.509   0.808  0.00  0.00    -0.080 Cl
ENDBRANCH   1   2
BRANCH   1   6
ATOM      6  N   UNL     1      -1.863  -6.771   4.137  0.00  0.00    -0.292 N 
ATOM      7  C   UNL     1      -1.900  -5.530   4.661  0.00  0.00    +0.252 C 
ATOM      8  O   UNL     1      -2.179  -4.582   3.958  0.00  0.00    -0.272 OA
ATOM      9  H   UNL     1      -1.639  -7.529   4.700  0.00  0.00    +0.150 HD
BRANCH   7  10
ATOM     10  C   UNL     1      -1.593  -5.319   6.122  0.00  0.00    +0.324 C 
BRANCH  10  11
ATOM     11  O   UNL     1      -1.697  -3.929   6.435  0.00  0.00    -0.481 OA
BRANCH  11  12
ATOM     12  C   UNL     1      -1.450  -3.566   7.721  0.00  0.00    +0.140 A 
ATOM     13  C   UNL     1      -1.109  -4.527   8.661  0.00  0.00    +0.048 A 
ATOM     14  C   UNL     1      -0.858  -4.156   9.968  0.00  0.00    +0.023 A 
ATOM     15  C   UNL     1      -0.946  -2.827  10.340  0.00  0.00    +0.043 A 
ATOM     16  C   UNL     1      -1.286  -1.865   9.405  0.00  0.00    +0.043 A 
ATOM     17  C   UNL     1      -1.532  -2.232   8.095  0.00  0.00    +0.084 A 
ATOM     18 CL   UNL     1      -1.952  -1.025   6.920  0.00  0.00    -0.080 Cl
ATOM     19 CL   UNL     1      -0.630  -2.364  11.983  0.00  0.00    -0.083 Cl
ENDBRANCH  11  12
ENDBRANCH  10  11
ENDBRANCH   7  10
ENDBRANCH   1   6
BRANCH   1  20
ATOM     20  N   UNL     1      -0.916  -7.233   1.989  0.00  0.00    -0.166 NA
ATOM     21  H   UNL     1      -0.322  -7.943   2.279  0.00  0.00    +0.150 HD
BRANCH  20  22
ATOM     22  S   UNL     1      -0.521  -6.310   0.672  0.00  0.00    +0.060 S 
ATOM     23  O   UNL     1      -1.678  -6.266  -0.153  0.00  0.00    -0.153 OA
ATOM     24  O   UNL     1       0.732  -6.788   0.202  0.00  0.00    -0.153 OA
BRANCH  22  28
ATOM     25  C   UNL     1       0.176  -2.088   2.152  0.00  0.00    +0.033 A 
ATOM     26  C   UNL     1       1.231  -2.989   2.096  0.00  0.00    +0.025 A 
ATOM     27  C   UNL     1       1.015  -4.276   1.644  0.00  0.00    +0.030 A 
ATOM     28  C   UNL     1      -0.250  -4.668   1.248  0.00  0.00    +0.105 A 
ATOM     29  C   UNL     1      -1.303  -3.773   1.302  0.00  0.00    +0.030 A 
ATOM     30  C   UNL     1      -1.095  -2.486   1.759  0.00  0.00    +0.025 A 
BRANCH  25  34
ATOM     31  C   UNL     1      -0.289   1.208   3.909  0.00  0.00    +0.109 C 
ATOM     32  C   UNL     1      -0.562  -0.154   3.325  0.00  0.00    +0.214 C 
ATOM     33  O   UNL     1      -1.639  -0.684   3.499  0.00  0.00    -0.276 OA
ATOM     34  N   UNL     1       0.391  -0.783   2.610  0.00  0.00    -0.286 N 
ATOM     35  H   UNL     1       1.227  -0.332   2.412  0.00  0.00    +0.155 HD
ENDBRANCH  25  34
ENDBRANCH  22  28
ENDBRANCH  20  22
ENDBRANCH   1  20
TORSDOF 9
