REMARK  Name = ZINC13940961
REMARK  9 active torsions:
REMARK  status: ('A' for Active; 'I' for Inactive)
REMARK    1  A    between atoms: C_1  and  C_2
REMARK    2  A    between atoms: C_2  and  O_3
REMARK    3  A    between atoms: O_3  and  C_4
REMARK    4  A    between atoms: C_6  and  C_12
REMARK    5  A    between atoms: C_9  and  O_10
REMARK    6  A    between atoms: C_17  and  C_27
REMARK    7  A    between atoms: C_19  and  C_23
REMARK    8  A    between atoms: C_23  and  O_25
REMARK    9  A    between atoms: O_25  and  C_26
REMARK                            x       y       z     vdW  Elec       q    Type
REMARK                         _______ _______ _______ _____ _____    ______ ____
ROOT
ATOM      1  C   UNL     1       2.776  -0.826   3.681  0.00  0.00    +0.136 C 
ATOM      2  C   UNL     1       3.977   0.081   3.817  0.00  0.00    +0.037 C 
ATOM      3  C   UNL     1       4.749   0.208   4.908  0.00  0.00    +0.017 C 
ATOM      4  C   UNL     1       5.916   1.182   4.917  0.00  0.00    +0.055 C 
ATOM      5  C   UNL     1       6.520   1.284   3.517  0.00  0.00    +0.013 C 
ATOM      6  C   UNL     1       5.420   1.778   2.570  0.00  0.00    +0.171 C 
ATOM      7  C   UNL     1       4.259   0.834   2.652  0.00  0.00    +0.177 C 
ATOM      8  O   UNL     1       3.533   0.711   1.685  0.00  0.00    -0.291 OA
ATOM      9  C   UNL     1       7.684   2.277   3.524  0.00  0.00    +0.009 C 
ATOM     10  N   UNL     1       4.580  -0.483   6.064  0.00  0.00    -0.316 N 
ATOM     11  C   UNL     1       3.363  -0.651   6.716  0.00  0.00    +0.052 A 
ATOM     12  C   UNL     1       3.116  -0.124   7.971  0.00  0.00    +0.025 A 
ATOM     13  C   UNL     1       1.899  -0.369   8.583  0.00  0.00    +0.002 A 
ATOM     14  C   UNL     1       0.940  -1.136   7.946  0.00  0.00    +0.002 A 
ATOM     15  C   UNL     1       1.179  -1.649   6.683  0.00  0.00    +0.025 A 
ATOM     16  C   UNL     1       2.388  -1.388   6.060  0.00  0.00    +0.049 A 
ATOM     17  N   UNL     1       2.632  -1.793   4.748  0.00  0.00    -0.331 N 
ATOM     18  H   UNL     1       5.364  -0.888   6.465  0.00  0.00    +0.152 HD
ATOM     19  H   UNL     1       2.707  -2.739   4.548  0.00  0.00    +0.147 HD
ENDROOT
BRANCH   1  22
ATOM     20  C   UNL     1      -0.401   0.818   2.466  0.00  0.00    +0.163 A 
ATOM     21  C   UNL     1       0.741   0.035   2.507  0.00  0.00    +0.055 A 
ATOM     22  C   UNL     1       1.535   0.028   3.639  0.00  0.00    -0.018 A 
ATOM     23  C   UNL     1       1.192   0.801   4.732  0.00  0.00    +0.029 A 
ATOM     24  C   UNL     1       0.053   1.586   4.698  0.00  0.00    +0.086 A 
ATOM     25  C   UNL     1      -0.744   1.601   3.564  0.00  0.00    +0.177 A 
ATOM     26 CL   UNL     1      -0.373   2.557   6.072  0.00  0.00    -0.080 Cl
BRANCH  25  27
ATOM     27  O   UNL     1      -1.861   2.376   3.526  0.00  0.00    -0.502 OA
ATOM     28  H   UNL     1      -2.659   1.932   3.844  0.00  0.00    +0.292 HD
ENDBRANCH  25  27
BRANCH  20  29
ATOM     29  O   UNL     1      -1.183   0.826   1.353  0.00  0.00    -0.489 OA
BRANCH  29  31
ATOM     30  C   UNL     1      -1.762   0.141  -0.891  0.00  0.00    +0.048 C 
ATOM     31  C   UNL     1      -0.766   0.002   0.262  0.00  0.00    +0.226 C 
ENDBRANCH  29  31
ENDBRANCH  20  29
ENDBRANCH   1  22
BRANCH   6  32
ATOM     32  C   UNL     1       5.944   1.814   1.157  0.00  0.00    +0.318 C 
ATOM     33  O   UNL     1       7.085   1.493   0.927  0.00  0.00    -0.250 OA
BRANCH  32  34
ATOM     34  O   UNL     1       5.141   2.203   0.154  0.00  0.00    -0.467 OA
ATOM     35  C   UNL     1       5.712   2.213  -1.181  0.00  0.00    +0.280 C 
ENDBRANCH  32  34
ENDBRANCH   6  32
TORSDOF 6
