REMARK  Name = ZINC02239933
REMARK  8 active torsions:
REMARK  status: ('A' for Active; 'I' for Inactive)
REMARK    1  A    between atoms: C_1  and  C_2
REMARK    2  A    between atoms: C_2  and  O_3
REMARK    3  A    between atoms: O_3  and  C_4
REMARK    4  A    between atoms: C_4  and  C_6
REMARK    5  A    between atoms: C_7  and  C_25
REMARK    6  A    between atoms: C_13  and  C_23
REMARK    7  A    between atoms: C_18  and  C_21
REMARK    8  A    between atoms: C_18  and  C_22
REMARK                            x       y       z     vdW  Elec       q    Type
REMARK                         _______ _______ _______ _____ _____    ______ ____
ROOT
ATOM      1  C   UNL     1       4.464  -0.136   0.181  0.00  0.00    +0.111 C 
ATOM      2  C   UNL     1       5.134   0.996  -0.163  0.00  0.00    +0.041 C 
ATOM      3  S   UNL     1       4.077   2.369  -0.478  0.00  0.00    -0.080 S 
ATOM      4  C   UNL     1       2.425   1.768  -0.214  0.00  0.00    +0.059 C 
ATOM      5  C   UNL     1       1.209   2.453  -0.329  0.00  0.00    +0.017 C 
ATOM      6  C   UNL     1       1.169   3.834  -0.865  0.00  0.00    +0.006 A 
ATOM      7  C   UNL     1       2.250   4.375  -1.551  0.00  0.00    +0.013 A 
ATOM      8  C   UNL     1       2.174   5.667  -2.035  0.00  0.00    -0.050 A 
ATOM      9  C   UNL     1       1.031   6.422  -1.839  0.00  0.00    +0.005 A 
ATOM     10  C   UNL     1      -0.051   5.892  -1.157  0.00  0.00    +0.024 A 
ATOM     11  C   UNL     1       0.011   4.600  -0.669  0.00  0.00    +0.036 A 
ATOM     12  N   UNL     1      -1.063   4.030   0.021  0.00  0.00    -0.334 N 
ATOM     13  C   UNL     1      -1.296   2.583  -0.094  0.00  0.00    +0.059 C 
ATOM     14  C   UNL     1       0.010   1.845   0.061  0.00  0.00    +0.029 C 
ATOM     15  S   UNL     1       0.025   0.260   0.707  0.00  0.00    -0.054 S 
ATOM     16  C   UNL     1      -1.899   2.267  -1.464  0.00  0.00    +0.037 C 
ATOM     17  C   UNL     1      -2.265   2.136   1.003  0.00  0.00    +0.037 C 
ATOM     18  C   UNL     1       3.343   6.258  -2.781  0.00  0.00    +0.044 C 
ATOM     19  S   UNL     1       2.715   0.071   0.226  0.00  0.00    -0.073 S 
ATOM     20  H   UNL     1      -1.648   4.582   0.565  0.00  0.00    +0.147 HD
ENDROOT
BRANCH   2  21
ATOM     21  C   UNL     1       6.605   1.066  -0.266  0.00  0.00    -0.010 A 
ATOM     22  C   UNL     1       7.319   1.995   0.494  0.00  0.00    +0.009 A 
ATOM     23  C   UNL     1       8.693   2.052   0.396  0.00  0.00    +0.001 A 
ATOM     24  C   UNL     1       9.364   1.198  -0.462  0.00  0.00    +0.000 A 
ATOM     25  C   UNL     1       8.664   0.279  -1.222  0.00  0.00    +0.001 A 
ATOM     26  C   UNL     1       7.289   0.208  -1.130  0.00  0.00    +0.009 A 
ENDBRANCH   2  21
BRANCH   1  27
ATOM     27  C   UNL     1       5.110  -1.364   0.474  0.00  0.00    +0.347 C 
ATOM     28  O   UNL     1       6.324  -1.413   0.532  0.00  0.00    -0.244 OA
BRANCH  27  29
ATOM     29  O   UNL     1       4.378  -2.477   0.689  0.00  0.00    -0.461 OA
BRANCH  29  31
ATOM     30  C   UNL     1       4.104  -4.825   1.191  0.00  0.00    +0.048 C 
ATOM     31  C   UNL     1       5.095  -3.679   0.979  0.00  0.00    +0.229 C 
ENDBRANCH  29  31
ENDBRANCH  27  29
ENDBRANCH   1  27
TORSDOF 4
