REMARK  Name = ZINC01269761
REMARK  10 active torsions:
REMARK  status: ('A' for Active; 'I' for Inactive)
REMARK    1  A    between atoms: C_1  and  C_2
REMARK    2  A    between atoms: C_2  and  N_3
REMARK    3  A    between atoms: N_3  and  C_4
REMARK    4  A    between atoms: N_3  and  C_6
REMARK    5  A    between atoms: C_4  and  C_5
REMARK    6  A    between atoms: C_9  and  C_12
REMARK    7  A    between atoms: C_17  and  C_36
REMARK    8  A    between atoms: C_29  and  C_31
REMARK    9  A    between atoms: C_31  and  C_32
REMARK   10  A    between atoms: C_32  and  C_33
REMARK                            x       y       z     vdW  Elec       q    Type
REMARK                         _______ _______ _______ _____ _____    ______ ____
ROOT
ATOM      1  C   UNL     1      -1.302  -6.165   0.447  0.00  0.00    +0.147 C 
ATOM      2  C   UNL     1      -2.652  -6.695   0.025  0.00  0.00    +0.037 C 
ATOM      3  C   UNL     1      -2.905  -6.576  -1.362  0.00  0.00    +0.163 C 
ATOM      4  C   UNL     1      -4.176  -7.061  -1.991  0.00  0.00    +0.088 C 
ATOM      5  C   UNL     1      -4.725  -8.220  -1.150  0.00  0.00    +0.032 C 
ATOM      6  C   UNL     1      -4.907  -7.712   0.279  0.00  0.00    +0.059 C 
ATOM      7  C   UNL     1      -3.573  -7.242   0.836  0.00  0.00    +0.017 C 
ATOM      8  N   UNL     1      -3.422  -7.422   2.173  0.00  0.00    -0.316 N 
ATOM      9  C   UNL     1      -2.948  -6.458   3.054  0.00  0.00    +0.053 A 
ATOM     10  C   UNL     1      -3.735  -5.922   4.059  0.00  0.00    +0.025 A 
ATOM     11  C   UNL     1      -3.186  -4.998   4.931  0.00  0.00    +0.002 A 
ATOM     12  C   UNL     1      -1.863  -4.616   4.800  0.00  0.00    +0.002 A 
ATOM     13  C   UNL     1      -1.080  -5.138   3.785  0.00  0.00    +0.025 A 
ATOM     14  C   UNL     1      -1.633  -6.047   2.898  0.00  0.00    +0.058 A 
ATOM     15  N   UNL     1      -0.919  -6.517   1.798  0.00  0.00    -0.258 N 
ATOM     16  C   UNL     1       0.150  -7.313   1.997  0.00  0.00    +0.221 C 
ATOM     17  O   UNL     1       0.782  -7.728   1.049  0.00  0.00    -0.275 OA
ATOM     18  O   UNL     1      -2.060  -6.063  -2.069  0.00  0.00    -0.292 OA
ATOM     19  H   UNL     1      -3.664  -8.287   2.540  0.00  0.00    +0.152 HD
ENDROOT
BRANCH   5  20
ATOM     20  C   UNL     1      -6.052  -8.670  -1.705  0.00  0.00    -0.043 A 
ATOM     21  C   UNL     1      -7.108  -7.781  -1.778  0.00  0.00    +0.007 A 
ATOM     22  C   UNL     1      -8.325  -8.193  -2.288  0.00  0.00    +0.038 A 
ATOM     23  C   UNL     1      -8.486  -9.496  -2.726  0.00  0.00    +0.123 A 
ATOM     24  C   UNL     1      -7.428 -10.386  -2.652  0.00  0.00    +0.038 A 
ATOM     25  C   UNL     1      -6.210  -9.971  -2.147  0.00  0.00    +0.007 A 
ATOM     26  F   UNL     1      -9.675  -9.900  -3.224  0.00  0.00    -0.205 F 
ENDBRANCH   5  20
BRANCH   1  30
ATOM     27  C   UNL     1      -1.354  -1.906   0.122  0.00  0.00    +0.013 A 
ATOM     28  C   UNL     1      -2.169  -2.539   1.042  0.00  0.00    +0.022 A 
ATOM     29  C   UNL     1      -2.153  -3.917   1.147  0.00  0.00    +0.007 A 
ATOM     30  C   UNL     1      -1.321  -4.663   0.332  0.00  0.00    -0.022 A 
ATOM     31  C   UNL     1      -0.507  -4.030  -0.588  0.00  0.00    +0.007 A 
ATOM     32  C   UNL     1      -0.526  -2.652  -0.696  0.00  0.00    +0.022 A 
BRANCH  27  33
ATOM     33  N   UNL     1      -1.371  -0.512   0.016  0.00  0.00    -0.394 NA
ATOM     34  H   UNL     1      -0.724  -0.222  -0.701  0.00  0.00    +0.126 HD
BRANCH  33  36
ATOM     35  C   UNL     1      -2.717   1.447  -0.573  0.00  0.00    +0.022 C 
ATOM     36  C   UNL     1      -2.725  -0.064  -0.335  0.00  0.00    +0.081 C 
ENDBRANCH  33  36
BRANCH  33  37
ATOM     37  C   UNL     1      -0.977   0.082   1.301  0.00  0.00    +0.081 C 
ATOM     38  C   UNL     1       0.477  -0.284   1.606  0.00  0.00    +0.022 C 
ENDBRANCH  33  37
ENDBRANCH  27  33
ENDBRANCH   1  30
BRANCH  16  39
ATOM     39  C   UNL     1       0.560  -7.688   3.398  0.00  0.00    +0.107 C 
BRANCH  39  40
ATOM     40  C   UNL     1       1.793  -8.591   3.345  0.00  0.00    +0.134 C 
BRANCH  40  41
ATOM     41  C   UNL     1       2.203  -8.966   4.746  0.00  0.00    +0.356 C 
ATOM     42  O   UNL     1       1.567  -8.549   5.699  0.00  0.00    -0.246 OA
ATOM     43  O   UNL     1       3.170  -9.686   4.926  0.00  0.00    -0.246 OA
ENDBRANCH  40  41
ENDBRANCH  39  40
ENDBRANCH  16  39
TORSDOF 8
