REMARK  Name = ZINC12883779
REMARK  7 active torsions:
REMARK  status: ('A' for Active; 'I' for Inactive)
REMARK    1  A    between atoms: C_1  and  C_2
REMARK    2  A    between atoms: C_2  and  C_3
REMARK    3  A    between atoms: C_14  and  C_16
REMARK    4  A    between atoms: C_16  and  C_17
REMARK    5  A    between atoms: N_22  and  C_25
REMARK    6  A    between atoms: C_25  and  C_26
REMARK    7  A    between atoms: C_26  and  C_27
REMARK                            x       y       z     vdW  Elec       q    Type
REMARK                         _______ _______ _______ _____ _____    ______ ____
ROOT
ATOM      1  C   UNL     1      -1.220   1.751   0.017  0.00  0.00    -0.047 A 
ATOM      2  C   UNL     1      -1.236   3.134   0.030  0.00  0.00    +0.005 A 
ATOM      3  C   UNL     1      -0.053   3.844   0.024  0.00  0.00    +0.024 A 
ATOM      4  C   UNL     1       1.167   3.172   0.009  0.00  0.00    +0.036 A 
ATOM      5  C   UNL     1       1.171   1.780   0.000  0.00  0.00    -0.027 A 
ATOM      6  C   UNL     1      -0.013   1.076   0.008  0.00  0.00    +0.008 A 
ATOM      7  C   UNL     1       2.617   1.373  -0.017  0.00  0.00    +0.050 C 
ATOM      8  C   UNL     1       2.973   0.505   1.196  0.00  0.00    +0.088 C 
ATOM      9  C   UNL     1       2.923  -0.953   0.661  0.00  0.00    +0.073 C 
ATOM     10  C   UNL     1       2.526  -0.818  -0.824  0.00  0.00    -0.049 C 
ATOM     11  C   UNL     1       4.362  -1.409   0.755  0.00  0.00    +0.224 C 
ATOM     12  O   UNL     1       4.774  -2.499   0.424  0.00  0.00    -0.275 OA
ATOM     13  N   UNL     1       5.109  -0.420   1.260  0.00  0.00    -0.241 N 
ATOM     14  C   UNL     1       4.431   0.697   1.546  0.00  0.00    +0.225 C 
ATOM     15  O   UNL     1       4.912   1.707   2.014  0.00  0.00    -0.275 OA
ATOM     16  C   UNL     1       3.387   2.666  -0.013  0.00  0.00    +0.211 C 
ATOM     17  O   UNL     1       4.593   2.789  -0.022  0.00  0.00    -0.277 OA
ATOM     18  N   UNL     1       2.477   3.658   0.001  0.00  0.00    -0.286 N 
ATOM     19  H   UNL     1       2.704   4.601   0.006  0.00  0.00    +0.155 HD
ATOM     20  N   UNL     1       2.921   0.549  -1.173  0.00  0.00    +0.394 N 
ATOM     21  H   UNL     1       3.926   0.586  -1.380  0.00  0.00    -0.083 HD
ATOM     22  H   UNL     1       2.392   0.874  -1.990  0.00  0.00    -0.083 HD
ENDROOT
BRANCH   1  24
ATOM     23  C   UNL     1      -2.947   0.713   1.463  0.00  0.00    +0.009 C 
ATOM     24  C   UNL     1      -2.516   0.981   0.019  0.00  0.00    +0.032 C 
ENDBRANCH   1  24
BRANCH  10  25
ATOM     25  C   UNL     1       3.272  -1.851  -1.671  0.00  0.00    +0.080 C 
BRANCH  25  26
ATOM     26  C   UNL     1       2.780  -1.783  -3.094  0.00  0.00    +0.209 C 
ATOM     27  O   UNL     1       1.918  -0.987  -3.400  0.00  0.00    -0.276 OA
ATOM     28  N   UNL     1       3.299  -2.607  -4.026  0.00  0.00    -0.329 N 
ATOM     29  H   UNL     1       3.988  -3.244  -3.781  0.00  0.00    +0.145 HD
ATOM     30  H   UNL     1       2.982  -2.564  -4.942  0.00  0.00    +0.145 HD
ENDBRANCH  25  26
ENDBRANCH  10  25
BRANCH  13  31
ATOM     31  C   UNL     1       6.551  -0.551   1.482  0.00  0.00    +0.121 C 
BRANCH  31  32
ATOM     32  C   UNL     1       6.803  -1.090   2.891  0.00  0.00    +0.054 C 
BRANCH  32  33
ATOM     33  C   UNL     1       8.287  -1.225   3.119  0.00  0.00    -0.046 A 
ATOM     34  C   UNL     1       8.929  -2.409   2.808  0.00  0.00    +0.004 A 
ATOM     35  C   UNL     1      10.290  -2.531   3.013  0.00  0.00    +0.000 A 
ATOM     36  C   UNL     1      11.008  -1.473   3.539  0.00  0.00    +0.000 A 
ATOM     37  C   UNL     1      10.365  -0.291   3.855  0.00  0.00    +0.000 A 
ATOM     38  C   UNL     1       9.004  -0.167   3.646  0.00  0.00    +0.004 A 
ENDBRANCH  32  33
ENDBRANCH  31  32
ENDBRANCH  13  31
TORSDOF 6
