REMARK  Name = ZINC39657676
REMARK  9 active torsions:
REMARK  status: ('A' for Active; 'I' for Inactive)
REMARK    1  A    between atoms: C_1  and  C_2
REMARK    2  A    between atoms: C_6  and  C_8
REMARK    3  A    between atoms: C_12  and  C_21
REMARK    4  A    between atoms: N_23  and  C_24
REMARK    5  A    between atoms: C_24  and  C_25
REMARK    6  A    between atoms: C_30  and  S_31
REMARK    7  A    between atoms: S_31  and  C_32
REMARK    8  A    between atoms: C_37  and  C_38
REMARK    9  A    between atoms: C_38  and  O_39
REMARK                            x       y       z     vdW  Elec       q    Type
REMARK                         _______ _______ _______ _____ _____    ______ ____
ROOT
ATOM      1  C   UNL     1       0.362  -3.704   4.309  0.00  0.00    +0.247 C 
ATOM      2  O   UNL     1       1.032  -3.395   5.275  0.00  0.00    -0.270 OA
ATOM      3  N   UNL     1       0.476  -4.936   3.775  0.00  0.00    -0.296 N 
ATOM      4  C   UNL     1      -0.138  -5.446   2.526  0.00  0.00    +0.121 C 
ATOM      5  C   UNL     1       0.957  -6.327   1.884  0.00  0.00    +0.100 C 
ATOM      6  C   UNL     1       1.860  -6.746   3.056  0.00  0.00    -0.004 C 
ATOM      7  C   UNL     1       1.251  -6.085   4.301  0.00  0.00    +0.115 C 
ATOM      8  C   UNL     1       3.281  -6.235   2.837  0.00  0.00    -0.010 C 
ATOM      9  C   UNL     1       4.173  -6.713   3.986  0.00  0.00    -0.082 C 
ATOM     10  N   UNL     1       4.162  -8.180   4.038  0.00  0.00    +0.379 N 
ATOM     11  C   UNL     1       2.808  -8.660   4.342  0.00  0.00    -0.082 C 
ATOM     12  C   UNL     1       1.858  -8.264   3.208  0.00  0.00    -0.010 C 
ATOM     13  H   UNL     1       4.457  -8.550   3.147  0.00  0.00    -0.086 HD
ATOM     14  H   UNL     1       4.797  -8.494   4.756  0.00  0.00    -0.086 HD
ENDROOT
BRANCH   1  20
ATOM     15  C   UNL     1      -3.674  -2.725   1.542  0.00  0.00    +0.044 C 
ATOM     16  C   UNL     1      -2.521  -2.252   2.388  0.00  0.00    -0.050 A 
ATOM     17  C   UNL     1      -2.341  -0.898   2.615  0.00  0.00    +0.003 A 
ATOM     18  C   UNL     1      -1.284  -0.455   3.390  0.00  0.00    +0.001 A 
ATOM     19  C   UNL     1      -0.403  -1.361   3.944  0.00  0.00    +0.013 A 
ATOM     20  C   UNL     1      -0.579  -2.727   3.719  0.00  0.00    +0.037 A 
ATOM     21  C   UNL     1      -1.650  -3.168   2.940  0.00  0.00    +0.016 A 
ENDBRANCH   1  20
BRANCH   5  22
ATOM     22  C   UNL     1       0.340  -7.538   1.234  0.00  0.00    +0.218 C 
ATOM     23  O   UNL     1      -0.596  -8.100   1.762  0.00  0.00    -0.275 OA
ATOM     24  N   UNL     1       0.829  -7.998   0.065  0.00  0.00    -0.311 N 
ATOM     25  H   UNL     1       1.577  -7.549  -0.358  0.00  0.00    +0.149 HD
BRANCH  24  26
ATOM     26  C   UNL     1       0.230  -9.176  -0.567  0.00  0.00    +0.140 C 
BRANCH  26  27
ATOM     27  C   UNL     1       0.955  -9.480  -1.853  0.00  0.00    -0.017 A 
ATOM     28  C   UNL     1       0.416  -9.081  -3.061  0.00  0.00    +0.006 A 
ATOM     29  C   UNL     1       1.081  -9.360  -4.241  0.00  0.00    +0.000 A 
ATOM     30  C   UNL     1       2.286 -10.038  -4.217  0.00  0.00    +0.001 A 
ATOM     31  C   UNL     1       2.830 -10.439  -3.013  0.00  0.00    +0.015 A 
ATOM     32  C   UNL     1       2.168 -10.156  -1.824  0.00  0.00    +0.017 A 
BRANCH  32  33
ATOM     33  S   UNL     1       2.862 -10.660  -0.285  0.00  0.00    -0.089 S 
BRANCH  33  34
ATOM     34  C   UNL     1       4.312 -11.551  -0.743  0.00  0.00    +0.018 A 
ATOM     35  C   UNL     1       5.565 -10.974  -0.577  0.00  0.00    +0.015 A 
ATOM     36  C   UNL     1       6.699 -11.675  -0.937  0.00  0.00    +0.001 A 
ATOM     37  C   UNL     1       6.588 -12.951  -1.461  0.00  0.00    +0.000 A 
ATOM     38  C   UNL     1       5.342 -13.528  -1.627  0.00  0.00    +0.007 A 
ATOM     39  C   UNL     1       4.204 -12.835  -1.264  0.00  0.00    -0.008 A 
BRANCH  39  40
ATOM     40  C   UNL     1       2.848 -13.467  -1.439  0.00  0.00    +0.192 C 
BRANCH  40  41
ATOM     41  O   UNL     1       3.000 -14.777  -1.988  0.00  0.00    -0.390 OA
ATOM     42  H   UNL     1       2.165 -15.245  -2.127  0.00  0.00    +0.210 HD
ENDBRANCH  40  41
ENDBRANCH  39  40
ENDBRANCH  33  34
ENDBRANCH  32  33
ENDBRANCH  26  27
ENDBRANCH  24  26
ENDBRANCH   5  22
TORSDOF 8
