REMARK  Name = ZINC34792058
REMARK  7 active torsions:
REMARK  status: ('A' for Active; 'I' for Inactive)
REMARK    1  A    between atoms: C_1  and  N_2
REMARK    2  A    between atoms: C_5  and  C_10
REMARK    3  A    between atoms: N_19  and  C_21
REMARK    4  A    between atoms: C_21  and  C_22
REMARK    5  A    between atoms: N_24  and  C_25
REMARK    6  A    between atoms: C_30  and  C_31
REMARK    7  A    between atoms: C_31  and  C_32
REMARK                            x       y       z     vdW  Elec       q    Type
REMARK                         _______ _______ _______ _____ _____    ______ ____
ROOT
ATOM      1  C   UNL     1      -0.027   1.493   0.032  0.00  0.00    +0.139 C 
ATOM      2  N   UNL     1      -0.003   0.029   0.013  0.00  0.00    -0.260 N 
ATOM      3  C   UNL     1      -1.195  -0.637   0.011  0.00  0.00    +0.042 C 
ATOM      4  C   UNL     1      -1.244  -1.984  -0.006  0.00  0.00    +0.058 C 
ATOM      5  C   UNL     1       0.072  -2.736  -0.022  0.00  0.00    +0.142 C 
ATOM      6  N   UNL     1       1.302  -1.927  -0.018  0.00  0.00    -0.288 N 
ATOM      7  C   UNL     1       1.188  -0.585  -0.005  0.00  0.00    +0.307 C 
ATOM      8  O   UNL     1       2.198   0.092  -0.006  0.00  0.00    -0.252 OA
ATOM      9  C   UNL     1      -2.582  -2.427  -0.004  0.00  0.00    +0.247 C 
ATOM     10  O   UNL     1      -2.920  -3.597  -0.017  0.00  0.00    -0.270 OA
ATOM     11  N   UNL     1      -3.438  -1.389   0.013  0.00  0.00    -0.283 N 
ATOM     12  C   UNL     1      -2.630  -0.160   0.025  0.00  0.00    +0.160 C 
ATOM     13  H   UNL     1       2.175  -2.351  -0.028  0.00  0.00    +0.151 HD
ENDROOT
BRANCH   5  14
ATOM     14  C   UNL     1       0.093  -3.608  -1.252  0.00  0.00    -0.022 A 
ATOM     15  C   UNL     1       0.414  -3.061  -2.480  0.00  0.00    +0.008 A 
ATOM     16  C   UNL     1       0.435  -3.859  -3.608  0.00  0.00    +0.038 A 
ATOM     17  C   UNL     1       0.134  -5.207  -3.508  0.00  0.00    +0.123 A 
ATOM     18  C   UNL     1      -0.187  -5.753  -2.277  0.00  0.00    +0.038 A 
ATOM     19  C   UNL     1      -0.202  -4.954  -1.149  0.00  0.00    +0.008 A 
ATOM     20  F   UNL     1       0.154  -5.988  -4.610  0.00  0.00    -0.205 F 
ENDBRANCH   5  14
BRANCH  11  21
ATOM     21  C   UNL     1      -4.901  -1.468   0.020  0.00  0.00    +0.204 C 
BRANCH  21  22
ATOM     22  C   UNL     1      -5.395  -1.513   1.443  0.00  0.00    +0.235 C 
ATOM     23  O   UNL     1      -4.603  -1.482   2.361  0.00  0.00    -0.274 OA
ATOM     24  N   UNL     1      -6.717  -1.587   1.695  0.00  0.00    -0.284 N 
ATOM     25  H   UNL     1      -7.353  -1.546   0.964  0.00  0.00    +0.155 HD
BRANCH  24  26
ATOM     26  C   UNL     1      -7.171  -1.724   3.011  0.00  0.00    +0.037 A 
ATOM     27  C   UNL     1      -6.490  -1.103   4.051  0.00  0.00    +0.023 A 
ATOM     28  C   UNL     1      -6.941  -1.240   5.349  0.00  0.00    +0.002 A 
ATOM     29  C   UNL     1      -8.070  -1.994   5.614  0.00  0.00    +0.000 A 
ATOM     30  C   UNL     1      -8.749  -2.614   4.582  0.00  0.00    +0.006 A 
ATOM     31  C   UNL     1      -8.307  -2.475   3.281  0.00  0.00    -0.022 A 
BRANCH  31  32
ATOM     32  C   UNL     1      -9.053  -3.145   2.155  0.00  0.00    +0.072 C 
BRANCH  32  33
ATOM     33  C   UNL     1      -8.418  -4.479   1.855  0.00  0.00    -0.043 A 
ATOM     34  C   UNL     1      -7.396  -4.565   0.928  0.00  0.00    +0.004 A 
ATOM     35  C   UNL     1      -6.814  -5.788   0.653  0.00  0.00    +0.000 A 
ATOM     36  C   UNL     1      -7.253  -6.925   1.305  0.00  0.00    +0.000 A 
ATOM     37  C   UNL     1      -8.274  -6.838   2.233  0.00  0.00    +0.000 A 
ATOM     38  C   UNL     1      -8.854  -5.615   2.511  0.00  0.00    +0.004 A 
ENDBRANCH  32  33
ENDBRANCH  31  32
ENDBRANCH  24  26
ENDBRANCH  21  22
ENDBRANCH  11  21
TORSDOF 6
