REMARK  Name = ZINC02977225
REMARK  11 active torsions:
REMARK  status: ('A' for Active; 'I' for Inactive)
REMARK    1  A    between atoms: C_1  and  C_2
REMARK    2  A    between atoms: C_2  and  N_3
REMARK    3  A    between atoms: N_3  and  C_4
REMARK    4  A    between atoms: N_3  and  C_6
REMARK    5  A    between atoms: C_4  and  C_5
REMARK    6  A    between atoms: C_9  and  C_12
REMARK    7  A    between atoms: C_12  and  C_14
REMARK    8  A    between atoms: C_12  and  N_25
REMARK    9  A    between atoms: C_23  and  O_24
REMARK   10  A    between atoms: N_25  and  C_26
REMARK   11  A    between atoms: C_28  and  C_31
REMARK                            x       y       z     vdW  Elec       q    Type
REMARK                         _______ _______ _______ _____ _____    ______ ____
ROOT
ATOM      1  C   UNL     1       1.453   2.394   4.804  0.00  0.00    +0.136 C 
ENDROOT
BRANCH   1   2
ATOM      2  C   UNL     1       1.853   0.992   4.425  0.00  0.00    +0.021 A 
ATOM      3  C   UNL     1       1.065   0.272   3.531  0.00  0.00    +0.010 A 
ATOM      4  C   UNL     1       1.399  -0.997   3.168  0.00  0.00    +0.010 A 
ATOM      5  C   UNL     1       2.554  -1.593   3.701  0.00  0.00    +0.004 A 
ATOM      6  C   UNL     1       2.932  -2.903   3.349  0.00  0.00    +0.011 A 
ATOM      7  C   UNL     1       4.067  -3.417   3.906  0.00  0.00    +0.020 A 
ATOM      8  C   UNL     1       4.815  -2.648   4.796  0.00  0.00    +0.111 A 
ATOM      9  N   UNL     1       4.460  -1.429   5.121  0.00  0.00    -0.251 NA
ATOM     10  C   UNL     1       3.360  -0.867   4.611  0.00  0.00    +0.113 A 
ATOM     11  C   UNL     1       2.986   0.448   4.960  0.00  0.00    +0.148 A 
BRANCH  11  12
ATOM     12  O   UNL     1       3.745   1.167   5.828  0.00  0.00    -0.504 OA
ATOM     13  H   UNL     1       3.493   1.057   6.755  0.00  0.00    +0.292 HD
ENDBRANCH  11  12
ENDBRANCH   1   2
BRANCH   1  17
ATOM     14  C   UNL     1       3.469   5.184   2.270  0.00  0.00    +0.030 A 
ATOM     15  C   UNL     1       3.865   5.034   3.593  0.00  0.00    +0.023 A 
ATOM     16  C   UNL     1       3.211   4.131   4.409  0.00  0.00    +0.007 A 
ATOM     17  C   UNL     1       2.164   3.378   3.911  0.00  0.00    -0.023 A 
ATOM     18  C   UNL     1       1.772   3.521   2.592  0.00  0.00    +0.007 A 
ATOM     19  C   UNL     1       2.417   4.425   1.772  0.00  0.00    +0.023 A 
BRANCH  14  20
ATOM     20  N   UNL     1       4.128   6.095   1.442  0.00  0.00    -0.330 N 
BRANCH  20  22
ATOM     21  C   UNL     1       2.636   7.337  -0.045  0.00  0.00    +0.024 C 
ATOM     22  C   UNL     1       3.710   6.252   0.046  0.00  0.00    +0.102 C 
ENDBRANCH  20  22
BRANCH  20  23
ATOM     23  C   UNL     1       5.238   6.894   1.968  0.00  0.00    +0.102 C 
ATOM     24  C   UNL     1       6.553   6.141   1.757  0.00  0.00    +0.024 C 
ENDBRANCH  20  23
ENDBRANCH  14  20
ENDBRANCH   1  17
BRANCH   1  25
ATOM     25  N   UNL     1       0.005   2.549   4.646  0.00  0.00    -0.320 N 
ATOM     26  H   UNL     1      -0.358   2.894   3.815  0.00  0.00    +0.148 HD
BRANCH  25  27
ATOM     27  C   UNL     1      -0.849   2.201   5.686  0.00  0.00    +0.097 A 
ATOM     28  C   UNL     1      -0.334   1.590   6.825  0.00  0.00    +0.045 A 
ATOM     29  C   UNL     1      -1.195   1.250   7.853  0.00  0.00    -0.046 A 
ATOM     30  C   UNL     1      -2.548   1.528   7.704  0.00  0.00    +0.021 A 
ATOM     31  C   UNL     1      -2.989   2.141   6.548  0.00  0.00    +0.084 A 
ATOM     32  C   UNL     1      -0.678   0.586   9.103  0.00  0.00    +0.044 C 
ATOM     33  N   UNL     1      -2.172   2.490   5.519  0.00  0.00    -0.350 N 
ATOM     34  H   UNL     1      -2.528   2.941   4.668  0.00  0.00    +0.166 HD
ENDBRANCH  25  27
ENDBRANCH   1  25
TORSDOF 8
