REMARK  Name = ZINC16434958
REMARK  18 active torsions:
REMARK  status: ('A' for Active; 'I' for Inactive)
REMARK    1  A    between atoms: C_1  and  C_2
REMARK    2  A    between atoms: C_2  and  C_3
REMARK    3  A    between atoms: C_3  and  C_4
REMARK    4  A    between atoms: C_4  and  N_5
REMARK    5  A    between atoms: N_5  and  C_6
REMARK    6  A    between atoms: C_6  and  C_7
REMARK    7  A    between atoms: N_9  and  C_10
REMARK    8  A    between atoms: C_12  and  C_22
REMARK    9  A    between atoms: N_14  and  C_15
REMARK   10  A    between atoms: C_18  and  C_21
REMARK   11  A    between atoms: C_22  and  C_23
REMARK   12  A    between atoms: C_22  and  C_24
REMARK   13  A    between atoms: C_22  and  C_25
REMARK   14  A    between atoms: N_28  and  C_29
REMARK   15  A    between atoms: C_31  and  O_37
REMARK   16  A    between atoms: C_33  and  O_35
REMARK   17  A    between atoms: O_35  and  C_36
REMARK   18  A    between atoms: O_37  and  C_38
REMARK                            x       y       z     vdW  Elec       q    Type
REMARK                         _______ _______ _______ _____ _____    ______ ____
ROOT
ATOM      1  C   UNL     1       4.711   5.619  -0.326  0.00  0.00    +0.205 C 
ENDROOT
BRANCH   1   2
ATOM      2  N   UNL     1       4.729   4.157  -0.223  0.00  0.00    -0.277 N 
ATOM      3  C   UNL     1       3.571   3.475  -0.115  0.00  0.00    +0.307 C 
ATOM      4  O   UNL     1       2.512   4.072  -0.102  0.00  0.00    -0.252 OA
ATOM      5  N   UNL     1       3.588   2.131  -0.020  0.00  0.00    -0.269 N 
ATOM      6  H   UNL     1       4.434   1.659   0.036  0.00  0.00    +0.156 HD
BRANCH   5   7
ATOM      7  C   UNL     1       2.385   1.415  -0.004  0.00  0.00    +0.042 A 
ATOM      8  C   UNL     1       1.267   1.951   0.620  0.00  0.00    +0.069 A 
ATOM      9  C   UNL     1       0.076   1.242   0.636  0.00  0.00    +0.125 A 
ATOM     10  C   UNL     1       0.002  -0.003   0.028  0.00  0.00    +0.091 A 
ATOM     11  C   UNL     1       1.118  -0.538  -0.596  0.00  0.00    +0.125 A 
ATOM     12  C   UNL     1       2.310   0.170  -0.613  0.00  0.00    +0.069 A 
BRANCH  11  13
ATOM     13  O   UNL     1       1.044  -1.758  -1.191  0.00  0.00    -0.495 OA
ATOM     14  C   UNL     1      -0.214  -2.432  -1.136  0.00  0.00    +0.277 C 
ENDBRANCH  11  13
BRANCH   9  15
ATOM     15  O   UNL     1      -1.020   1.768   1.242  0.00  0.00    -0.495 OA
ATOM     16  C   UNL     1      -2.215   0.985   1.216  0.00  0.00    +0.277 C 
ENDBRANCH   9  15
ENDBRANCH   5   7
BRANCH   2  17
ATOM     17  C   UNL     1       6.005   3.438  -0.239  0.00  0.00    +0.110 C 
BRANCH  17  18
ATOM     18  C   UNL     1       6.374   3.085  -1.681  0.00  0.00    +0.019 C 
BRANCH  18  20
ATOM     19  C   UNL     1       8.076   1.981  -3.139  0.00  0.00    +0.004 C 
ATOM     20  C   UNL     1       7.707   2.334  -1.697  0.00  0.00    -0.002 C 
ENDBRANCH  18  20
ENDBRANCH  17  18
ENDBRANCH   2  17
ENDBRANCH   1   2
BRANCH   1  21
ATOM     21  C   UNL     1       4.778   6.220   1.054  0.00  0.00    +0.236 C 
ATOM     22  O   UNL     1       4.835   5.499   2.028  0.00  0.00    -0.274 OA
ATOM     23  N   UNL     1       4.774   7.559   1.207  0.00  0.00    -0.269 N 
ATOM     24  H   UNL     1       4.729   8.136   0.428  0.00  0.00    +0.156 HD
BRANCH  23  25
ATOM     25  C   UNL     1       4.837   8.115   2.484  0.00  0.00    +0.129 A 
ATOM     26  C   UNL     1       4.905   7.431   3.658  0.00  0.00    +0.069 A 
ATOM     27  C   UNL     1       4.952   8.364   4.697  0.00  0.00    +0.071 A 
ATOM     28  N   UNL     1       4.913   9.565   4.178  0.00  0.00    -0.169 NA
ATOM     29  N   UNL     1       4.847   9.443   2.784  0.00  0.00    -0.218 N 
BRANCH  29  30
ATOM     30  C   UNL     1       4.796  10.498   1.864  0.00  0.00    +0.067 A 
ATOM     31  C   UNL     1       5.430  10.380   0.634  0.00  0.00    +0.028 A 
ATOM     32  C   UNL     1       5.373  11.420  -0.273  0.00  0.00    +0.005 A 
ATOM     33  C   UNL     1       4.697  12.583   0.047  0.00  0.00    -0.050 A 
ATOM     34  C   UNL     1       4.069  12.706   1.273  0.00  0.00    +0.005 A 
ATOM     35  C   UNL     1       4.117  11.667   2.183  0.00  0.00    +0.028 A 
ATOM     36  C   UNL     1       4.643  13.718  -0.943  0.00  0.00    +0.044 C 
ENDBRANCH  29  30
BRANCH  27  37
ATOM     37  C   UNL     1       5.033   8.043   6.168  0.00  0.00    +0.006 C 
ATOM     38  C   UNL     1       6.451   7.582   6.511  0.00  0.00    +0.017 C 
ATOM     39  C   UNL     1       4.690   9.291   6.982  0.00  0.00    +0.017 C 
ATOM     40  C   UNL     1       4.040   6.928   6.501  0.00  0.00    +0.017 C 
ENDBRANCH  27  37
ENDBRANCH  23  25
ENDBRANCH   1  21
TORSDOF 11
