REMARK  Name = ZINC59039204
REMARK  13 active torsions:
REMARK  status: ('A' for Active; 'I' for Inactive)
REMARK    1  A    between atoms: C_1  and  C_2
REMARK    2  A    between atoms: C_2  and  N_3
REMARK    3  A    between atoms: N_3  and  C_4
REMARK    4  A    between atoms: N_3  and  C_6
REMARK    5  A    between atoms: C_4  and  C_5
REMARK    6  A    between atoms: C_9  and  C_13
REMARK    7  A    between atoms: C_10  and  O_12
REMARK    8  A    between atoms: N_14  and  N_15
REMARK    9  A    between atoms: C_18  and  S_21
REMARK   10  A    between atoms: S_21  and  C_22
REMARK   11  A    between atoms: C_22  and  C_23
REMARK   12  A    between atoms: N_25  and  C_26
REMARK   13  A    between atoms: C_31  and  C_32
REMARK                            x       y       z     vdW  Elec       q    Type
REMARK                         _______ _______ _______ _____ _____    ______ ____
ROOT
ATOM      1  N   UNL     1      -5.842  -2.161   6.161  0.00  0.00    -0.205 N 
ATOM      2  C   UNL     1      -7.134  -2.652   6.174  0.00  0.00    +0.232 A 
ATOM      3  N   UNL     1      -7.866  -2.935   5.117  0.00  0.00    -0.186 NA
ATOM      4  C   UNL     1      -9.062  -3.388   5.506  0.00  0.00    +0.211 A 
ATOM      5  N   UNL     1      -9.108  -3.398   6.817  0.00  0.00    -0.144 NA
ATOM      6  N   UNL     1      -7.866  -2.930   7.274  0.00  0.00    -0.245 N 
ATOM      7  H   UNL     1      -5.381  -1.986   6.996  0.00  0.00    +0.177 HD
ATOM      8  H   UNL     1      -7.589  -2.826   8.198  0.00  0.00    +0.192 HD
ENDROOT
BRANCH   1  10
ATOM      9  C   UNL     1      -3.985  -1.455   4.928  0.00  0.00    +0.142 C 
ATOM     10  N   UNL     1      -5.199  -1.916   4.941  0.00  0.00    -0.187 NA
BRANCH   9  14
ATOM     11  C   UNL     1      -2.032  -0.712   1.228  0.00  0.00    +0.033 A 
ATOM     12  C   UNL     1      -1.372  -0.462   2.427  0.00  0.00    +0.024 A 
ATOM     13  C   UNL     1      -2.002  -0.701   3.628  0.00  0.00    +0.015 A 
ATOM     14  C   UNL     1      -3.308  -1.197   3.645  0.00  0.00    +0.036 A 
ATOM     15  C   UNL     1      -3.972  -1.449   2.436  0.00  0.00    +0.127 A 
ATOM     16  C   UNL     1      -3.333  -1.200   1.235  0.00  0.00    +0.069 A 
BRANCH  15  17
ATOM     17  O   UNL     1      -5.242  -1.931   2.444  0.00  0.00    -0.506 OA
ATOM     18  H   UNL     1      -5.923  -1.245   2.447  0.00  0.00    +0.292 HD
ENDBRANCH  15  17
BRANCH  11  19
ATOM     19  N   UNL     1      -1.388  -0.467   0.015  0.00  0.00    -0.330 N 
BRANCH  19  21
ATOM     20  C   UNL     1      -0.046   1.578   0.005  0.00  0.00    +0.024 C 
ATOM     21  C   UNL     1      -0.016   0.048   0.005  0.00  0.00    +0.102 C 
ENDBRANCH  19  21
BRANCH  19  22
ATOM     22  C   UNL     1      -2.083  -0.724  -1.248  0.00  0.00    +0.102 C 
ATOM     23  C   UNL     1      -1.818  -2.164  -1.692  0.00  0.00    +0.024 C 
ENDBRANCH  19  22
ENDBRANCH  11  19
ENDBRANCH   9  14
ENDBRANCH   1  10
BRANCH   4  24
ATOM     24  S   UNL     1     -10.366  -3.888   4.432  0.00  0.00    -0.075 S 
BRANCH  24  25
ATOM     25  C   UNL     1     -11.697  -4.388   5.559  0.00  0.00    +0.173 C 
BRANCH  25  26
ATOM     26  C   UNL     1     -12.889  -4.844   4.759  0.00  0.00    +0.227 C 
ATOM     27  O   UNL     1     -12.846  -4.834   3.547  0.00  0.00    -0.275 OA
ATOM     28  N   UNL     1     -14.003  -5.264   5.390  0.00  0.00    -0.285 N 
ATOM     29  H   UNL     1     -14.011  -5.349   6.356  0.00  0.00    +0.155 HD
BRANCH  28  30
ATOM     30  C   UNL     1     -15.149  -5.578   4.651  0.00  0.00    +0.038 A 
ATOM     31  C   UNL     1     -15.351  -5.005   3.402  0.00  0.00    +0.043 A 
ATOM     32  C   UNL     1     -16.483  -5.318   2.675  0.00  0.00    +0.043 A 
ATOM     33  C   UNL     1     -17.416  -6.201   3.190  0.00  0.00    +0.020 A 
ATOM     34  C   UNL     1     -17.218  -6.772   4.433  0.00  0.00    +0.006 A 
ATOM     35  C   UNL     1     -16.085  -6.468   5.162  0.00  0.00    -0.029 A 
ATOM     36  C   UNL     1     -15.867  -7.097   6.515  0.00  0.00    +0.045 C 
ATOM     37 CL   UNL     1     -16.737  -4.602   1.113  0.00  0.00    -0.083 Cl
ENDBRANCH  28  30
ENDBRANCH  25  26
ENDBRANCH  24  25
ENDBRANCH   4  24
TORSDOF 10
