REMARK  Name = ZINC35318158
REMARK  17 active torsions:
REMARK  status: ('A' for Active; 'I' for Inactive)
REMARK    1  A    between atoms: C_1  and  C_2
REMARK    2  A    between atoms: C_2  and  N_3
REMARK    3  A    between atoms: N_3  and  C_4
REMARK    4  A    between atoms: N_3  and  C_6
REMARK    5  A    between atoms: C_4  and  C_5
REMARK    6  A    between atoms: C_6  and  C_7
REMARK    7  A    between atoms: C_7  and  C_8
REMARK    8  A    between atoms: C_8  and  C_9
REMARK    9  A    between atoms: C_9  and  C_11
REMARK   10  A    between atoms: C_9  and  N_12
REMARK   11  A    between atoms: C_13  and  C_15
REMARK   12  A    between atoms: C_15  and  S_16
REMARK   13  A    between atoms: S_16  and  C_17
REMARK   14  A    between atoms: N_24  and  C_25
REMARK   15  A    between atoms: N_24  and  C_28
REMARK   16  A    between atoms: C_25  and  C_26
REMARK   17  A    between atoms: C_28  and  C_29
REMARK                            x       y       z     vdW  Elec       q    Type
REMARK                         _______ _______ _______ _____ _____    ______ ____
ROOT
ATOM      1  C   UNL     1      -5.273  -2.205  -4.415  0.00  0.00    +0.173 C 
ENDROOT
BRANCH   1   3
ATOM      2  N   UNL     1      -3.425  -3.240  -3.137  0.00  0.00    -0.312 N 
ATOM      3  C   UNL     1      -4.727  -2.895  -3.192  0.00  0.00    +0.224 C 
ATOM      4  O   UNL     1      -5.459  -3.138  -2.256  0.00  0.00    -0.275 OA
ATOM      5  H   UNL     1      -2.840  -3.045  -3.886  0.00  0.00    +0.149 HD
BRANCH   2   6
ATOM      6  C   UNL     1      -2.895  -3.910  -1.948  0.00  0.00    +0.070 C 
ATOM      7  C   UNL     1      -3.139  -5.417  -2.059  0.00  0.00    +0.028 C 
BRANCH   6   8
ATOM      8  C   UNL     1      -1.392  -3.644  -1.840  0.00  0.00    +0.020 C 
BRANCH   8   9
ATOM      9  C   UNL     1      -1.155  -2.151  -1.603  0.00  0.00    -0.017 C 
BRANCH   9  10
ATOM     10  C   UNL     1       0.348  -1.884  -1.496  0.00  0.00    -0.079 C 
BRANCH  10  11
ATOM     11  N   UNL     1       0.576  -0.451  -1.269  0.00  0.00    +0.379 N 
ATOM     12  H   UNL     1       0.124   0.081  -1.998  0.00  0.00    -0.082 HD
BRANCH  11  14
ATOM     13  C   UNL     1       0.128   1.449   0.210  0.00  0.00    -0.017 C 
ATOM     14  C   UNL     1       0.019  -0.067   0.035  0.00  0.00    -0.082 C 
ENDBRANCH  11  14
BRANCH  11  15
ATOM     15  C   UNL     1       2.019  -0.176  -1.285  0.00  0.00    -0.082 C 
ATOM     16  C   UNL     1       2.573  -0.440  -2.687  0.00  0.00    -0.017 C 
ENDBRANCH  11  15
ENDBRANCH  10  11
ENDBRANCH   9  10
ENDBRANCH   8   9
ENDBRANCH   6   8
ENDBRANCH   2   6
ENDBRANCH   1   3
BRANCH   1  17
ATOM     17  S   UNL     1      -7.042  -1.874  -4.184  0.00  0.00    -0.077 S 
BRANCH  17  18
ATOM     18  C   UNL     1      -7.525  -1.077  -5.680  0.00  0.00    +0.192 A 
ATOM     19  N   UNL     1      -8.784  -0.693  -5.829  0.00  0.00    -0.207 NA
ATOM     20  C   UNL     1      -9.181  -0.089  -6.945  0.00  0.00    +0.128 A 
ATOM     21  C   UNL     1      -8.250   0.136  -7.961  0.00  0.00    +0.084 A 
ATOM     22  C   UNL     1      -6.946  -0.280  -7.765  0.00  0.00    +0.135 A 
ATOM     23  N   UNL     1      -6.619  -0.873  -6.625  0.00  0.00    -0.210 NA
ATOM     24 CL   UNL     1      -5.749  -0.025  -8.997  0.00  0.00    -0.062 Cl
ATOM     25  N   UNL     1     -10.498   0.311  -7.097  0.00  0.00    -0.308 N 
BRANCH  25  26
ATOM     26  C   UNL     1     -10.950   0.876  -8.372  0.00  0.00    +0.133 C 
BRANCH  26  27
ATOM     27  C   UNL     1     -11.447  -0.232  -9.264  0.00  0.00    -0.016 C 
ATOM     28  C   UNL     1     -12.655  -0.175  -9.768  0.00  0.00    +0.005 C 
ENDBRANCH  26  27
ENDBRANCH  25  26
BRANCH  25  29
ATOM     29  C   UNL     1     -11.441   0.169  -5.984  0.00  0.00    +0.133 C 
BRANCH  29  30
ATOM     30  C   UNL     1     -11.421   1.422  -5.147  0.00  0.00    -0.016 C 
ATOM     31  C   UNL     1     -12.535   2.070  -4.912  0.00  0.00    +0.005 C 
ENDBRANCH  29  30
ENDBRANCH  25  29
ENDBRANCH  17  18
ENDBRANCH   1  17
TORSDOF 14
