REMARK  Name = ZINC31165375
REMARK  14 active torsions:
REMARK  status: ('A' for Active; 'I' for Inactive)
REMARK    1  A    between atoms: C_1  and  C_2
REMARK    2  A    between atoms: C_2  and  O_4
REMARK    3  A    between atoms: O_4  and  C_5
REMARK    4  A    between atoms: C_7  and  O_44
REMARK    5  A    between atoms: C_11  and  C_42
REMARK    6  A    between atoms: C_11  and  C_43
REMARK    7  A    between atoms: C_15  and  O_41
REMARK    8  A    between atoms: C_17  and  C_40
REMARK    9  A    between atoms: C_20  and  C_39
REMARK   10  A    between atoms: C_26  and  C_34
REMARK   11  A    between atoms: C_26  and  C_35
REMARK   12  A    between atoms: C_29  and  C_33
REMARK   13  A    between atoms: C_35  and  O_37
REMARK   14  A    between atoms: O_37  and  C_38
REMARK                            x       y       z     vdW  Elec       q    Type
REMARK                         _______ _______ _______ _____ _____    ______ ____
ROOT
ATOM      1  C   UNL     1       0.012   5.120   1.778  0.00  0.00    +0.212 C 
ATOM      2  C   UNL     1       1.050   6.147   2.246  0.00  0.00    +0.160 C 
ATOM      3  C   UNL     1       1.332   5.931   3.729  0.00  0.00    +0.043 C 
ATOM      4  C   UNL     1       2.157   7.044   4.342  0.00  0.00    +0.029 C 
ATOM      5  C   UNL     1       2.969   6.622   5.537  0.00  0.00    +0.142 C 
ATOM      6  O   UNL     1       3.670   7.480   6.071  0.00  0.00    -0.297 OA
ATOM      7  C   UNL     1       2.983   5.244   6.123  0.00  0.00    +0.106 C 
ATOM      8  C   UNL     1       1.955   4.320   5.490  0.00  0.00    +0.128 C 
ATOM      9  C   UNL     1       1.911   4.539   3.965  0.00  0.00    +0.004 C 
ATOM     10  C   UNL     1       0.996   3.474   3.378  0.00  0.00    +0.012 C 
ATOM     11  C   UNL     1       0.559   3.693   1.933  0.00  0.00    +0.025 C 
ATOM     12  C   UNL     1      -0.569   2.719   1.640  0.00  0.00    +0.125 C 
ATOM     13  C   UNL     1      -1.132   2.811   0.246  0.00  0.00    +0.314 C 
ATOM     14  O   UNL     1      -0.816   3.698  -0.516  0.00  0.00    -0.250 OA
ATOM     15  O   UNL     1      -2.025   1.879  -0.137  0.00  0.00    -0.439 OA
ATOM     16  C   UNL     1      -2.576   0.919   0.784  0.00  0.00    +0.264 C 
ATOM     17  C   UNL     1      -1.629   0.584   1.923  0.00  0.00    +0.198 C 
ATOM     18  O   UNL     1      -1.987  -0.180   2.787  0.00  0.00    -0.292 OA
ATOM     19  C   UNL     1      -0.263   1.247   1.911  0.00  0.00    +0.065 C 
ATOM     20  C   UNL     1       0.503   1.059   3.184  0.00  0.00    -0.062 C 
ATOM     21  C   UNL     1       0.311   0.042   3.998  0.00  0.00    +0.008 C 
ATOM     22  C   UNL     1       1.581   2.073   3.544  0.00  0.00    +0.036 C 
ATOM     23  C   UNL     1       0.531   0.613   0.758  0.00  0.00    +0.025 C 
ATOM     24  C   UNL     1      -2.907  -0.378   0.025  0.00  0.00    +0.077 C 
ATOM     25  C   UNL     1       1.703   3.502   0.940  0.00  0.00    +0.016 C 
ATOM     26  C   UNL     1       3.333   4.417   3.428  0.00  0.00    +0.014 C 
ATOM     27  C   UNL     1       3.105   7.684   3.316  0.00  0.00    +0.019 C 
ATOM     28  C   UNL     1       1.195   8.155   4.826  0.00  0.00    +0.019 C 
ENDROOT
BRANCH  16  29
ATOM     29  C   UNL     1      -3.863   1.461   1.366  0.00  0.00    +0.359 C 
ATOM     30  O   UNL     1      -4.159   1.216   2.512  0.00  0.00    -0.246 OA
BRANCH  29  31
ATOM     31  O   UNL     1      -4.676   2.215   0.610  0.00  0.00    -0.465 OA
ATOM     32  C   UNL     1      -5.894   2.701   1.233  0.00  0.00    +0.280 C 
ENDBRANCH  29  31
ENDBRANCH  16  29
BRANCH   8  33
ATOM     33  O   UNL     1       0.663   4.573   6.046  0.00  0.00    -0.391 OA
ATOM     34  H   UNL     1      -0.206   3.993   5.703  0.00  0.00    +0.210 HD
ENDBRANCH   8  33
BRANCH   2  35
ATOM     35  O   UNL     1       0.488   7.448   2.028  0.00  0.00    -0.388 OA
ATOM     36  H   UNL     1       1.063   8.347   2.294  0.00  0.00    +0.210 HD
ENDBRANCH   2  35
BRANCH   1  37
ATOM     37  O   UNL     1      -1.198   5.269   2.565  0.00  0.00    -0.458 OA
BRANCH  37  39
ATOM     38  C   UNL     1      -3.396   6.349   2.878  0.00  0.00    +0.136 C 
ATOM     39  C   UNL     1      -2.114   6.140   2.114  0.00  0.00    +0.304 C 
ATOM     40  O   UNL     1      -1.911   6.757   1.095  0.00  0.00    -0.251 OA
ENDBRANCH  37  39
ENDBRANCH   1  37
TORSDOF 6
