REMARK  Name = ZINC58847291
REMARK  5 active torsions:
REMARK  status: ('A' for Active; 'I' for Inactive)
REMARK    1  A    between atoms: C_4  and  N_34
REMARK    2  A    between atoms: C_5  and  C_7
REMARK    3  A    between atoms: C_18  and  S_23
REMARK    4  A    between atoms: S_23  and  N_26
REMARK    5  A    between atoms: N_26  and  C_27
REMARK                            x       y       z     vdW  Elec       q    Type
REMARK                         _______ _______ _______ _____ _____    ______ ____
ROOT
ATOM      1  C   UNL     1       0.746  -1.940  -0.102  0.00  0.00    +0.107 C 
ATOM      2  C   UNL     1       1.072  -2.394  -1.493  0.00  0.00    +0.029 C 
ATOM      3  C   UNL     1       0.257  -1.637  -2.562  0.00  0.00    +0.033 C 
ATOM      4  C   UNL     1       0.163  -2.622  -3.709  0.00  0.00    -0.030 C 
ATOM      5  C   UNL     1       0.436  -3.835  -3.306  0.00  0.00    -0.023 C 
ATOM      6  C   UNL     1       0.722  -3.842  -1.825  0.00  0.00    +0.049 C 
ATOM      7  C   UNL     1      -0.510  -4.330  -1.116  0.00  0.00    -0.018 A 
ATOM      8  C   UNL     1      -1.102  -5.505  -1.558  0.00  0.00    +0.034 A 
ATOM      9  C   UNL     1      -2.242  -5.987  -0.946  0.00  0.00    +0.109 A 
ATOM     10  C   UNL     1      -2.805  -5.299   0.114  0.00  0.00    +0.030 A 
ATOM     11  C   UNL     1      -2.221  -4.133   0.562  0.00  0.00    +0.025 A 
ATOM     12  C   UNL     1      -1.068  -3.648  -0.050  0.00  0.00    +0.031 A 
ATOM     13  N   UNL     1      -0.471  -2.504   0.444  0.00  0.00    -0.336 N 
ATOM     14  H   UNL     1      -0.909  -2.043   1.177  0.00  0.00    +0.147 HD
ENDROOT
BRANCH   1  19
ATOM     15  C   UNL     1      -0.756   1.523  -0.101  0.00  0.00    +0.000 A 
ATOM     16  C   UNL     1       0.377   2.315  -0.121  0.00  0.00    +0.002 A 
ATOM     17  C   UNL     1       1.629   1.730  -0.135  0.00  0.00    +0.033 A 
ATOM     18  C   UNL     1       1.749   0.353  -0.129  0.00  0.00    +0.131 A 
ATOM     19  C   UNL     1       0.616  -0.439  -0.108  0.00  0.00    +0.003 A 
ATOM     20  C   UNL     1      -0.636   0.146  -0.095  0.00  0.00    +0.008 A 
BRANCH  18  21
ATOM     21  N   UNL     1       3.090  -0.274  -0.145  0.00  0.00    +0.057 N 
ATOM     22  O   UNL     1       4.080   0.418  -0.163  0.00  0.00    -0.126 OA
ATOM     23  O   UNL     1       3.194  -1.479  -0.139  0.00  0.00    -0.126 OA
ENDBRANCH  18  21
ENDBRANCH   1  19
BRANCH   9  24
ATOM     24  S   UNL     1      -2.981  -7.481  -1.517  0.00  0.00    +0.072 S 
ATOM     25  O   UNL     1      -4.348  -7.431  -1.132  0.00  0.00    -0.150 OA
ATOM     26  O   UNL     1      -2.577  -7.643  -2.870  0.00  0.00    -0.150 OA
BRANCH  24  27
ATOM     27  N   UNL     1      -2.295  -8.724  -0.666  0.00  0.00    -0.215 N 
ATOM     28  H   UNL     1      -1.808  -9.421  -1.133  0.00  0.00    +0.174 HD
BRANCH  27  29
ATOM     29  C   UNL     1      -2.416  -8.768   0.726  0.00  0.00    +0.066 A 
ATOM     30  C   UNL     1      -3.583  -8.330   1.337  0.00  0.00    +0.026 A 
ATOM     31  C   UNL     1      -3.700  -8.375   2.713  0.00  0.00    +0.002 A 
ATOM     32  C   UNL     1      -2.656  -8.856   3.482  0.00  0.00    +0.002 A 
ATOM     33  C   UNL     1      -1.492  -9.294   2.877  0.00  0.00    +0.022 A 
ATOM     34  C   UNL     1      -1.370  -9.257   1.501  0.00  0.00    +0.063 A 
ATOM     35 CL   UNL     1       0.089  -9.812   0.742  0.00  0.00    -0.082 Cl
ENDBRANCH  27  29
ENDBRANCH  24  27
ENDBRANCH   9  24
TORSDOF 5
