REMARK  Name = ZINC48947491
REMARK  5 active torsions:
REMARK  status: ('A' for Active; 'I' for Inactive)
REMARK    1  A    between atoms: C_1  and  N_2
REMARK    2  A    between atoms: N_2  and  C_3
REMARK    3  A    between atoms: N_2  and  C_11
REMARK    4  A    between atoms: C_3  and  C_4
REMARK    5  A    between atoms: C_16  and  N_17
REMARK                            x       y       z     vdW  Elec       q    Type
REMARK                         _______ _______ _______ _____ _____    ______ ____
ROOT
ATOM      1  C   UNL     1       0.000  -0.698  -1.214  0.00  0.00    +0.052 A 
ATOM      2  C   UNL     1       1.199  -1.028  -1.823  0.00  0.00    +0.048 A 
ATOM      3  C   UNL     1       1.203  -1.718  -3.033  0.00  0.00    +0.039 A 
ATOM      4  C   UNL     1      -0.009  -2.067  -3.616  0.00  0.00    -0.016 A 
ATOM      5  C   UNL     1      -1.205  -1.741  -3.015  0.00  0.00    +0.030 A 
ATOM      6  C   UNL     1      -1.210  -1.058  -1.807  0.00  0.00    +0.046 A 
ATOM      7  C   UNL     1       0.330  -2.792  -4.899  0.00  0.00    +0.133 C 
ATOM      8  C   UNL     1       1.843  -2.792  -4.934  0.00  0.00    +0.222 C 
ATOM      9  O   UNL     1       2.543  -3.274  -5.800  0.00  0.00    -0.275 OA
ATOM     10  N   UNL     1       2.265  -2.156  -3.829  0.00  0.00    -0.285 N 
ATOM     11  H   UNL     1       3.200  -2.018  -3.608  0.00  0.00    +0.155 HD
ENDROOT
BRANCH   6  12
ATOM     12  N   UNL     1      -2.424  -0.729  -1.188  0.00  0.00    -0.357 N 
ATOM     13  H   UNL     1      -2.424  -0.249  -0.345  0.00  0.00    +0.142 HD
ATOM     14  H   UNL     1      -3.264  -0.982  -1.603  0.00  0.00    +0.142 HD
ENDBRANCH   6  12
BRANCH   1  16
ATOM     15  C   UNL     1      -0.018   1.461   0.010  0.00  0.00    +0.129 C 
ATOM     16  N   UNL     1       0.002  -0.004   0.002  0.00  0.00    -0.329 N 
BRANCH  16  17
ATOM     17  C   UNL     1       0.024  -0.743   1.267  0.00  0.00    +0.136 C 
BRANCH  17  18
ATOM     18  C   UNL     1      -1.411  -1.020   1.720  0.00  0.00    +0.135 C 
ATOM     19  C   UNL     1      -1.391  -1.682   3.101  0.00  0.00    +0.033 C 
ATOM     20  C   UNL     1      -2.826  -2.011   3.522  0.00  0.00    +0.005 C 
ATOM     21  C   UNL     1      -3.466  -2.906   2.457  0.00  0.00    +0.028 C 
ATOM     22  C   UNL     1      -3.406  -2.197   1.101  0.00  0.00    +0.160 C 
ATOM     23  O   UNL     1      -2.046  -1.893   0.784  0.00  0.00    -0.375 OA
ENDBRANCH  17  18
ENDBRANCH  16  17
ENDBRANCH   1  16
TORSDOF 4
