REMARK  Name = ZINC08634807
REMARK  7 active torsions:
REMARK  status: ('A' for Active; 'I' for Inactive)
REMARK    1  A    between atoms: C_1  and  C_2
REMARK    2  A    between atoms: C_2  and  C_26
REMARK    3  A    between atoms: N_5  and  C_9
REMARK    4  A    between atoms: C_9  and  C_10
REMARK    5  A    between atoms: N_12  and  C_13
REMARK    6  A    between atoms: C_18  and  C_19
REMARK    7  A    between atoms: C_19  and  C_20
REMARK                            x       y       z     vdW  Elec       q    Type
REMARK                         _______ _______ _______ _____ _____    ______ ____
ROOT
ATOM      1  C   UNL     1      -5.220   5.032   1.472  0.00  0.00    +0.214 C 
ENDROOT
BRANCH   1   6
ATOM      2  C   UNL     1      -8.479   6.009   4.712  0.00  0.00    +0.047 C 
ATOM      3  C   UNL     1      -7.820   6.713   3.525  0.00  0.00    +0.135 C 
ATOM      4  C   UNL     1      -7.393   5.708   2.473  0.00  0.00    +0.251 C 
ATOM      5  O   UNL     1      -8.108   4.955   1.847  0.00  0.00    -0.272 OA
ATOM      6  N   UNL     1      -6.054   5.826   2.378  0.00  0.00    -0.215 N 
ATOM      7  C   UNL     1      -5.581   6.761   3.211  0.00  0.00    +0.310 C 
ATOM      8  O   UNL     1      -4.404   7.050   3.303  0.00  0.00    -0.252 OA
ATOM      9  N   UNL     1      -6.553   7.344   3.934  0.00  0.00    -0.281 N 
ATOM     10  H   UNL     1      -6.442   8.045   4.596  0.00  0.00    +0.152 HD
BRANCH   3  11
ATOM     11  C   UNL     1      -8.753   7.735   2.928  0.00  0.00    -0.014 A 
ATOM     12  C   UNL     1      -8.719   9.044   3.372  0.00  0.00    +0.006 A 
ATOM     13  C   UNL     1      -9.574   9.982   2.825  0.00  0.00    +0.001 A 
ATOM     14  C   UNL     1     -10.464   9.612   1.833  0.00  0.00    +0.015 A 
ATOM     15  C   UNL     1     -10.498   8.303   1.389  0.00  0.00    +0.018 A 
ATOM     16  C   UNL     1      -9.638   7.365   1.933  0.00  0.00    +0.021 A 
ATOM     17 BR   UNL     1     -11.714   7.795   0.033  0.00  0.00    -0.050 Br
ENDBRANCH   3  11
ENDBRANCH   1   6
BRANCH   1  18
ATOM     18  C   UNL     1      -4.771   3.776   2.174  0.00  0.00    +0.235 C 
ATOM     19  O   UNL     1      -5.114   3.565   3.317  0.00  0.00    -0.274 OA
ATOM     20  N   UNL     1      -3.988   2.888   1.529  0.00  0.00    -0.284 N 
ATOM     21  H   UNL     1      -3.648   3.094   0.644  0.00  0.00    +0.155 HD
BRANCH  20  22
ATOM     22  C   UNL     1      -3.666   1.669   2.137  0.00  0.00    +0.037 A 
ATOM     23  C   UNL     1      -4.502   1.134   3.108  0.00  0.00    +0.023 A 
ATOM     24  C   UNL     1      -4.178  -0.066   3.711  0.00  0.00    +0.002 A 
ATOM     25  C   UNL     1      -3.026  -0.737   3.344  0.00  0.00    +0.000 A 
ATOM     26  C   UNL     1      -2.195  -0.209   2.373  0.00  0.00    +0.006 A 
ATOM     27  C   UNL     1      -2.513   0.991   1.767  0.00  0.00    -0.022 A 
BRANCH  27  28
ATOM     28  C   UNL     1      -1.605   1.566   0.710  0.00  0.00    +0.072 C 
BRANCH  28  29
ATOM     29  C   UNL     1      -0.657   2.550   1.344  0.00  0.00    -0.043 A 
ATOM     30  C   UNL     1       0.564   2.120   1.829  0.00  0.00    +0.004 A 
ATOM     31  C   UNL     1       1.437   3.024   2.405  0.00  0.00    +0.000 A 
ATOM     32  C   UNL     1       1.087   4.357   2.501  0.00  0.00    +0.000 A 
ATOM     33  C   UNL     1      -0.136   4.787   2.021  0.00  0.00    +0.000 A 
ATOM     34  C   UNL     1      -1.009   3.884   1.444  0.00  0.00    +0.004 A 
ENDBRANCH  28  29
ENDBRANCH  27  28
ENDBRANCH  20  22
ENDBRANCH   1  18
TORSDOF 6
