REMARK  Name = ZINC56733867
REMARK  5 active torsions:
REMARK  status: ('A' for Active; 'I' for Inactive)
REMARK    1  A    between atoms: C_4  and  N_13
REMARK    2  A    between atoms: C_5  and  C_7
REMARK    3  A    between atoms: C_7  and  N_8
REMARK    4  A    between atoms: N_16  and  C_17
REMARK    5  A    between atoms: C_17  and  C_18
REMARK                            x       y       z     vdW  Elec       q    Type
REMARK                         _______ _______ _______ _____ _____    ______ ____
ROOT
ATOM      1  N   UNL     1       3.625  -0.654   0.003  0.00  0.00    -0.269 N 
ATOM      2  C   UNL     1       4.777   0.034  -0.124  0.00  0.00    +0.304 C 
ATOM      3  O   UNL     1       4.761   1.250  -0.130  0.00  0.00    -0.252 OA
ATOM      4  N   UNL     1       5.946  -0.625  -0.244  0.00  0.00    -0.295 N 
ATOM      5  H   UNL     1       3.643  -1.622   0.069  0.00  0.00    +0.156 HD
ATOM      6  H   UNL     1       5.959  -1.595  -0.239  0.00  0.00    +0.151 HD
ENDROOT
BRANCH   1  10
ATOM      7  C   UNL     1      -0.013   1.374   0.107  0.00  0.00    +0.000 A 
ATOM      8  C   UNL     1       1.112   1.945   0.674  0.00  0.00    +0.002 A 
ATOM      9  C   UNL     1       2.320   1.276   0.641  0.00  0.00    +0.024 A 
ATOM     10  C   UNL     1       2.403   0.027   0.038  0.00  0.00    +0.040 A 
ATOM     11  C   UNL     1       1.272  -0.544  -0.530  0.00  0.00    -0.005 A 
ATOM     12  C   UNL     1       0.067   0.131  -0.494  0.00  0.00    +0.007 A 
BRANCH  11  13
ATOM     13  C   UNL     1       1.359  -1.898  -1.185  0.00  0.00    +0.182 C 
BRANCH  13  14
ATOM     14  N   UNL     1       1.204  -2.943  -0.170  0.00  0.00    -0.248 N 
ATOM     15  C   UNL     1       0.311  -3.947  -0.178  0.00  0.00    +0.219 A 
ATOM     16  N   UNL     1       0.496  -4.663   0.901  0.00  0.00    -0.223 NA
ATOM     17  C   UNL     1       1.494  -4.149   1.619  0.00  0.00    +0.245 A 
ATOM     18  N   UNL     1       1.963  -3.097   1.001  0.00  0.00    -0.158 NA
ENDBRANCH  13  14
ENDBRANCH  11  13
ENDBRANCH   1  10
BRANCH   4  19
ATOM     19  C   UNL     1       7.198   0.123  -0.382  0.00  0.00    +0.142 C 
BRANCH  19  20
ATOM     20  C   UNL     1       8.350  -0.841  -0.498  0.00  0.00    -0.014 A 
ATOM     21  C   UNL     1       9.009  -1.287   0.641  0.00  0.00    +0.010 A 
ATOM     22  C   UNL     1      10.061  -2.172   0.490  0.00  0.00    +0.042 A 
ATOM     23  C   UNL     1      10.421  -2.584  -0.789  0.00  0.00    +0.099 A 
ATOM     24  N   UNL     1       9.768  -2.135  -1.850  0.00  0.00    -0.349 N 
ATOM     25  C   UNL     1       8.757  -1.295  -1.736  0.00  0.00    +0.089 A 
ATOM     26  N   UNL     1      11.477  -3.473  -0.955  0.00  0.00    -0.317 N 
ATOM     27  C   UNL     1      11.961  -3.818  -2.299  0.00  0.00    +0.106 C 
ATOM     28  C   UNL     1      13.470  -3.565  -2.360  0.00  0.00    +0.019 C 
ATOM     29  C   UNL     1      14.158  -4.331  -1.228  0.00  0.00    +0.003 C 
ATOM     30  C   UNL     1      13.638  -3.828   0.121  0.00  0.00    +0.019 C 
ATOM     31  C   UNL     1      12.135  -4.080   0.210  0.00  0.00    +0.106 C 
ATOM     32  H   UNL     1      10.037  -2.435  -2.733  0.00  0.00    +0.167 HD
ENDBRANCH  19  20
ENDBRANCH   4  19
TORSDOF 5
