REMARK  Name = ZINC21917808
REMARK  3 active torsions:
REMARK  status: ('A' for Active; 'I' for Inactive)
REMARK    1  A    between atoms: C_1  and  C_2
REMARK    2  A    between atoms: C_7  and  N_8
REMARK    3  A    between atoms: C_23  and  C_25
REMARK                            x       y       z     vdW  Elec       q    Type
REMARK                         _______ _______ _______ _____ _____    ______ ____
ROOT
ATOM      1  N   UNL     1      -0.469   2.453   0.020  0.00  0.00    -0.269 N 
ATOM      2  C   UNL     1      -0.800   3.757   0.100  0.00  0.00    +0.308 C 
ATOM      3  O   UNL     1       0.063   4.609   0.019  0.00  0.00    -0.252 OA
ATOM      4  N   UNL     1      -2.088   4.116   0.269  0.00  0.00    -0.268 N 
ATOM      5  C   UNL     1      -3.163   3.112   0.370  0.00  0.00    +0.148 C 
ATOM      6  C   UNL     1      -4.204   3.474   1.407  0.00  0.00    +0.005 A 
ATOM      7  C   UNL     1      -4.363   2.766   2.616  0.00  0.00    -0.030 A 
ATOM      8  C   UNL     1      -5.351   3.169   3.458  0.00  0.00    -0.005 A 
ATOM      9  S   UNL     1      -6.085   4.552   2.622  0.00  0.00    -0.075 S 
ATOM     10  C   UNL     1      -5.042   4.525   1.196  0.00  0.00    +0.090 A 
ATOM     11  N   UNL     1      -4.992   5.351   0.080  0.00  0.00    -0.312 N 
ATOM     12  C   UNL     1      -5.966   5.822  -0.732  0.00  0.00    +0.092 A 
ATOM     13  C   UNL     1      -5.378   6.532  -1.722  0.00  0.00    +0.020 A 
ATOM     14  C   UNL     1      -3.985   6.511  -1.492  0.00  0.00    +0.025 A 
ATOM     15  C   UNL     1      -3.774   5.804  -0.371  0.00  0.00    +0.049 A 
ATOM     16  C   UNL     1      -2.492   5.539   0.367  0.00  0.00    +0.155 C 
ATOM     17  C   UNL     1      -5.721   2.579   4.779  0.00  0.00    +0.043 C 
ATOM     18  C   UNL     1      -5.039   1.208   4.904  0.00  0.00    +0.005 C 
ATOM     19  C   UNL     1      -3.570   1.352   4.496  0.00  0.00    +0.005 C 
ATOM     20  C   UNL     1      -3.467   1.588   2.989  0.00  0.00    +0.036 C 
ATOM     21  H   UNL     1      -1.256   1.685   0.011  0.00  0.00    +0.156 HD
ENDROOT
BRANCH   1  28
ATOM     22  C   UNL     1       0.273  -0.088   1.064  0.00  0.00    +0.045 C 
ATOM     23  C   UNL     1       1.281   0.843   0.443  0.00  0.00    -0.029 A 
ATOM     24  C   UNL     1       2.610   0.472   0.366  0.00  0.00    +0.005 A 
ATOM     25  C   UNL     1       3.536   1.326  -0.203  0.00  0.00    +0.000 A 
ATOM     26  C   UNL     1       3.136   2.554  -0.697  0.00  0.00    +0.002 A 
ATOM     27  C   UNL     1       1.810   2.932  -0.623  0.00  0.00    +0.023 A 
ATOM     28  C   UNL     1       0.877   2.076  -0.051  0.00  0.00    +0.038 A 
ENDBRANCH   1  28
BRANCH  16  29
ATOM     29  C   UNL     1      -2.673   5.898   1.819  0.00  0.00    -0.021 A 
ATOM     30  C   UNL     1      -3.518   6.933   2.175  0.00  0.00    +0.006 A 
ATOM     31  C   UNL     1      -3.687   7.259   3.508  0.00  0.00    +0.000 A 
ATOM     32  C   UNL     1      -3.005   6.558   4.484  0.00  0.00    +0.000 A 
ATOM     33  C   UNL     1      -2.156   5.526   4.128  0.00  0.00    +0.000 A 
ATOM     34  C   UNL     1      -1.990   5.197   2.795  0.00  0.00    +0.006 A 
ENDBRANCH  16  29
TORSDOF 2
