REMARK  Name = ZINC09581641
REMARK  10 active torsions:
REMARK  status: ('A' for Active; 'I' for Inactive)
REMARK    1  A    between atoms: C_1  and  C_2
REMARK    2  A    between atoms: C_2  and  O_3
REMARK    3  A    between atoms: O_3  and  C_4
REMARK    4  A    between atoms: C_4  and  C_6
REMARK    5  A    between atoms: C_6  and  C_7
REMARK    6  A    between atoms: C_7  and  N_8
REMARK    7  A    between atoms: C_12  and  S_30
REMARK    8  A    between atoms: N_17  and  C_18
REMARK    9  A    between atoms: C_18  and  C_20
REMARK   10  A    between atoms: S_30  and  N_33
REMARK                            x       y       z     vdW  Elec       q    Type
REMARK                         _______ _______ _______ _____ _____    ______ ____
ROOT
ATOM      1  N   UNL     1      -3.805  -2.367  -0.188  0.00  0.00    -0.321 N 
ATOM      2  C   UNL     1      -5.082  -2.897  -0.167  0.00  0.00    +0.058 A 
ATOM      3  C   UNL     1      -5.468  -4.244  -0.257  0.00  0.00    +0.029 A 
ATOM      4  C   UNL     1      -6.795  -4.598  -0.220  0.00  0.00    +0.030 A 
ATOM      5  C   UNL     1      -7.790  -3.644  -0.092  0.00  0.00    +0.106 A 
ATOM      6  C   UNL     1      -7.439  -2.308  -0.002  0.00  0.00    +0.045 A 
ATOM      7  C   UNL     1      -6.111  -1.952  -0.039  0.00  0.00    +0.041 A 
ATOM      8  S   UNL     1      -5.239  -0.409   0.049  0.00  0.00    -0.052 S 
ATOM      9  C   UNL     1      -3.623  -1.022  -0.088  0.00  0.00    +0.167 A 
ATOM     10  N   UNL     1      -2.482  -0.344  -0.090  0.00  0.00    -0.152 NA
ENDROOT
BRANCH   5  11
ATOM     11  S   UNL     1      -9.485  -4.124  -0.046  0.00  0.00    +0.056 S 
ATOM     12  O   UNL     1      -9.513  -5.473   0.399  0.00  0.00    -0.153 OA
ATOM     13  O   UNL     1     -10.183  -3.085   0.627  0.00  0.00    -0.153 OA
BRANCH  11  14
ATOM     14  N   UNL     1     -10.036  -4.129  -1.608  0.00  0.00    -0.204 NA
ATOM     15  H   UNL     1     -11.095  -4.425  -1.623  0.00  0.00    +0.144 HD
ATOM     16  H   UNL     1      -9.447  -4.844  -2.202  0.00  0.00    +0.144 HD
ENDBRANCH  11  14
ENDBRANCH   5  11
BRANCH  10  17
ATOM     17  C   UNL     1      -2.496   0.990   0.019  0.00  0.00    +0.270 C 
ATOM     18  O   UNL     1      -3.557   1.582   0.119  0.00  0.00    -0.268 OA
BRANCH  17  19
ATOM     19  C   UNL     1      -1.226   1.745   0.017  0.00  0.00    +0.046 A 
ATOM     20  C   UNL     1      -0.013   1.076   0.027  0.00  0.00    +0.014 A 
ATOM     21  C   UNL     1       1.185   1.780   0.020  0.00  0.00    +0.001 A 
ATOM     22  C   UNL     1       1.202   3.142   0.008  0.00  0.00    +0.008 A 
ATOM     23  C   UNL     1      -0.005   3.862   0.004  0.00  0.00    -0.017 A 
ATOM     24  C   UNL     1      -1.235   3.162   0.011  0.00  0.00    -0.006 A 
ATOM     25  C   UNL     1      -2.438   3.881   0.006  0.00  0.00    +0.009 A 
ATOM     26  C   UNL     1      -2.410   5.243  -0.007  0.00  0.00    +0.001 A 
ATOM     27  C   UNL     1      -1.200   5.934  -0.014  0.00  0.00    +0.001 A 
ATOM     28  C   UNL     1      -0.013   5.268  -0.008  0.00  0.00    +0.008 A 
ENDBRANCH  17  19
ENDBRANCH  10  17
BRANCH   1  29
ATOM     29  C   UNL     1      -2.647  -3.255  -0.319  0.00  0.00    +0.135 C 
BRANCH  29  30
ATOM     30  C   UNL     1      -2.172  -3.681   1.072  0.00  0.00    +0.142 C 
BRANCH  30  31
ATOM     31  C   UNL     1      -0.980  -4.594   0.938  0.00  0.00    +0.309 C 
ATOM     32  O   UNL     1      -0.555  -4.875  -0.158  0.00  0.00    -0.251 OA
BRANCH  31  33
ATOM     33  O   UNL     1      -0.392  -5.095   2.035  0.00  0.00    -0.465 OA
BRANCH  33  35
ATOM     34  C   UNL     1       1.284  -6.436   3.186  0.00  0.00    +0.048 C 
ATOM     35  C   UNL     1       0.751  -5.967   1.831  0.00  0.00    +0.229 C 
ENDBRANCH  33  35
ENDBRANCH  31  33
ENDBRANCH  30  31
ENDBRANCH  29  30
ENDBRANCH   1  29
TORSDOF 9
