REMARK  Name = ZINC36313880
REMARK  18 active torsions:
REMARK  status: ('A' for Active; 'I' for Inactive)
REMARK    1  A    between atoms: C_1  and  C_2
REMARK    2  A    between atoms: C_2  and  C_3
REMARK    3  A    between atoms: C_3  and  C_4
REMARK    4  A    between atoms: C_4  and  C_5
REMARK    5  A    between atoms: C_5  and  C_7
REMARK    6  A    between atoms: C_5  and  O_35
REMARK    7  A    between atoms: C_7  and  N_8
REMARK    8  A    between atoms: N_8  and  C_9
REMARK    9  A    between atoms: N_8  and  C_13
REMARK   10  A    between atoms: C_9  and  C_10
REMARK   11  A    between atoms: C_10  and  O_11
REMARK   12  A    between atoms: O_11  and  C_12
REMARK   13  A    between atoms: C_13  and  C_14
REMARK   14  A    between atoms: C_15  and  C_33
REMARK   15  A    between atoms: N_17  and  C_27
REMARK   16  A    between atoms: C_18  and  O_19
REMARK   17  A    between atoms: O_19  and  C_20
REMARK   18  A    between atoms: C_33  and  C_34
REMARK                            x       y       z     vdW  Elec       q    Type
REMARK                         _______ _______ _______ _____ _____    ______ ____
ROOT
ATOM      1  C   UNL     1       5.535  -5.380   5.117  0.00  0.00    +0.021 A 
ATOM      2  C   UNL     1       6.561  -4.439   5.248  0.00  0.00    +0.068 A 
ATOM      3  N   UNL     1       6.980  -4.454   6.488  0.00  0.00    -0.168 NA
ATOM      4  N   UNL     1       6.236  -5.407   7.195  0.00  0.00    -0.200 N 
ATOM      5  C   UNL     1       5.345  -5.963   6.330  0.00  0.00    +0.225 A 
ENDROOT
BRANCH   4   6
ATOM      6  C   UNL     1       6.380  -5.727   8.552  0.00  0.00    +0.069 A 
ATOM      7  C   UNL     1       5.257  -5.903   9.348  0.00  0.00    +0.028 A 
ATOM      8  C   UNL     1       5.402  -6.218  10.685  0.00  0.00    +0.002 A 
ATOM      9  C   UNL     1       6.665  -6.359  11.230  0.00  0.00    +0.000 A 
ATOM     10  C   UNL     1       7.786  -6.184  10.440  0.00  0.00    +0.002 A 
ATOM     11  C   UNL     1       7.647  -5.874   9.101  0.00  0.00    +0.028 A 
ENDBRANCH   4   6
BRANCH   2  12
ATOM     12  C   UNL     1       7.093  -3.557   4.149  0.00  0.00    +0.054 C 
ATOM     13  C   UNL     1       6.302  -2.248   4.117  0.00  0.00    +0.010 C 
ENDBRANCH   2  12
BRANCH   1  14
ATOM     14  C   UNL     1       4.771  -5.689   3.855  0.00  0.00    -0.036 C 
BRANCH  14  15
ATOM     15  N   UNL     1       3.674  -4.724   3.699  0.00  0.00    +0.386 N 
ATOM     16  H   UNL     1       4.040  -3.785   3.762  0.00  0.00    -0.081 HD
BRANCH  15  17
ATOM     17  C   UNL     1       3.038  -4.914   2.388  0.00  0.00    -0.047 C 
BRANCH  17  18
ATOM     18  C   UNL     1       2.004  -3.809   2.158  0.00  0.00    +0.098 C 
BRANCH  18  19
ATOM     19  O   UNL     1       0.920  -3.974   3.074  0.00  0.00    -0.394 OA
ATOM     20  H   UNL     1       0.458  -4.819   2.989  0.00  0.00    +0.210 HD
ENDBRANCH  18  19
BRANCH  18  21
ATOM     21  C   UNL     1       1.478  -3.894   0.724  0.00  0.00    +0.029 C 
BRANCH  21  22
ATOM     22  C   UNL     1       0.539  -2.717   0.455  0.00  0.00    +0.002 C 
BRANCH  22  24
ATOM     23  C   UNL     1      -0.926  -1.624  -1.249  0.00  0.00    +0.004 C 
ATOM     24  C   UNL     1       0.013  -2.802  -0.979  0.00  0.00    -0.003 C 
ENDBRANCH  22  24
ENDBRANCH  21  22
ENDBRANCH  18  21
ENDBRANCH  17  18
ENDBRANCH  15  17
BRANCH  15  25
ATOM     25  C   UNL     1       2.681  -4.934   4.761  0.00  0.00    -0.050 C 
BRANCH  25  26
ATOM     26  C   UNL     1       1.965  -6.267   4.532  0.00  0.00    +0.141 C 
BRANCH  26  27
ATOM     27  O   UNL     1       2.893  -7.341   4.699  0.00  0.00    -0.385 OA
ATOM     28  C   UNL     1       2.356  -8.627   4.387  0.00  0.00    +0.193 C 
ENDBRANCH  26  27
ENDBRANCH  25  26
ENDBRANCH  15  25
ENDBRANCH  14  15
ENDBRANCH   1  14
BRANCH   5  29
ATOM     29  O   UNL     1       4.436  -6.927   6.625  0.00  0.00    -0.438 OA
BRANCH  29  30
ATOM     30  C   UNL     1       4.854  -8.220   6.627  0.00  0.00    +0.131 A 
ATOM     31  C   UNL     1       6.157  -8.529   6.264  0.00  0.00    +0.049 A 
ATOM     32  C   UNL     1       6.580  -9.844   6.267  0.00  0.00    +0.042 A 
ATOM     33  C   UNL     1       5.705 -10.853   6.632  0.00  0.00    +0.124 A 
ATOM     34  C   UNL     1       4.405 -10.546   6.994  0.00  0.00    +0.042 A 
ATOM     35  C   UNL     1       3.980  -9.232   6.997  0.00  0.00    +0.049 A 
ATOM     36  F   UNL     1       6.121 -12.139   6.635  0.00  0.00    -0.205 F 
ENDBRANCH  29  30
ENDBRANCH   5  29
TORSDOF 15
