REMARK  Name = ZINC06149551
REMARK  15 active torsions:
REMARK  status: ('A' for Active; 'I' for Inactive)
REMARK    1  A    between atoms: C_1  and  C_2
REMARK    2  A    between atoms: C_2  and  C_3
REMARK    3  A    between atoms: C_3  and  C_4
REMARK    4  A    between atoms: C_3  and  C_5
REMARK    5  A    between atoms: C_3  and  N_6
REMARK    6  A    between atoms: C_7  and  C_11
REMARK    7  A    between atoms: C_11  and  C_13
REMARK    8  A    between atoms: C_11  and  N_77
REMARK    9  A    between atoms: C_18  and  C_25
REMARK   10  A    between atoms: C_26  and  C_27
REMARK   11  A    between atoms: C_26  and  N_77
REMARK   12  A    between atoms: C_30  and  O_33
REMARK   13  A    between atoms: O_33  and  C_34
REMARK   14  A    between atoms: C_35  and  C_36
REMARK   15  A    between atoms: C_35  and  N_77
REMARK                            x       y       z     vdW  Elec       q    Type
REMARK                         _______ _______ _______ _____ _____    ______ ____
ROOT
ATOM      1  C   UNL     1       0.879   1.566  -0.437  0.00  0.00    +0.039 C 
ENDROOT
BRANCH   1   2
ATOM      2  C   UNL     1       0.078   2.842  -0.449  0.00  0.00    +0.011 A 
ATOM      3  C   UNL     1      -1.173   2.859   0.073  0.00  0.00    +0.017 A 
ATOM      4  C   UNL     1      -1.925   4.114   0.047  0.00  0.00    -0.001 A 
ATOM      5  C   UNL     1      -3.220   4.194   0.571  0.00  0.00    +0.010 A 
ATOM      6  C   UNL     1      -3.895   5.381   0.531  0.00  0.00    +0.004 A 
ATOM      7  C   UNL     1      -3.308   6.509  -0.025  0.00  0.00    -0.048 A 
ATOM      8  C   UNL     1      -2.034   6.454  -0.547  0.00  0.00    +0.029 A 
ATOM      9  C   UNL     1      -1.327   5.257  -0.517  0.00  0.00    +0.049 A 
ATOM     10  N   UNL     1      -0.050   5.173  -1.031  0.00  0.00    -0.322 N 
ATOM     11  H   UNL     1       0.372   5.985  -1.435  0.00  0.00    +0.169 HD
ATOM     12  C   UNL     1       0.635   4.017  -0.998  0.00  0.00    +0.251 A 
ATOM     13  O   UNL     1       1.763   3.981  -1.457  0.00  0.00    -0.268 OA
ATOM     14  C   UNL     1      -4.072   7.808  -0.057  0.00  0.00    +0.044 C 
ENDBRANCH   1   2
BRANCH   1  16
ATOM     15  N   UNL     1       0.621   0.054  -2.475  0.00  0.00    -0.225 N 
ATOM     16  C   UNL     1       1.146   1.127  -1.854  0.00  0.00    +0.143 A 
ATOM     17  N   UNL     1       1.937   1.713  -2.719  0.00  0.00    -0.115 NA
ATOM     18  N   UNL     1       1.897   1.038  -3.816  0.00  0.00    -0.023 NA
ATOM     19  N   UNL     1       1.100   0.037  -3.673  0.00  0.00    -0.043 NA
BRANCH  15  20
ATOM     20  C   UNL     1      -0.319  -0.911  -1.901  0.00  0.00    +0.061 C 
ATOM     21  C   UNL     1       0.358  -1.659  -0.751  0.00  0.00    +0.036 C 
ATOM     22  C   UNL     1      -1.550  -0.171  -1.373  0.00  0.00    +0.036 C 
BRANCH  20  24
ATOM     23  C   UNL     1      -1.729  -2.917  -2.377  0.00  0.00    +0.006 C 
ATOM     24  C   UNL     1      -0.747  -1.910  -2.978  0.00  0.00    +0.026 C 
ENDBRANCH  20  24
ENDBRANCH  15  20
ENDBRANCH   1  16
BRANCH   1  25
ATOM     25  N   UNL     1       2.172   1.812   0.235  0.00  0.00    +0.394 N 
ATOM     26  H   UNL     1       2.758   2.397  -0.372  0.00  0.00    -0.080 HD
BRANCH  25  27
ATOM     27  C   UNL     1       1.950   2.518   1.514  0.00  0.00    -0.041 C 
BRANCH  27  28
ATOM     28  C   UNL     1       3.282   2.965   2.060  0.00  0.00    -0.064 A 
ATOM     29  C   UNL     1       3.926   2.203   3.017  0.00  0.00    +0.005 A 
ATOM     30  C   UNL     1       5.150   2.608   3.515  0.00  0.00    +0.046 A 
ATOM     31  C   UNL     1       5.726   3.786   3.062  0.00  0.00    +0.120 A 
ATOM     32  C   UNL     1       5.075   4.552   2.107  0.00  0.00    +0.046 A 
ATOM     33  C   UNL     1       3.854   4.140   1.608  0.00  0.00    +0.005 A 
BRANCH  31  34
ATOM     34  O   UNL     1       6.927   4.189   3.554  0.00  0.00    -0.495 OA
ATOM     35  C   UNL     1       7.540   3.350   4.536  0.00  0.00    +0.277 C 
ENDBRANCH  31  34
ENDBRANCH  27  28
ENDBRANCH  25  27
BRANCH  25  36
ATOM     36  C   UNL     1       2.866   0.529   0.481  0.00  0.00    -0.045 C 
BRANCH  36  37
ATOM     37  C   UNL     1       3.532   0.076  -0.820  0.00  0.00    +0.102 C 
ATOM     38  C   UNL     1       4.358  -1.207  -0.583  0.00  0.00    +0.032 C 
ATOM     39  C   UNL     1       5.603  -1.024  -1.479  0.00  0.00    +0.030 C 
ATOM     40  C   UNL     1       5.381   0.349  -2.153  0.00  0.00    +0.160 C 
ATOM     41  O   UNL     1       4.493   1.060  -1.262  0.00  0.00    -0.378 OA
ENDBRANCH  36  37
ENDBRANCH  25  36
ENDBRANCH   1  25
TORSDOF 10
