REMARK  Name = ZINC33838829
REMARK  11 active torsions:
REMARK  status: ('A' for Active; 'I' for Inactive)
REMARK    1  A    between atoms: C_1  and  C_2
REMARK    2  A    between atoms: C_9  and  O_43
REMARK    3  A    between atoms: C_11  and  C_42
REMARK    4  A    between atoms: C_12  and  C_41
REMARK    5  A    between atoms: C_16  and  O_25
REMARK    6  A    between atoms: C_20  and  C_23
REMARK    7  A    between atoms: C_20  and  O_24
REMARK    8  A    between atoms: O_25  and  C_26
REMARK    9  A    between atoms: C_26  and  C_28
REMARK   10  A    between atoms: C_32  and  C_34
REMARK   11  A    between atoms: C_34  and  C_35
REMARK                            x       y       z     vdW  Elec       q    Type
REMARK                         _______ _______ _______ _____ _____    ______ ____
ROOT
ATOM      1  C   UNL     1       1.091  -2.960  -2.301  0.00  0.00    +0.016 C 
ATOM      2  C   UNL     1      -0.327  -2.956  -1.749  0.00  0.00    +0.059 C 
ATOM      3  C   UNL     1      -0.289  -3.250  -0.243  0.00  0.00    +0.037 C 
ATOM      4  C   UNL     1       0.932  -2.664   0.403  0.00  0.00    -0.030 C 
ATOM      5  C   UNL     1       0.887  -1.595   1.164  0.00  0.00    -0.024 C 
ATOM      6  C   UNL     1      -0.397  -0.884   1.466  0.00  0.00    +0.064 C 
ATOM      7  C   UNL     1      -0.719  -0.949   2.968  0.00  0.00    +0.148 C 
ATOM      8  C   UNL     1      -2.114  -0.382   3.104  0.00  0.00    -0.045 C 
ATOM      9  C   UNL     1      -2.473   0.624   2.364  0.00  0.00    -0.065 C 
ATOM     10  C   UNL     1      -1.569   1.351   1.423  0.00  0.00    +0.055 C 
ATOM     11  C   UNL     1      -0.313   0.577   1.041  0.00  0.00    +0.104 C 
ATOM     12  C   UNL     1       0.030   0.640  -0.435  0.00  0.00    +0.215 C 
ATOM     13  C   UNL     1      -1.003   1.243  -1.326  0.00  0.00    +0.017 C 
ATOM     14  C   UNL     1      -1.319   0.703  -2.480  0.00  0.00    +0.014 C 
ATOM     15  C   UNL     1      -0.672  -0.588  -2.936  0.00  0.00    +0.139 C 
ATOM     16  C   UNL     1      -1.070  -1.680  -1.991  0.00  0.00    +0.171 C 
ATOM     17  O   UNL     1      -2.116  -1.518  -1.371  0.00  0.00    -0.294 OA
ATOM     18  C   UNL     1      -1.180  -0.920  -4.347  0.00  0.00    +0.054 C 
ATOM     19  C   UNL     1       0.819   1.256   1.791  0.00  0.00    +0.225 C 
ATOM     20  O   UNL     1       1.916   0.778   2.006  0.00  0.00    -0.275 OA
ATOM     21  N   UNL     1       0.437   2.490   2.151  0.00  0.00    -0.311 N 
ATOM     22  C   UNL     1      -1.018   2.649   2.037  0.00  0.00    +0.085 C 
ATOM     23  C   UNL     1      -3.908   1.065   2.477  0.00  0.00    +0.039 C 
ATOM     24  C   UNL     1      -3.064  -0.964   4.109  0.00  0.00    +0.041 C 
ATOM     25  H   UNL     1       1.056   3.331   2.498  0.00  0.00    +0.149 HD
ENDROOT
BRANCH  15  26
ATOM     26  O   UNL     1       0.733  -0.366  -3.006  0.00  0.00    -0.377 OA
ATOM     27  H   UNL     1       1.403  -1.179  -3.320  0.00  0.00    +0.211 HD
ENDBRANCH  15  26
BRANCH   7  28
ATOM     28  O   UNL     1      -0.690  -2.303   3.420  0.00  0.00    -0.387 OA
ATOM     29  H   UNL     1      -0.899  -2.535   4.474  0.00  0.00    +0.210 HD
ENDBRANCH   7  28
BRANCH  12  30
ATOM     30  O   UNL     1       1.261   1.409  -0.580  0.00  0.00    -0.456 OA
BRANCH  30  31
ATOM     31  C   UNL     1       2.387   0.719  -0.818  0.00  0.00    +0.305 C 
ATOM     32  O   UNL     1       2.369  -0.489  -0.806  0.00  0.00    -0.251 OA
ATOM     33  C   UNL     1       3.674   1.450  -1.099  0.00  0.00    +0.136 C 
ENDBRANCH  30  31
ENDBRANCH  12  30
BRANCH  22  34
ATOM     34  C   UNL     1      -1.599   2.960   3.414  0.00  0.00    +0.058 C 
BRANCH  34  35
ATOM     35  C   UNL     1      -1.054   4.277   3.903  0.00  0.00    -0.046 A 
ATOM     36  C   UNL     1       0.110   4.308   4.649  0.00  0.00    +0.004 A 
ATOM     37  C   UNL     1       0.613   5.517   5.094  0.00  0.00    +0.000 A 
ATOM     38  C   UNL     1      -0.053   6.692   4.802  0.00  0.00    +0.000 A 
ATOM     39  C   UNL     1      -1.219   6.660   4.061  0.00  0.00    +0.000 A 
ATOM     40  C   UNL     1      -1.720   5.452   3.612  0.00  0.00    +0.004 A 
ENDBRANCH  34  35
ENDBRANCH  22  34
TORSDOF 6
