REMARK  Name = ZINC19374622
REMARK  2 active torsions:
REMARK  status: ('A' for Active; 'I' for Inactive)
REMARK    1  A    between atoms: N_16  and  C_19
REMARK    2  A    between atoms: C_19  and  C_20
REMARK                            x       y       z     vdW  Elec       q    Type
REMARK                         _______ _______ _______ _____ _____    ______ ____
ROOT
ATOM      1  C   UNL     1      -1.226   1.747   0.017  0.00  0.00    +0.001 A 
ATOM      2  C   UNL     1      -0.013   1.076   0.008  0.00  0.00    +0.002 A 
ATOM      3  C   UNL     1       1.178   1.778   0.000  0.00  0.00    +0.024 A 
ATOM      4  C   UNL     1       1.157   3.161   0.008  0.00  0.00    +0.041 A 
ATOM      5  C   UNL     1      -0.072   3.846   0.034  0.00  0.00    +0.058 A 
ATOM      6  C   UNL     1      -1.264   3.126   0.036  0.00  0.00    +0.015 A 
ATOM      7  C   UNL     1      -0.058   5.320   0.073  0.00  0.00    +0.247 C 
ATOM      8  O   UNL     1      -1.052   5.939   0.400  0.00  0.00    -0.270 OA
ATOM      9  N   UNL     1       1.079   5.972  -0.260  0.00  0.00    -0.288 N 
ATOM     10  C   UNL     1       2.272   5.236  -0.652  0.00  0.00    +0.125 C 
ATOM     11  N   UNL     1       2.326   3.918  -0.024  0.00  0.00    -0.321 N 
ATOM     12  C   UNL     1       3.542   6.043  -0.317  0.00  0.00    +0.082 C 
ATOM     13  C   UNL     1       4.443   5.848  -1.551  0.00  0.00    +0.070 C 
ATOM     14  C   UNL     1       5.777   5.237  -1.124  0.00  0.00    +0.016 C 
ATOM     15  C   UNL     1       6.690   5.109  -2.346  0.00  0.00    -0.076 C 
ATOM     16  N   UNL     1       6.895   6.434  -2.945  0.00  0.00    +0.383 N 
ATOM     17  C   UNL     1       5.627   7.006  -3.418  0.00  0.00    -0.076 C 
ATOM     18  C   UNL     1       4.679   7.196  -2.231  0.00  0.00    +0.016 C 
ATOM     19  O   UNL     1       3.760   4.961  -2.449  0.00  0.00    -0.370 OA
ATOM     20  C   UNL     1       2.345   5.101  -2.188  0.00  0.00    +0.206 C 
ATOM     21  H   UNL     1       1.096   7.071  -0.231  0.00  0.00    +0.151 HD
ATOM     22  H   UNL     1       3.270   3.551   0.405  0.00  0.00    +0.148 HD
ATOM     23  H   UNL     1       7.290   7.098  -2.163  0.00  0.00    -0.081 HD
ENDROOT
BRANCH  16  24
ATOM     24  C   UNL     1       7.882   6.374  -4.031  0.00  0.00    -0.043 C 
BRANCH  24  25
ATOM     25  C   UNL     1       9.232   6.018  -3.464  0.00  0.00    -0.064 A 
ATOM     26  C   UNL     1      10.095   7.018  -3.054  0.00  0.00    +0.003 A 
ATOM     27  C   UNL     1      11.330   6.692  -2.528  0.00  0.00    +0.020 A 
ATOM     28  C   UNL     1      11.709   5.365  -2.422  0.00  0.00    +0.041 A 
ATOM     29  C   UNL     1      10.847   4.365  -2.838  0.00  0.00    +0.020 A 
ATOM     30  C   UNL     1       9.610   4.692  -3.358  0.00  0.00    +0.003 A 
ATOM     31 CL   UNL     1      13.264   4.955  -1.767  0.00  0.00    -0.084 Cl
ENDBRANCH  24  25
ENDBRANCH  16  24
TORSDOF 2
