REMARK  Name = ZINC10173406
REMARK  13 active torsions:
REMARK  status: ('A' for Active; 'I' for Inactive)
REMARK    1  A    between atoms: C_1  and  C_2
REMARK    2  A    between atoms: C_2  and  N_3
REMARK    3  A    between atoms: N_3  and  C_4
REMARK    4  A    between atoms: C_7  and  S_26
REMARK    5  A    between atoms: C_9  and  N_10
REMARK    6  A    between atoms: N_10  and  C_11
REMARK    7  A    between atoms: C_11  and  C_12
REMARK    8  A    between atoms: N_17  and  C_18
REMARK    9  A    between atoms: C_21  and  C_25
REMARK   10  A    between atoms: C_22  and  C_24
REMARK   11  A    between atoms: S_26  and  N_29
REMARK   12  A    between atoms: N_29  and  C_30
REMARK   13  A    between atoms: N_29  and  C_31
REMARK                            x       y       z     vdW  Elec       q    Type
REMARK                         _______ _______ _______ _____ _____    ______ ____
ROOT
ATOM      1  N   UNL     1       5.731   2.599  -0.400  0.00  0.00    -0.334 N 
ATOM      2  H   UNL     1       5.424   3.500  -0.584  0.00  0.00    +0.147 HD
ENDROOT
BRANCH   1   8
ATOM      3  C   UNL     1       8.030   3.340  -0.581  0.00  0.00    +0.048 A 
ATOM      4  C   UNL     1       9.387   3.059  -0.539  0.00  0.00    +0.027 A 
ATOM      5  C   UNL     1       9.818   1.772  -0.276  0.00  0.00    +0.030 A 
ATOM      6  C   UNL     1       8.900   0.762  -0.055  0.00  0.00    +0.107 A 
ATOM      7  C   UNL     1       7.545   1.035  -0.091  0.00  0.00    +0.053 A 
ATOM      8  C   UNL     1       7.103   2.321  -0.359  0.00  0.00    +0.051 A 
BRANCH   6   9
ATOM      9  S   UNL     1       9.458  -0.875   0.279  0.00  0.00    +0.060 S 
ATOM     10  O   UNL     1       8.399  -1.748  -0.090  0.00  0.00    -0.153 OA
ATOM     11  O   UNL     1      10.761  -0.982  -0.277  0.00  0.00    -0.153 OA
BRANCH   9  12
ATOM     12  N   UNL     1       9.632  -1.008   1.920  0.00  0.00    -0.183 NA
ATOM     13  C   UNL     1       8.505  -1.458   2.742  0.00  0.00    +0.131 C 
ATOM     14  C   UNL     1      10.912  -0.676   2.551  0.00  0.00    +0.131 C 
ENDBRANCH   9  12
ENDBRANCH   6   9
BRANCH   3  15
ATOM     15  N   UNL     1       7.591   4.643  -0.848  0.00  0.00    -0.343 N 
ATOM     16  H   UNL     1       6.641   4.838  -0.877  0.00  0.00    +0.146 HD
BRANCH  15  18
ATOM     17  C   UNL     1       7.829   7.025  -1.346  0.00  0.00    +0.024 C 
ATOM     18  C   UNL     1       8.566   5.711  -1.081  0.00  0.00    +0.098 C 
ENDBRANCH  15  18
ENDBRANCH   3  15
ENDBRANCH   1   8
BRANCH   1  19
ATOM     19  C   UNL     1       4.760   1.527  -0.166  0.00  0.00    +0.198 C 
BRANCH  19  20
ATOM     20  C   UNL     1       3.364   2.085  -0.265  0.00  0.00    +0.237 C 
ATOM     21  O   UNL     1       3.196   3.261  -0.507  0.00  0.00    -0.274 OA
ATOM     22  N   UNL     1       2.301   1.276  -0.085  0.00  0.00    -0.239 N 
ATOM     23  C   UNL     1       1.052   1.775  -0.173  0.00  0.00    +0.310 C 
ATOM     24  O   UNL     1       0.884   2.954  -0.416  0.00  0.00    -0.252 OA
ATOM     25  N   UNL     1      -0.011   0.966   0.007  0.00  0.00    -0.269 N 
ATOM     26  H   UNL     1       2.435   0.335   0.109  0.00  0.00    +0.159 HD
ATOM     27  H   UNL     1       0.120   0.012   0.123  0.00  0.00    +0.156 HD
BRANCH  25  28
ATOM     28  C   UNL     1      -1.304   1.502   0.022  0.00  0.00    +0.035 A 
ATOM     29  C   UNL     1      -1.524   2.773   0.536  0.00  0.00    +0.023 A 
ATOM     30  C   UNL     1      -2.800   3.301   0.543  0.00  0.00    +0.005 A 
ATOM     31  C   UNL     1      -3.860   2.561   0.050  0.00  0.00    -0.047 A 
ATOM     32  C   UNL     1      -3.644   1.293  -0.457  0.00  0.00    -0.046 A 
ATOM     33  C   UNL     1      -2.369   0.761  -0.473  0.00  0.00    +0.027 A 
ATOM     34  C   UNL     1      -4.801   0.490  -0.993  0.00  0.00    +0.044 C 
ATOM     35  C   UNL     1      -5.252   3.138   0.066  0.00  0.00    +0.044 C 
ENDBRANCH  25  28
ENDBRANCH  19  20
ENDBRANCH   1  19
TORSDOF 8
