REMARK  Name = ZINC16312061
REMARK  10 active torsions:
REMARK  status: ('A' for Active; 'I' for Inactive)
REMARK    1  A    between atoms: C_1  and  C_2
REMARK    2  A    between atoms: C_5  and  N_9
REMARK    3  A    between atoms: C_7  and  C_8
REMARK    4  A    between atoms: C_13  and  N_14
REMARK    5  A    between atoms: N_14  and  C_15
REMARK    6  A    between atoms: C_18  and  S_21
REMARK    7  A    between atoms: S_21  and  N_24
REMARK    8  A    between atoms: N_24  and  C_25
REMARK    9  A    between atoms: C_30  and  O_31
REMARK   10  A    between atoms: C_33  and  C_35
REMARK                            x       y       z     vdW  Elec       q    Type
REMARK                         _______ _______ _______ _____ _____    ______ ____
ROOT
ATOM      1  C   UNL     1       1.559 -10.491  -1.213  0.00  0.00    +0.031 A 
ATOM      2  C   UNL     1       1.861 -10.291  -2.554  0.00  0.00    +0.025 A 
ATOM      3  C   UNL     1       2.050 -11.376  -3.388  0.00  0.00    +0.030 A 
ATOM      4  C   UNL     1       1.940 -12.661  -2.888  0.00  0.00    +0.109 A 
ATOM      5  C   UNL     1       1.639 -12.864  -1.554  0.00  0.00    +0.030 A 
ATOM      6  C   UNL     1       1.454 -11.783  -0.714  0.00  0.00    +0.025 A 
ENDROOT
BRANCH   4   7
ATOM      7  S   UNL     1       2.183 -14.042  -3.955  0.00  0.00    +0.072 S 
ATOM      8  O   UNL     1       1.488 -15.134  -3.369  0.00  0.00    -0.150 OA
ATOM      9  O   UNL     1       1.915 -13.588  -5.274  0.00  0.00    -0.150 OA
BRANCH   7  10
ATOM     10  N   UNL     1       3.793 -14.423  -3.903  0.00  0.00    -0.213 N 
ATOM     11  H   UNL     1       4.327 -14.382  -4.712  0.00  0.00    +0.174 HD
BRANCH  10  12
ATOM     12  C   UNL     1       4.384 -14.804  -2.693  0.00  0.00    +0.091 A 
ATOM     13  C   UNL     1       3.667 -15.560  -1.776  0.00  0.00    +0.048 A 
ATOM     14  C   UNL     1       4.253 -15.935  -0.581  0.00  0.00    +0.043 A 
ATOM     15  C   UNL     1       5.553 -15.560  -0.297  0.00  0.00    +0.024 A 
ATOM     16  C   UNL     1       6.273 -14.806  -1.206  0.00  0.00    +0.049 A 
ATOM     17  C   UNL     1       5.695 -14.431  -2.407  0.00  0.00    +0.139 A 
ATOM     18 CL   UNL     1       3.354 -16.880   0.565  0.00  0.00    -0.083 Cl
BRANCH  17  19
ATOM     19  O   UNL     1       6.405 -13.695  -3.305  0.00  0.00    -0.505 OA
ATOM     20  H   UNL     1       6.316 -12.739  -3.187  0.00  0.00    +0.292 HD
ENDBRANCH  17  19
ENDBRANCH  10  12
ENDBRANCH   7  10
ENDBRANCH   4   7
BRANCH   1  21
ATOM     21  N   UNL     1       1.366  -9.395  -0.367  0.00  0.00    -0.320 N 
ATOM     22  H   UNL     1       1.159  -9.537   0.570  0.00  0.00    +0.152 HD
BRANCH  21  27
ATOM     23  N   UNL     1       1.126  -4.956   0.781  0.00  0.00    -0.156 N 
ATOM     24  C   UNL     1       1.448  -5.634  -0.339  0.00  0.00    +0.273 C 
ATOM     25  O   UNL     1       1.819  -5.163  -1.401  0.00  0.00    -0.268 OA
ATOM     26  C   UNL     1       1.262  -7.055  -0.020  0.00  0.00    +0.075 C 
ATOM     27  C   UNL     1       1.468  -8.141  -0.855  0.00  0.00    +0.087 C 
ATOM     28  C   UNL     1       0.809  -7.074   1.379  0.00  0.00    +0.070 C 
ATOM     29  N   UNL     1       0.753  -5.844   1.790  0.00  0.00    -0.176 NA
ATOM     30  C   UNL     1       0.474  -8.300   2.190  0.00  0.00    +0.068 C 
BRANCH  23  35
ATOM     31  C   UNL     1       1.284   0.691   1.319  0.00  0.00    +0.044 C 
ATOM     32  C   UNL     1       1.242  -0.809   1.177  0.00  0.00    -0.047 A 
ATOM     33  C   UNL     1       1.590  -1.397  -0.025  0.00  0.00    +0.005 A 
ATOM     34  C   UNL     1       1.553  -2.771  -0.160  0.00  0.00    +0.026 A 
ATOM     35  C   UNL     1       1.165  -3.562   0.914  0.00  0.00    +0.061 A 
ATOM     36  C   UNL     1       0.816  -2.968   2.120  0.00  0.00    +0.029 A 
ATOM     37  C   UNL     1       0.861  -1.593   2.249  0.00  0.00    -0.046 A 
ATOM     38  C   UNL     1       0.488  -0.948   3.559  0.00  0.00    +0.044 C 
ENDBRANCH  23  35
ENDBRANCH  21  27
ENDBRANCH   1  21
TORSDOF 7
