REMARK  Name = ZINC36612681
REMARK  12 active torsions:
REMARK  status: ('A' for Active; 'I' for Inactive)
REMARK    1  A    between atoms: C_1  and  C_2
REMARK    2  A    between atoms: C_2  and  O_3
REMARK    3  A    between atoms: O_3  and  C_4
REMARK    4  A    between atoms: C_6  and  C_15
REMARK    5  A    between atoms: C_9  and  O_10
REMARK    6  A    between atoms: O_10  and  C_11
REMARK    7  A    between atoms: C_11  and  C_12
REMARK    8  A    between atoms: C_11  and  C_13
REMARK    9  A    between atoms: C_17  and  C_30
REMARK   10  A    between atoms: C_18  and  N_29
REMARK   11  A    between atoms: C_25  and  C_27
REMARK   12  A    between atoms: C_25  and  C_28
REMARK                            x       y       z     vdW  Elec       q    Type
REMARK                         _______ _______ _______ _____ _____    ______ ____
ROOT
ATOM      1  C   UNL     1      -0.671  -4.277  -0.695  0.00  0.00    +0.101 C 
ATOM      2  C   UNL     1       0.332  -5.064  -1.491  0.00  0.00    +0.098 C 
ATOM      3  C   UNL     1       0.465  -6.400  -1.301  0.00  0.00    +0.198 C 
ATOM      4  O   UNL     1      -0.289  -7.051  -0.400  0.00  0.00    -0.445 OA
ATOM      5  C   UNL     1      -1.450  -6.519   0.028  0.00  0.00    +0.115 C 
ATOM      6  C   UNL     1      -1.695  -5.204  -0.088  0.00  0.00    +0.046 C 
ATOM      7  C   UNL     1      -2.913  -4.651   0.352  0.00  0.00    +0.164 C 
ATOM      8  O   UNL     1      -3.097  -3.455   0.246  0.00  0.00    -0.292 OA
ATOM      9  C   UNL     1      -3.990  -5.514   0.951  0.00  0.00    +0.086 C 
ATOM     10  C   UNL     1      -3.873  -6.927   0.369  0.00  0.00    -0.021 C 
ATOM     11  C   UNL     1      -2.470  -7.444   0.648  0.00  0.00    +0.081 C 
ATOM     12  C   UNL     1      -4.118  -6.884  -1.140  0.00  0.00    +0.012 C 
ATOM     13  C   UNL     1      -4.901  -7.844   1.035  0.00  0.00    +0.012 C 
ENDROOT
BRANCH   1  16
ATOM     14  C   UNL     1       0.633  -1.461   1.460  0.00  0.00    +0.163 A 
ATOM     15  C   UNL     1      -0.020  -2.150   0.450  0.00  0.00    +0.054 A 
ATOM     16  C   UNL     1       0.040  -3.530   0.404  0.00  0.00    -0.030 A 
ATOM     17  C   UNL     1       0.751  -4.226   1.363  0.00  0.00    +0.022 A 
ATOM     18  C   UNL     1       1.405  -3.546   2.374  0.00  0.00    +0.059 A 
ATOM     19  C   UNL     1       1.353  -2.161   2.422  0.00  0.00    +0.175 A 
ATOM     20  I   UNL     1       2.480  -4.606   3.826  0.00  0.00    -0.040 I 
BRANCH  14  21
ATOM     21  O   UNL     1       0.574  -0.103   1.507  0.00  0.00    -0.489 OA
BRANCH  21  23
ATOM     22  C   UNL     1      -0.135   2.063   0.703  0.00  0.00    +0.048 C 
ATOM     23  C   UNL     1      -0.184   0.549   0.487  0.00  0.00    +0.226 C 
ENDBRANCH  21  23
ENDBRANCH  14  21
BRANCH  19  24
ATOM     24  O   UNL     1       2.000  -1.489   3.412  0.00  0.00    -0.485 OA
BRANCH  24  25
ATOM     25  C   UNL     1       3.385  -1.202   3.204  0.00  0.00    +0.168 C 
ATOM     26  C   UNL     1       3.523   0.122   2.451  0.00  0.00    +0.051 C 
ATOM     27  C   UNL     1       4.093  -1.097   4.556  0.00  0.00    +0.051 C 
ENDBRANCH  24  25
ENDBRANCH  19  24
ENDBRANCH   1  16
BRANCH   3  28
ATOM     28  N   UNL     1       1.385  -7.098  -2.042  0.00  0.00    -0.328 N 
ATOM     29  H   UNL     1       1.934  -6.636  -2.695  0.00  0.00    +0.145 HD
ATOM     30  H   UNL     1       1.487  -8.054  -1.913  0.00  0.00    +0.145 HD
ENDBRANCH   3  28
BRANCH   2  31
ATOM     31  C   UNL     1       1.153  -4.398  -2.457  0.00  0.00    +0.101 C 
ATOM     32  N   UNL     1       1.804  -3.870  -3.224  0.00  0.00    -0.191 NA
ENDBRANCH   2  31
TORSDOF 7
