REMARK  Name = ZINC40853748
REMARK  10 active torsions:
REMARK  status: ('A' for Active; 'I' for Inactive)
REMARK    1  A    between atoms: C_1  and  C_2
REMARK    2  A    between atoms: C_2  and  O_3
REMARK    3  A    between atoms: O_3  and  C_4
REMARK    4  A    between atoms: C_4  and  C_6
REMARK    5  A    between atoms: C_10  and  N_11
REMARK    6  A    between atoms: N_14  and  N_15
REMARK    7  A    between atoms: C_16  and  C_17
REMARK    8  A    between atoms: C_19  and  O_25
REMARK    9  A    between atoms: C_20  and  O_24
REMARK   10  A    between atoms: O_25  and  C_26
REMARK                            x       y       z     vdW  Elec       q    Type
REMARK                         _______ _______ _______ _____ _____    ______ ____
ROOT
ATOM      1  N   UNL     1      -3.031  -2.522   2.495  0.00  0.00    -0.262 N 
ATOM      2  C   UNL     1      -3.806  -2.865   3.543  0.00  0.00    +0.324 C 
ATOM      3  O   UNL     1      -4.910  -3.338   3.354  0.00  0.00    -0.251 OA
ATOM      4  N   UNL     1      -3.357  -2.684   4.801  0.00  0.00    -0.191 N 
ATOM      5  H   UNL     1      -2.150  -2.144   2.647  0.00  0.00    +0.157 HD
ATOM      6  H   UNL     1      -3.915  -2.931   5.556  0.00  0.00    +0.179 HD
ENDROOT
BRANCH   1  11
ATOM      7  C   UNL     1      -2.842  -2.416   0.016  0.00  0.00    +0.091 A 
ATOM      8  C   UNL     1      -3.552  -2.715  -1.227  0.00  0.00    -0.021 A 
ATOM      9  C   UNL     1      -4.776  -3.241  -1.047  0.00  0.00    -0.004 A 
ATOM     10  S   UNL     1      -4.970  -3.334   0.714  0.00  0.00    -0.077 S 
ATOM     11  C   UNL     1      -3.493  -2.707   1.202  0.00  0.00    +0.088 A 
ATOM     12  C   UNL     1      -5.463  -3.525  -2.356  0.00  0.00    +0.043 C 
ATOM     13  C   UNL     1      -4.669  -2.707  -3.399  0.00  0.00    +0.010 C 
ATOM     14  C   UNL     1      -3.285  -2.598  -2.727  0.00  0.00    +0.037 C 
BRANCH   7  15
ATOM     15  C   UNL     1      -1.497  -1.838   0.006  0.00  0.00    +0.342 C 
ATOM     16  O   UNL     1      -0.522  -2.566  -0.007  0.00  0.00    -0.245 OA
BRANCH  15  17
ATOM     17  O   UNL     1      -1.339  -0.499   0.012  0.00  0.00    -0.461 OA
BRANCH  17  19
ATOM     18  C   UNL     1      -0.019   1.526   0.010  0.00  0.00    +0.048 C 
ATOM     19  C   UNL     1       0.002  -0.004   0.002  0.00  0.00    +0.229 C 
ENDBRANCH  17  19
ENDBRANCH  15  17
ENDBRANCH   7  15
ENDBRANCH   1  11
BRANCH   4  20
ATOM     20  N   UNL     1      -2.085  -2.139   5.019  0.00  0.00    -0.186 NA
ATOM     21  C   UNL     1      -1.653  -1.965   6.231  0.00  0.00    +0.138 C 
BRANCH  21  22
ATOM     22  C   UNL     1      -0.314  -1.392   6.460  0.00  0.00    -0.001 A 
ATOM     23  C   UNL     1       0.156  -1.209   7.764  0.00  0.00    +0.059 A 
ATOM     24  C   UNL     1       1.411  -0.671   7.974  0.00  0.00    +0.163 A 
ATOM     25  C   UNL     1       2.207  -0.312   6.887  0.00  0.00    +0.173 A 
ATOM     26  C   UNL     1       1.741  -0.493   5.593  0.00  0.00    +0.063 A 
ATOM     27  C   UNL     1       0.490  -1.035   5.375  0.00  0.00    +0.028 A 
ATOM     28 BR   UNL     1       2.826  -0.004   4.123  0.00  0.00    -0.046 Br
BRANCH  25  29
ATOM     29  O   UNL     1       3.441   0.217   7.096  0.00  0.00    -0.503 OA
ATOM     30  H   UNL     1       4.148  -0.441   7.145  0.00  0.00    +0.292 HD
ENDBRANCH  25  29
BRANCH  24  31
ATOM     31  O   UNL     1       1.871  -0.491   9.241  0.00  0.00    -0.491 OA
ATOM     32  C   UNL     1       1.002  -0.881  10.307  0.00  0.00    +0.277 C 
ENDBRANCH  24  31
ENDBRANCH  21  22
ENDBRANCH   4  20
TORSDOF 8
