REMARK  Name = ZINC27667417
REMARK  11 active torsions:
REMARK  status: ('A' for Active; 'I' for Inactive)
REMARK    1  A    between atoms: C_1  and  C_2
REMARK    2  A    between atoms: C_5  and  C_8
REMARK    3  A    between atoms: C_8  and  C_36
REMARK    4  A    between atoms: N_11  and  C_15
REMARK    5  A    between atoms: C_15  and  C_16
REMARK    6  A    between atoms: N_18  and  C_19
REMARK    7  A    between atoms: C_19  and  C_20
REMARK    8  A    between atoms: C_20  and  C_22
REMARK    9  A    between atoms: C_20  and  N_30
REMARK   10  A    between atoms: C_25  and  O_28
REMARK   11  A    between atoms: O_28  and  C_29
REMARK                            x       y       z     vdW  Elec       q    Type
REMARK                         _______ _______ _______ _____ _____    ______ ____
ROOT
ATOM      1  C   UNL     1      -5.253  -0.016  -2.291  0.00  0.00    +0.231 C 
ATOM      2  O   UNL     1      -4.916   0.423  -3.371  0.00  0.00    -0.274 OA
ATOM      3  N   UNL     1      -4.467   0.172  -1.212  0.00  0.00    -0.315 N 
ATOM      4  H   UNL     1      -4.772  -0.226  -0.234  0.00  0.00    +0.149 HD
ENDROOT
BRANCH   1   5
ATOM      5  C   UNL     1      -6.550  -0.771  -2.157  0.00  0.00    +0.213 C 
BRANCH   5   9
ATOM      6  C   UNL     1      -7.905  -1.483  -5.540  0.00  0.00    +0.135 C 
ATOM      7  C   UNL     1      -7.023  -1.828  -4.357  0.00  0.00    +0.251 C 
ATOM      8  O   UNL     1      -6.298  -2.792  -4.240  0.00  0.00    -0.272 OA
ATOM      9  N   UNL     1      -7.213  -0.839  -3.461  0.00  0.00    -0.215 N 
ATOM     10  C   UNL     1      -8.087   0.070  -3.908  0.00  0.00    +0.310 C 
ATOM     11  O   UNL     1      -8.422   1.053  -3.275  0.00  0.00    -0.252 OA
ATOM     12  N   UNL     1      -8.550  -0.222  -5.136  0.00  0.00    -0.281 N 
ATOM     13  C   UNL     1      -7.060  -1.277  -6.799  0.00  0.00    +0.047 C 
ATOM     14  H   UNL     1      -9.257   0.277  -5.816  0.00  0.00    +0.152 HD
BRANCH   6  19
ATOM     15  C   UNL     1     -11.862  -5.606  -6.397  0.00  0.00    +0.044 C 
ATOM     16  C   UNL     1     -10.830  -4.531  -6.174  0.00  0.00    -0.050 A 
ATOM     17  C   UNL     1     -11.112  -3.221  -6.514  0.00  0.00    +0.004 A 
ATOM     18  C   UNL     1     -10.165  -2.235  -6.309  0.00  0.00    +0.006 A 
ATOM     19  C   UNL     1      -8.937  -2.558  -5.764  0.00  0.00    -0.015 A 
ATOM     20  C   UNL     1      -8.653  -3.869  -5.429  0.00  0.00    +0.006 A 
ATOM     21  C   UNL     1      -9.602  -4.855  -5.629  0.00  0.00    +0.004 A 
ENDBRANCH   6  19
ENDBRANCH   5   9
ENDBRANCH   1   5
BRANCH   3  22
ATOM     22  C   UNL     1      -3.206   0.907  -1.343  0.00  0.00    +0.093 C 
BRANCH  22  23
ATOM     23  C   UNL     1      -2.513   0.977   0.019  0.00  0.00    -0.020 C 
BRANCH  23  24
ATOM     24  N   UNL     1      -3.431   1.561   1.006  0.00  0.00    +0.385 N 
ATOM     25  C   UNL     1      -3.801   2.933   0.634  0.00  0.00    -0.078 C 
ATOM     26  C   UNL     1      -4.866   3.455   1.600  0.00  0.00    -0.019 C 
ATOM     27  C   UNL     1      -4.312   3.425   3.028  0.00  0.00    -0.004 C 
ATOM     28  C   UNL     1      -3.890   1.994   3.373  0.00  0.00    -0.019 C 
ATOM     29  C   UNL     1      -2.853   1.514   2.355  0.00  0.00    -0.078 C 
ATOM     30  H   UNL     1      -4.351   0.957   1.014  0.00  0.00    -0.081 HD
ENDBRANCH  23  24
BRANCH  23  31
ATOM     31  C   UNL     1      -1.280   1.836  -0.089  0.00  0.00    -0.059 A 
ATOM     32  C   UNL     1      -1.359   3.089  -0.667  0.00  0.00    +0.005 A 
ATOM     33  C   UNL     1      -0.231   3.881  -0.762  0.00  0.00    +0.046 A 
ATOM     34  C   UNL     1       0.984   3.415  -0.281  0.00  0.00    +0.120 A 
ATOM     35  C   UNL     1       1.063   2.155   0.293  0.00  0.00    +0.046 A 
ATOM     36  C   UNL     1      -0.069   1.367   0.386  0.00  0.00    +0.005 A 
BRANCH  34  37
ATOM     37  O   UNL     1       2.095   4.192  -0.373  0.00  0.00    -0.495 OA
ATOM     38  C   UNL     1       3.312   3.648   0.143  0.00  0.00    +0.277 C 
ENDBRANCH  34  37
ENDBRANCH  23  31
ENDBRANCH  22  23
ENDBRANCH   3  22
TORSDOF 8
