REMARK  Name = ZINC05833573
REMARK  5 active torsions:
REMARK  status: ('A' for Active; 'I' for Inactive)
REMARK    1  A    between atoms: C_1  and  C_2
REMARK    2  A    between atoms: C_2  and  C_4
REMARK    3  A    between atoms: C_8  and  C_11
REMARK    4  A    between atoms: C_9  and  O_10
REMARK    5  A    between atoms: C_14  and  N_16
REMARK                            x       y       z     vdW  Elec       q    Type
REMARK                         _______ _______ _______ _____ _____    ______ ____
ROOT
ATOM      1  C   UNL     1       1.301   0.815   0.012  0.00  0.00    +0.047 C 
ATOM      2  C   UNL     1      -0.005   0.019   0.007  0.00  0.00    +0.033 C 
ATOM      3  C   UNL     1      -0.041   1.547   0.083  0.00  0.00    +0.083 C 
ENDROOT
BRANCH   3   4
ATOM      4  N   UNL     1      -0.414   2.152   1.364  0.00  0.00    -0.296 N 
ATOM      5  C   UNL     1      -1.269   3.193   1.393  0.00  0.00    +0.305 C 
ATOM      6  O   UNL     1      -1.731   3.630   0.357  0.00  0.00    -0.252 OA
ATOM      7  N   UNL     1      -1.613   3.749   2.572  0.00  0.00    -0.254 N 
ATOM      8  C   UNL     1      -2.577   4.756   2.613  0.00  0.00    +0.126 A 
ATOM      9  C   UNL     1      -2.846   5.403   3.813  0.00  0.00    +0.045 A 
ATOM     10  C   UNL     1      -3.802   6.404   3.839  0.00  0.00    +0.020 A 
ATOM     11  C   UNL     1      -4.465   6.717   2.660  0.00  0.00    +0.036 A 
ATOM     12  C   UNL     1      -4.150   6.029   1.504  0.00  0.00    +0.128 A 
ATOM     13  N   UNL     1      -3.230   5.083   1.509  0.00  0.00    -0.239 NA
ATOM     14 BR   UNL     1      -5.786   8.070   2.636  0.00  0.00    -0.049 Br
ATOM     15  H   UNL     1      -0.046   1.803   2.191  0.00  0.00    +0.151 HD
ATOM     16  H   UNL     1      -1.190   3.450   3.392  0.00  0.00    +0.158 HD
ENDBRANCH   3   4
BRANCH   1  21
ATOM     17  C   UNL     1       4.231   1.150   2.403  0.00  0.00    +0.059 A 
ATOM     18  C   UNL     1       3.661   0.681   3.593  0.00  0.00    +0.018 A 
ATOM     19  C   UNL     1       2.349   0.266   3.608  0.00  0.00    +0.039 A 
ATOM     20  C   UNL     1       1.587   0.310   2.448  0.00  0.00    +0.130 A 
ATOM     21  C   UNL     1       2.137   0.772   1.265  0.00  0.00    +0.035 A 
ATOM     22  C   UNL     1       3.458   1.188   1.230  0.00  0.00    +0.134 A 
ATOM     23  F   UNL     1       0.299  -0.099   2.474  0.00  0.00    -0.205 F 
BRANCH  17  25
ATOM     24  C   UNL     1       6.456   1.546   3.639  0.00  0.00    +0.092 C 
ATOM     25  C   UNL     1       5.629   1.594   2.380  0.00  0.00    +0.164 C 
ATOM     26  O   UNL     1       6.120   2.000   1.347  0.00  0.00    -0.292 OA
ENDBRANCH  17  25
BRANCH  22  27
ATOM     27  O   UNL     1       4.001   1.635   0.071  0.00  0.00    -0.506 OA
ATOM     28  H   UNL     1       3.904   2.587  -0.067  0.00  0.00    +0.292 HD
ENDBRANCH  22  27
ENDBRANCH   1  21
TORSDOF 4
