REMARK  Name = ZINC64057387
REMARK  6 active torsions:
REMARK  status: ('A' for Active; 'I' for Inactive)
REMARK    1  A    between atoms: C_1  and  C_2
REMARK    2  A    between atoms: C_14  and  C_27
REMARK    3  A    between atoms: N_17  and  C_18
REMARK    4  A    between atoms: C_18  and  C_19
REMARK    5  A    between atoms: C_19  and  C_20
REMARK    6  A    between atoms: N_25  and  C_26
REMARK                            x       y       z     vdW  Elec       q    Type
REMARK                         _______ _______ _______ _____ _____    ______ ____
ROOT
ATOM      1  C   UNL     1      -0.019   1.526   0.010  0.00  0.00    +0.026 C 
ATOM      2  C   UNL     1       0.002  -0.004   0.002  0.00  0.00    +0.080 C 
ATOM      3  C   UNL     1       0.730  -0.503  -1.249  0.00  0.00    +0.124 C 
ATOM      4  C   UNL     1       2.184  -0.071  -1.097  0.00  0.00    -0.028 C 
ATOM      5  C   UNL     1       2.491   0.606  -2.194  0.00  0.00    -0.000 A 
ATOM      6  C   UNL     1       3.756   1.194  -2.663  0.00  0.00    +0.010 A 
ATOM      7  C   UNL     1       3.708   1.846  -3.855  0.00  0.00    +0.001 A 
ATOM      8  C   UNL     1       2.543   1.970  -4.619  0.00  0.00    +0.002 A 
ATOM      9  C   UNL     1       1.338   1.456  -4.267  0.00  0.00    +0.026 A 
ATOM     10  C   UNL     1       1.262   0.743  -3.035  0.00  0.00    +0.043 A 
ATOM     11  N   UNL     1       0.240   0.127  -2.474  0.00  0.00    -0.376 N 
ATOM     12  C   UNL     1       2.964  -0.348   0.166  0.00  0.00    +0.063 C 
ATOM     13  C   UNL     1       2.060   0.090   1.333  0.00  0.00    +0.097 C 
ATOM     14  N   UNL     1       0.724  -0.497   1.186  0.00  0.00    -0.296 NA
ATOM     15  H   UNL     1      -0.672   0.097  -2.802  0.00  0.00    +0.160 HD
ENDROOT
BRANCH  12  16
ATOM     16  C   UNL     1       3.275  -1.818   0.271  0.00  0.00    -0.021 A 
ATOM     17  C   UNL     1       2.246  -2.741   0.311  0.00  0.00    +0.006 A 
ATOM     18  C   UNL     1       2.531  -4.090   0.408  0.00  0.00    +0.000 A 
ATOM     19  C   UNL     1       3.845  -4.518   0.465  0.00  0.00    +0.001 A 
ATOM     20  C   UNL     1       4.874  -3.596   0.425  0.00  0.00    +0.020 A 
ATOM     21  C   UNL     1       4.589  -2.246   0.322  0.00  0.00    +0.045 A 
ATOM     22 CL   UNL     1       5.881  -1.088   0.265  0.00  0.00    -0.083 Cl
ENDBRANCH  12  16
BRANCH  14  23
ATOM     23  C   UNL     1      -0.073  -0.308   2.405  0.00  0.00    +0.094 C 
BRANCH  23  24
ATOM     24  C   UNL     1       0.591  -1.048   3.568  0.00  0.00    +0.111 C 
BRANCH  24  25
ATOM     25  C   UNL     1      -0.227  -0.854   4.819  0.00  0.00    +0.222 C 
ATOM     26  O   UNL     1      -1.240  -0.190   4.784  0.00  0.00    -0.275 OA
ATOM     27  N   UNL     1       0.168  -1.420   5.977  0.00  0.00    -0.240 N 
ATOM     28  C   UNL     1      -0.563  -1.247   7.096  0.00  0.00    +0.306 C 
ATOM     29  O   UNL     1      -1.579  -0.580   7.060  0.00  0.00    -0.252 OA
ATOM     30  N   UNL     1      -0.168  -1.812   8.253  0.00  0.00    -0.302 N 
ATOM     31  C   UNL     1      -0.963  -1.624   9.469  0.00  0.00    +0.129 C 
ATOM     32  H   UNL     1       0.979  -1.952   6.005  0.00  0.00    +0.159 HD
ATOM     33  H   UNL     1       0.643  -2.344   8.281  0.00  0.00    +0.150 HD
ENDBRANCH  24  25
ENDBRANCH  23  24
ENDBRANCH  14  23
TORSDOF 4
