REMARK  Name = ZINC63498948
REMARK  9 active torsions:
REMARK  status: ('A' for Active; 'I' for Inactive)
REMARK    1  A    between atoms: C_4  and  C_7
REMARK    2  A    between atoms: C_7  and  O_8
REMARK    3  A    between atoms: O_8  and  C_9
REMARK    4  A    between atoms: N_11  and  C_12
REMARK    5  A    between atoms: C_12  and  C_14
REMARK    6  A    between atoms: C_12  and  C_24
REMARK    7  A    between atoms: C_14  and  C_15
REMARK    8  A    between atoms: N_26  and  N_27
REMARK    9  A    between atoms: C_28  and  C_29
REMARK                            x       y       z     vdW  Elec       q    Type
REMARK                         _______ _______ _______ _____ _____    ______ ____
ROOT
ATOM      1  C   UNL     1       6.935  -2.559   2.785  0.00  0.00    +0.168 C 
ENDROOT
BRANCH   1   4
ATOM      2  C   UNL     1       5.258  -1.863   1.160  0.00  0.00    +0.401 C 
ATOM      3  O   UNL     1       5.989  -2.264   0.277  0.00  0.00    -0.226 OA
ATOM      4  N   UNL     1       5.639  -1.965   2.449  0.00  0.00    -0.269 N 
ATOM      5  H   UNL     1       5.054  -1.645   3.154  0.00  0.00    +0.153 HD
BRANCH   2   6
ATOM      6  O   UNL     1       4.066  -1.317   0.852  0.00  0.00    -0.446 OA
BRANCH   6   7
ATOM      7  C   UNL     1       3.727  -1.241  -0.534  0.00  0.00    +0.269 C 
BRANCH   7  11
ATOM      8  C   UNL     1      -0.124   0.557  -0.963  0.00  0.00    +0.000 A 
ATOM      9  C   UNL     1       1.011   1.347  -0.959  0.00  0.00    +0.000 A 
ATOM     10  C   UNL     1       2.257   0.765  -0.820  0.00  0.00    +0.007 A 
ATOM     11  C   UNL     1       2.368  -0.607  -0.685  0.00  0.00    -0.010 A 
ATOM     12  C   UNL     1       1.233  -1.396  -0.688  0.00  0.00    +0.007 A 
ATOM     13  C   UNL     1      -0.013  -0.814  -0.829  0.00  0.00    +0.000 A 
ENDBRANCH   7  11
ENDBRANCH   6   7
ENDBRANCH   2   6
ENDBRANCH   1   4
BRANCH   1  14
ATOM     14  C   UNL     1       7.438  -1.969   4.077  0.00  0.00    +0.253 C 
ATOM     15  O   UNL     1       6.778  -1.135   4.661  0.00  0.00    -0.272 OA
ATOM     16  N   UNL     1       8.621  -2.369   4.585  0.00  0.00    -0.205 N 
ATOM     17  H   UNL     1       9.148  -3.036   4.118  0.00  0.00    +0.177 HD
BRANCH  16  18
ATOM     18  N   UNL     1       9.088  -1.821   5.787  0.00  0.00    -0.188 NA
ATOM     19  C   UNL     1      10.227  -2.206   6.275  0.00  0.00    +0.138 C 
BRANCH  19  20
ATOM     20  C   UNL     1      10.719  -1.629   7.540  0.00  0.00    -0.005 A 
ATOM     21  C   UNL     1       9.959  -0.672   8.217  0.00  0.00    +0.012 A 
ATOM     22  C   UNL     1      10.424  -0.137   9.399  0.00  0.00    +0.039 A 
ATOM     23  C   UNL     1      11.644  -0.545   9.916  0.00  0.00    +0.123 A 
ATOM     24  C   UNL     1      12.402  -1.494   9.249  0.00  0.00    +0.039 A 
ATOM     25  C   UNL     1      11.945  -2.041   8.069  0.00  0.00    +0.012 A 
ATOM     26  F   UNL     1      12.095  -0.017  11.075  0.00  0.00    -0.205 F 
ENDBRANCH  19  20
ENDBRANCH  16  18
ENDBRANCH   1  14
BRANCH   1  27
ATOM     27  C   UNL     1       6.777  -4.072   2.942  0.00  0.00    +0.065 C 
BRANCH  27  28
ATOM     28  C   UNL     1       5.772  -4.363   4.026  0.00  0.00    -0.039 C 
ATOM     29  C   UNL     1       4.450  -4.600   3.867  0.00  0.00    -0.001 A 
ATOM     30  C   UNL     1       3.585  -4.654   2.682  0.00  0.00    +0.010 A 
ATOM     31  C   UNL     1       2.268  -4.918   2.842  0.00  0.00    +0.001 A 
ATOM     32  C   UNL     1       1.710  -5.141   4.109  0.00  0.00    +0.002 A 
ATOM     33  C   UNL     1       2.441  -5.107   5.243  0.00  0.00    +0.026 A 
ATOM     34  C   UNL     1       3.836  -4.838   5.192  0.00  0.00    +0.043 A 
ATOM     35  N   UNL     1       4.744  -4.753   6.135  0.00  0.00    -0.380 N 
ATOM     36  C   UNL     1       6.038  -4.456   5.512  0.00  0.00    +0.144 C 
ATOM     37  H   UNL     1       4.586  -4.870   7.085  0.00  0.00    +0.160 HD
ENDBRANCH  27  28
ENDBRANCH   1  27
TORSDOF 9
