REMARK  Name = ZINC12630117
REMARK  15 active torsions:
REMARK  status: ('A' for Active; 'I' for Inactive)
REMARK    1  A    between atoms: C_1  and  C_2
REMARK    2  A    between atoms: C_5  and  N_12
REMARK    3  A    between atoms: C_8  and  C_10
REMARK    4  A    between atoms: C_8  and  C_11
REMARK    5  A    between atoms: N_15  and  C_16
REMARK    6  A    between atoms: C_16  and  C_17
REMARK    7  A    between atoms: C_17  and  C_18
REMARK    8  A    between atoms: C_18  and  C_19
REMARK    9  A    between atoms: C_19  and  C_20
REMARK   10  A    between atoms: C_20  and  C_21
REMARK   11  A    between atoms: C_21  and  N_22
REMARK   12  A    between atoms: N_25  and  C_26
REMARK   13  A    between atoms: C_29  and  C_36
REMARK   14  A    between atoms: C_32  and  C_34
REMARK   15  A    between atoms: C_32  and  C_35
REMARK                            x       y       z     vdW  Elec       q    Type
REMARK                         _______ _______ _______ _____ _____    ______ ____
ROOT
ATOM      1  C   UNL     1      -1.415  -3.100  -7.477  0.00  0.00    +0.002 C 
ENDROOT
BRANCH   1   2
ATOM      2  C   UNL     1      -0.887  -3.488  -6.094  0.00  0.00    +0.019 C 
BRANCH   2   3
ATOM      3  C   UNL     1      -1.778  -2.869  -5.016  0.00  0.00    +0.106 C 
BRANCH   3   7
ATOM      4  N   UNL     1      -1.438  -3.148  -1.365  0.00  0.00    -0.297 N 
ATOM      5  C   UNL     1      -1.903  -2.806  -2.583  0.00  0.00    +0.300 C 
ATOM      6  O   UNL     1      -2.892  -2.106  -2.681  0.00  0.00    -0.253 OA
ATOM      7  N   UNL     1      -1.272  -3.241  -3.692  0.00  0.00    -0.299 N 
ATOM      8  H   UNL     1      -0.648  -3.707  -1.287  0.00  0.00    +0.151 HD
ATOM      9  H   UNL     1      -0.483  -3.800  -3.614  0.00  0.00    +0.150 HD
BRANCH   4  13
ATOM     10  C   UNL     1      -0.028  -4.625   2.416  0.00  0.00    +0.007 C 
ATOM     11  C   UNL     1      -0.924  -4.397   1.197  0.00  0.00    -0.012 C 
ATOM     12  C   UNL     1      -1.227  -2.903   1.059  0.00  0.00    +0.025 C 
ATOM     13  C   UNL     1      -2.123  -2.675  -0.160  0.00  0.00    +0.075 C 
ATOM     14  C   UNL     1      -3.432  -3.447   0.018  0.00  0.00    +0.028 C 
ATOM     15  C   UNL     1      -3.129  -4.941   0.156  0.00  0.00    -0.033 C 
ATOM     16  C   UNL     1      -2.233  -5.169   1.375  0.00  0.00    +0.009 C 
ATOM     17  C   UNL     1      -2.413  -5.434  -1.103  0.00  0.00    +0.011 C 
ATOM     18  C   UNL     1      -4.438  -5.713   0.334  0.00  0.00    +0.011 C 
ENDBRANCH   4  13
ENDBRANCH   3   7
ENDBRANCH   2   3
ENDBRANCH   1   2
BRANCH   1  19
ATOM     19  C   UNL     1      -0.524  -3.719  -8.556  0.00  0.00    +0.002 C 
BRANCH  19  20
ATOM     20  C   UNL     1      -1.052  -3.331  -9.938  0.00  0.00    +0.019 C 
BRANCH  20  21
ATOM     21  C   UNL     1      -0.161  -3.950 -11.017  0.00  0.00    +0.106 C 
BRANCH  21  22
ATOM     22  N   UNL     1      -0.667  -3.579 -12.341  0.00  0.00    -0.299 N 
ATOM     23  C   UNL     1      -0.036  -4.014 -13.449  0.00  0.00    +0.300 C 
ATOM     24  O   UNL     1       0.953  -4.714 -13.351  0.00  0.00    -0.253 OA
ATOM     25  N   UNL     1      -0.502  -3.672 -14.667  0.00  0.00    -0.297 N 
ATOM     26  H   UNL     1      -1.456  -3.020 -12.419  0.00  0.00    +0.150 HD
ATOM     27  H   UNL     1      -1.291  -3.113 -14.746  0.00  0.00    +0.151 HD
BRANCH  25  28
ATOM     28  C   UNL     1       0.184  -4.144 -15.873  0.00  0.00    +0.075 C 
ATOM     29  C   UNL     1      -0.715  -3.921 -17.091  0.00  0.00    +0.025 C 
ATOM     30  C   UNL     1      -1.023  -2.429 -17.231  0.00  0.00    -0.012 C 
ATOM     31  C   UNL     1       0.284  -1.654 -17.412  0.00  0.00    +0.009 C 
ATOM     32  C   UNL     1       1.182  -1.876 -16.194  0.00  0.00    -0.033 C 
ATOM     33  C   UNL     1       1.490  -3.369 -16.053  0.00  0.00    +0.028 C 
ATOM     34  C   UNL     1       0.466  -1.383 -14.935  0.00  0.00    +0.011 C 
ATOM     35  C   UNL     1       2.488  -1.101 -16.375  0.00  0.00    +0.011 C 
ATOM     36  C   UNL     1      -1.921  -2.207 -18.449  0.00  0.00    +0.007 C 
ENDBRANCH  25  28
ENDBRANCH  21  22
ENDBRANCH  20  21
ENDBRANCH  19  20
ENDBRANCH   1  19
TORSDOF 9
