REMARK  Name = ZINC34912479
REMARK  5 active torsions:
REMARK  status: ('A' for Active; 'I' for Inactive)
REMARK    1  A    between atoms: C_4  and  C_7
REMARK    2  A    between atoms: C_7  and  C_8
REMARK    3  A    between atoms: C_14  and  C_16
REMARK    4  A    between atoms: N_19  and  C_22
REMARK    5  A    between atoms: N_30  and  C_31
REMARK                            x       y       z     vdW  Elec       q    Type
REMARK                         _______ _______ _______ _____ _____    ______ ____
ROOT
ATOM      1  C   UNL     1       6.768  -4.270   4.077  0.00  0.00    +0.072 C 
ATOM      2  C   UNL     1       7.740  -3.292   4.742  0.00  0.00    -0.006 C 
ATOM      3  C   UNL     1       9.152  -3.879   4.702  0.00  0.00    -0.078 C 
ATOM      4  N   UNL     1       9.175  -5.158   5.422  0.00  0.00    +0.382 N 
ATOM      5  C   UNL     1       8.299  -6.124   4.748  0.00  0.00    -0.078 C 
ATOM      6  C   UNL     1       6.854  -5.623   4.789  0.00  0.00    -0.006 C 
ATOM      7  H   UNL     1       8.852  -5.016   6.368  0.00  0.00    -0.081 HD
ENDROOT
BRANCH   4   8
ATOM      8  C   UNL     1      10.548  -5.679   5.449  0.00  0.00    -0.066 C 
ATOM      9  C   UNL     1      11.460  -4.676   6.158  0.00  0.00    +0.004 C 
ATOM     10  C   UNL     1      12.897  -5.207   6.154  0.00  0.00    +0.108 C 
ATOM     11  N   UNL     1      12.906  -6.552   6.743  0.00  0.00    -0.286 N 
ATOM     12  C   UNL     1      11.999  -7.570   6.195  0.00  0.00    +0.108 C 
ATOM     13  C   UNL     1      10.572  -7.013   6.199  0.00  0.00    +0.004 C 
ATOM     14  C   UNL     1      13.731  -6.848   7.768  0.00  0.00    +0.302 C 
ATOM     15  O   UNL     1      14.409  -5.974   8.274  0.00  0.00    -0.253 OA
ATOM     16  N   UNL     1      13.804  -8.111   8.231  0.00  0.00    -0.296 N 
ATOM     17  H   UNL     1      13.211  -8.793   7.877  0.00  0.00    +0.151 HD
BRANCH  16  18
ATOM     18  C   UNL     1      14.778  -8.455   9.270  0.00  0.00    +0.074 C 
ATOM     19  C   UNL     1      14.188  -8.140  10.646  0.00  0.00    +0.022 C 
ATOM     20  C   UNL     1      15.205  -8.499  11.731  0.00  0.00    +0.002 C 
ATOM     21  C   UNL     1      15.536  -9.991  11.647  0.00  0.00    +0.000 C 
ATOM     22  C   UNL     1      16.125 -10.306  10.271  0.00  0.00    +0.002 C 
ATOM     23  C   UNL     1      15.108  -9.947   9.186  0.00  0.00    +0.022 C 
ENDBRANCH  16  18
ENDBRANCH   4   8
BRANCH   1  30
ATOM     24  C   UNL     1       3.994  -1.402   1.089  0.00  0.00    -0.004 C 
ATOM     25  C   UNL     1       3.060  -2.248   1.956  0.00  0.00    +0.023 C 
ATOM     26  C   UNL     1       3.575  -2.256   3.399  0.00  0.00    +0.108 C 
ATOM     27  N   UNL     1       4.973  -2.708   3.399  0.00  0.00    -0.301 N 
ATOM     28  C   UNL     1       5.938  -2.021   2.530  0.00  0.00    +0.108 C 
ATOM     29  C   UNL     1       5.396  -2.016   1.097  0.00  0.00    +0.023 C 
ATOM     30  C   UNL     1       5.363  -3.734   4.181  0.00  0.00    +0.219 C 
ATOM     31  O   UNL     1       4.583  -4.226   4.969  0.00  0.00    -0.275 OA
BRANCH  24  32
ATOM     32  C   UNL     1       3.463  -1.364  -0.345  0.00  0.00    +0.038 C 
BRANCH  32  36
ATOM     33  C   UNL     1      -0.297   0.662  -0.420  0.00  0.00    +0.000 A 
ATOM     34  C   UNL     1       0.875   1.375  -0.588  0.00  0.00    +0.000 A 
ATOM     35  C   UNL     1       2.092   0.719  -0.564  0.00  0.00    +0.003 A 
ATOM     36  C   UNL     1       2.137  -0.649  -0.371  0.00  0.00    -0.047 A 
ATOM     37  C   UNL     1       0.964  -1.362  -0.202  0.00  0.00    +0.003 A 
ATOM     38  C   UNL     1      -0.253  -0.706  -0.228  0.00  0.00    +0.000 A 
ENDBRANCH  32  36
ENDBRANCH  24  32
ENDBRANCH   1  30
TORSDOF 5
