REMARK  Name = ZINC20736269
REMARK  8 active torsions:
REMARK  status: ('A' for Active; 'I' for Inactive)
REMARK    1  A    between atoms: C_1  and  C_2
REMARK    2  A    between atoms: C_2  and  N_3
REMARK    3  A    between atoms: C_7  and  C_9
REMARK    4  A    between atoms: C_9  and  N_10
REMARK    5  A    between atoms: C_11  and  C_13
REMARK    6  A    between atoms: N_19  and  C_31
REMARK    7  A    between atoms: C_23  and  C_24
REMARK    8  A    between atoms: C_31  and  C_32
REMARK                            x       y       z     vdW  Elec       q    Type
REMARK                         _______ _______ _______ _____ _____    ______ ____
ROOT
ATOM      1  C   UNL     1       7.548   4.840  -2.101  0.00  0.00    +0.039 A 
ATOM      2  C   UNL     1       6.637   5.838  -1.741  0.00  0.00    +0.014 A 
ATOM      3  C   UNL     1       5.761   5.619  -0.701  0.00  0.00    +0.017 A 
ATOM      4  C   UNL     1       5.783   4.412  -0.013  0.00  0.00    +0.034 A 
ATOM      5  C   UNL     1       6.686   3.402  -0.361  0.00  0.00    +0.051 A 
ATOM      6  C   UNL     1       7.568   3.627  -1.411  0.00  0.00    +0.037 A 
ATOM      7  N   UNL     1       6.741   2.179   0.297  0.00  0.00    -0.262 N 
ATOM      8  C   UNL     1       5.776   1.630   1.040  0.00  0.00    +0.258 C 
ATOM      9  O   UNL     1       5.924   0.508   1.487  0.00  0.00    -0.269 OA
ATOM     10  C   UNL     1       4.529   2.374   1.323  0.00  0.00    +0.076 C 
ATOM     11  C   UNL     1       3.356   1.740   1.567  0.00  0.00    +0.028 C 
ATOM     12  S   UNL     1       4.656   4.143   1.317  0.00  0.00    -0.082 S 
ENDROOT
BRANCH  11  13
ATOM     13  C   UNL     1       2.187   2.507   2.023  0.00  0.00    -0.024 A 
ATOM     14  C   UNL     1       0.902   2.143   1.608  0.00  0.00    +0.008 A 
ATOM     15  C   UNL     1      -0.189   2.870   2.036  0.00  0.00    +0.001 A 
ATOM     16  C   UNL     1      -0.015   3.951   2.882  0.00  0.00    +0.000 A 
ATOM     17  C   UNL     1       1.254   4.318   3.298  0.00  0.00    +0.001 A 
ATOM     18  C   UNL     1       2.355   3.605   2.874  0.00  0.00    +0.008 A 
ENDBRANCH  11  13
BRANCH   1  20
ATOM     19  N   UNL     1       8.471   6.239  -3.881  0.00  0.00    -0.313 N 
ATOM     20  C   UNL     1       8.489   5.069  -3.213  0.00  0.00    +0.244 C 
ATOM     21  O   UNL     1       9.281   4.202  -3.527  0.00  0.00    -0.270 OA
ATOM     22  H   UNL     1       7.754   7.024  -3.597  0.00  0.00    +0.149 HD
BRANCH  19  23
ATOM     23  C   UNL     1       9.405   6.467  -4.986  0.00  0.00    +0.089 C 
BRANCH  23  28
ATOM     24  N   UNL     1       7.757   7.808  -6.233  0.00  0.00    +0.382 N 
ATOM     25  C   UNL     1       7.856   8.634  -7.467  0.00  0.00    -0.078 C 
ATOM     26  C   UNL     1       9.243   8.253  -8.042  0.00  0.00    -0.020 C 
ATOM     27  C   UNL     1      10.111   8.088  -6.773  0.00  0.00    -0.016 C 
ATOM     28  C   UNL     1       9.109   7.821  -5.633  0.00  0.00    -0.051 C 
ATOM     29  H   UNL     1       7.420   6.784  -6.451  0.00  0.00    -0.081 HD
BRANCH  24  31
ATOM     30  C   UNL     1       5.420   8.508  -6.020  0.00  0.00    -0.017 C 
ATOM     31  C   UNL     1       6.764   8.360  -5.303  0.00  0.00    -0.082 C 
ENDBRANCH  24  31
ENDBRANCH  23  28
ENDBRANCH  19  23
ENDBRANCH   1  20
BRANCH   7  32
ATOM     32  C   UNL     1       7.983   1.415   0.162  0.00  0.00    +0.149 C 
BRANCH  32  33
ATOM     33  C   UNL     1       8.944   1.822   1.250  0.00  0.00    -0.030 A 
ATOM     34  C   UNL     1       9.758   2.925   1.074  0.00  0.00    +0.008 A 
ATOM     35  C   UNL     1      10.635   3.303   2.073  0.00  0.00    +0.038 A 
ATOM     36  C   UNL     1      10.707   2.568   3.245  0.00  0.00    +0.123 A 
ATOM     37  C   UNL     1       9.895   1.460   3.417  0.00  0.00    +0.038 A 
ATOM     38  C   UNL     1       9.014   1.088   2.419  0.00  0.00    +0.008 A 
ATOM     39  F   UNL     1      11.569   2.933   4.219  0.00  0.00    -0.205 F 
ENDBRANCH  32  33
ENDBRANCH   7  32
TORSDOF 7
