REMARK  Name = ZINC38509854
REMARK  13 active torsions:
REMARK  status: ('A' for Active; 'I' for Inactive)
REMARK    1  A    between atoms: C_1  and  C_2
REMARK    2  A    between atoms: C_2  and  C_3
REMARK    3  A    between atoms: C_3  and  C_4
REMARK    4  A    between atoms: C_4  and  N_5
REMARK    5  A    between atoms: C_6  and  N_33
REMARK    6  A    between atoms: C_8  and  N_15
REMARK    7  A    between atoms: N_15  and  C_16
REMARK    8  A    between atoms: C_16  and  C_17
REMARK    9  A    between atoms: C_17  and  C_18
REMARK   10  A    between atoms: C_17  and  C_19
REMARK   11  A    between atoms: C_20  and  C_22
REMARK   12  A    between atoms: C_22  and  C_23
REMARK   13  A    between atoms: C_23  and  C_24
REMARK                            x       y       z     vdW  Elec       q    Type
REMARK                         _______ _______ _______ _____ _____    ______ ____
ROOT
ATOM      1  N   UNL     1       5.224  -2.852   3.836  0.00  0.00    -0.290 N 
ATOM      2  C   UNL     1       5.559  -4.137   3.608  0.00  0.00    +0.216 C 
ATOM      3  O   UNL     1       4.703  -4.997   3.613  0.00  0.00    -0.276 OA
ENDROOT
BRANCH   1   6
ATOM      4  N   UNL     1       1.663  -2.555   2.825  0.00  0.00    -0.296 N 
ATOM      5  C   UNL     1       3.114  -2.610   2.623  0.00  0.00    +0.047 C 
ATOM      6  C   UNL     1       3.815  -2.475   3.976  0.00  0.00    +0.167 C 
ATOM      7  C   UNL     1       3.147  -3.385   4.975  0.00  0.00    +0.261 C 
ATOM      8  O   UNL     1       3.876  -3.955   5.949  0.00  0.00    -0.272 OA
ATOM      9  N   UNL     1       1.868  -3.623   4.902  0.00  0.00    -0.126 NA
ATOM     10  C   UNL     1       1.111  -3.097   3.924  0.00  0.00    +0.327 C 
ATOM     11  O   UNL     1      -0.101  -3.116   4.035  0.00  0.00    -0.250 OA
BRANCH   5  12
ATOM     12  N   UNL     1       3.475  -3.893   2.006  0.00  0.00    +0.392 N 
ATOM     13  H   UNL     1       3.009  -3.981   1.115  0.00  0.00    -0.087 HD
ATOM     14  H   UNL     1       4.474  -3.930   1.867  0.00  0.00    -0.087 HD
ATOM     15  H   UNL     1       3.191  -4.649   2.611  0.00  0.00    -0.087 HD
ENDBRANCH   5  12
BRANCH   4  16
ATOM     16  C   UNL     1       0.811  -1.902   1.828  0.00  0.00    +0.107 C 
BRANCH  16  17
ATOM     17  C   UNL     1       0.665  -0.419   2.175  0.00  0.00    +0.019 C 
BRANCH  17  19
ATOM     18  C   UNL     1      -0.370   1.746   1.480  0.00  0.00    +0.004 C 
ATOM     19  C   UNL     1      -0.224   0.263   1.133  0.00  0.00    -0.002 C 
ENDBRANCH  17  19
ENDBRANCH  16  17
ENDBRANCH   4  16
ENDBRANCH   1   6
BRANCH   1  20
ATOM     20  C   UNL     1       6.269  -1.831   3.945  0.00  0.00    +0.111 C 
BRANCH  20  21
ATOM     21  C   UNL     1       6.604  -1.598   5.419  0.00  0.00    +0.000 C 
ATOM     22  C   UNL     1       7.236  -2.862   6.005  0.00  0.00    +0.009 C 
ATOM     23  C   UNL     1       7.588  -0.432   5.541  0.00  0.00    +0.009 C 
ENDBRANCH  20  21
ENDBRANCH   1  20
BRANCH   2  24
ATOM     24  C   UNL     1       6.996  -4.507   3.347  0.00  0.00    +0.101 C 
BRANCH  24  25
ATOM     25  C   UNL     1       7.083  -5.990   2.982  0.00  0.00    +0.046 C 
BRANCH  25  26
ATOM     26  C   UNL     1       8.521  -6.360   2.721  0.00  0.00    -0.022 A 
ATOM     27  C   UNL     1       9.517  -6.747   3.722  0.00  0.00    +0.003 A 
ATOM     28  C   UNL     1       9.490  -6.895   5.110  0.00  0.00    +0.010 A 
ATOM     29  C   UNL     1      10.621  -7.283   5.773  0.00  0.00    +0.001 A 
ATOM     30  C   UNL     1      11.796  -7.531   5.077  0.00  0.00    +0.002 A 
ATOM     31  C   UNL     1      11.844  -7.391   3.707  0.00  0.00    +0.026 A 
ATOM     32  C   UNL     1      10.705  -6.998   3.012  0.00  0.00    +0.047 A 
ATOM     33  N   UNL     1      10.437  -6.776   1.680  0.00  0.00    -0.360 N 
ATOM     34  C   UNL     1       9.129  -6.402   1.525  0.00  0.00    +0.087 A 
ATOM     35  H   UNL     1      11.078  -6.873   0.959  0.00  0.00    +0.165 HD
ENDBRANCH  25  26
ENDBRANCH  24  25
ENDBRANCH   2  24
TORSDOF 10
