REMARK  Name = ZINC24023384
REMARK  9 active torsions:
REMARK  status: ('A' for Active; 'I' for Inactive)
REMARK    1  A    between atoms: C_1  and  C_2
REMARK    2  A    between atoms: C_5  and  N_8
REMARK    3  A    between atoms: C_11  and  C_34
REMARK    4  A    between atoms: N_15  and  C_16
REMARK    5  A    between atoms: C_19  and  N_22
REMARK    6  A    between atoms: N_22  and  S_23
REMARK    7  A    between atoms: S_23  and  C_26
REMARK    8  A    between atoms: C_29  and  O_32
REMARK    9  A    between atoms: O_32  and  C_33
REMARK                            x       y       z     vdW  Elec       q    Type
REMARK                         _______ _______ _______ _____ _____    ______ ____
ROOT
ATOM      1  C   UNL     1       4.205   2.975   1.761  0.00  0.00    +0.034 A 
ATOM      2  C   UNL     1       3.095   2.143   1.699  0.00  0.00    +0.025 A 
ATOM      3  C   UNL     1       3.221   0.801   1.997  0.00  0.00    +0.026 A 
ATOM      4  C   UNL     1       4.458   0.283   2.358  0.00  0.00    +0.048 A 
ATOM      5  C   UNL     1       5.568   1.115   2.420  0.00  0.00    +0.026 A 
ATOM      6  C   UNL     1       5.442   2.457   2.122  0.00  0.00    +0.025 A 
ENDROOT
BRANCH   1  14
ATOM      7  N   UNL     1       1.486   8.242   1.200  0.00  0.00    -0.299 N 
ATOM      8  C   UNL     1       1.629   6.923   1.603  0.00  0.00    +0.128 A 
ATOM      9  C   UNL     1       0.595   6.272   2.280  0.00  0.00    +0.067 A 
ATOM     10  C   UNL     1       0.783   4.959   2.663  0.00  0.00    +0.045 A 
ATOM     11  N   UNL     1       1.927   4.357   2.375  0.00  0.00    -0.219 NA
ATOM     12  C   UNL     1       2.893   5.000   1.736  0.00  0.00    +0.221 A 
ATOM     13  N   UNL     1       2.753   6.260   1.352  0.00  0.00    -0.199 NA
ATOM     14  N   UNL     1       4.077   4.337   1.458  0.00  0.00    -0.284 N 
ATOM     15  C   UNL     1      -0.305   4.216   3.396  0.00  0.00    +0.066 C 
ATOM     16  H   UNL     1       0.519   8.752   1.322  0.00  0.00    +0.154 HD
ATOM     17  H   UNL     1       4.917   4.880   1.000  0.00  0.00    +0.155 HD
BRANCH   7  22
ATOM     18  C   UNL     1       5.884  11.005  -1.077  0.00  0.00    +0.044 C 
ATOM     19  C   UNL     1       4.715  10.271  -0.472  0.00  0.00    -0.050 A 
ATOM     20  C   UNL     1       3.756  10.968   0.240  0.00  0.00    +0.005 A 
ATOM     21  C   UNL     1       2.684  10.298   0.795  0.00  0.00    +0.023 A 
ATOM     22  C   UNL     1       2.569   8.923   0.638  0.00  0.00    +0.032 A 
ATOM     23  C   UNL     1       3.537   8.225  -0.073  0.00  0.00    +0.023 A 
ATOM     24  C   UNL     1       4.604   8.902  -0.631  0.00  0.00    +0.005 A 
ENDBRANCH   7  22
ENDBRANCH   1  14
BRANCH   4  25
ATOM     25  N   UNL     1       4.585  -1.078   2.661  0.00  0.00    -0.216 N 
ATOM     26  H   UNL     1       4.636  -1.406   3.709  0.00  0.00    +0.174 HD
BRANCH  25  27
ATOM     27  S   UNL     1       4.659  -2.194   1.440  0.00  0.00    +0.072 S 
ATOM     28  O   UNL     1       5.018  -3.430   2.041  0.00  0.00    -0.150 OA
ATOM     29  O   UNL     1       3.474  -2.036   0.672  0.00  0.00    -0.150 OA
BRANCH  27  30
ATOM     30  C   UNL     1       6.001  -1.734   0.394  0.00  0.00    +0.109 A 
ATOM     31  C   UNL     1       5.802  -0.817  -0.621  0.00  0.00    +0.032 A 
ATOM     32  C   UNL     1       6.853  -0.450  -1.439  0.00  0.00    +0.047 A 
ATOM     33  C   UNL     1       8.107  -1.012  -1.247  0.00  0.00    +0.120 A 
ATOM     34  C   UNL     1       8.303  -1.936  -0.232  0.00  0.00    +0.047 A 
ATOM     35  C   UNL     1       7.250  -2.295   0.587  0.00  0.00    +0.032 A 
BRANCH  33  36
ATOM     36  O   UNL     1       9.142  -0.657  -2.053  0.00  0.00    -0.495 OA
ATOM     37  C   UNL     1       8.868   0.300  -3.078  0.00  0.00    +0.277 C 
ENDBRANCH  33  36
ENDBRANCH  27  30
ENDBRANCH  25  27
ENDBRANCH   4  25
TORSDOF 6
