REMARK  Name = ZINC06473816
REMARK  4 active torsions:
REMARK  status: ('A' for Active; 'I' for Inactive)
REMARK    1  A    between atoms: C_4  and  N_7
REMARK    2  A    between atoms: N_14  and  N_15
REMARK    3  A    between atoms: C_16  and  C_17
REMARK    4  A    between atoms: N_24  and  C_25
REMARK                            x       y       z     vdW  Elec       q    Type
REMARK                         _______ _______ _______ _____ _____    ______ ____
ROOT
ATOM      1  N   UNL     1      -7.439   4.821   0.101  0.00  0.00    -0.283 N 
ATOM      2  C   UNL     1      -7.231   3.491  -0.208  0.00  0.00    +0.225 A 
ATOM      3  N   UNL     1      -8.088   2.850  -0.997  0.00  0.00    -0.181 NA
ATOM      4  C   UNL     1      -7.887   1.569  -1.294  0.00  0.00    +0.225 A 
ATOM      5  N   UNL     1      -6.830   0.930  -0.803  0.00  0.00    -0.179 NA
ATOM      6  C   UNL     1      -5.973   1.571  -0.014  0.00  0.00    +0.241 A 
ATOM      7  N   UNL     1      -6.177   2.850   0.288  0.00  0.00    -0.179 NA
ATOM      8  N   UNL     1      -4.876   0.907   0.497  0.00  0.00    -0.205 N 
ATOM      9  N   UNL     1      -8.778   0.903  -2.114  0.00  0.00    -0.283 N 
ATOM     10  H   UNL     1      -6.766   5.316   0.594  0.00  0.00    +0.155 HD
ATOM     11  H   UNL     1      -4.769  -0.044   0.342  0.00  0.00    +0.177 HD
ATOM     12  H   UNL     1      -9.592   1.343  -2.405  0.00  0.00    +0.155 HD
ENDROOT
BRANCH   1  16
ATOM     13  C   UNL     1     -10.958   6.708  -1.084  0.00  0.00    +0.000 A 
ATOM     14  C   UNL     1      -9.771   7.416  -1.058  0.00  0.00    +0.002 A 
ATOM     15  C   UNL     1      -8.602   6.794  -0.665  0.00  0.00    +0.023 A 
ATOM     16  C   UNL     1      -8.620   5.455  -0.296  0.00  0.00    +0.034 A 
ATOM     17  C   UNL     1      -9.814   4.745  -0.329  0.00  0.00    +0.023 A 
ATOM     18  C   UNL     1     -10.980   5.375  -0.718  0.00  0.00    +0.002 A 
ENDBRANCH   1  16
BRANCH   9  19
ATOM     19  C   UNL     1      -8.505  -0.405  -2.526  0.00  0.00    +0.034 A 
ATOM     20  C   UNL     1      -7.197  -0.796  -2.780  0.00  0.00    +0.023 A 
ATOM     21  C   UNL     1      -6.931  -2.091  -3.181  0.00  0.00    +0.002 A 
ATOM     22  C   UNL     1      -7.966  -2.994  -3.340  0.00  0.00    +0.000 A 
ATOM     23  C   UNL     1      -9.270  -2.606  -3.093  0.00  0.00    +0.002 A 
ATOM     24  C   UNL     1      -9.543  -1.314  -2.686  0.00  0.00    +0.023 A 
ENDBRANCH   9  19
BRANCH   8  25
ATOM     25  N   UNL     1      -3.916   1.608   1.239  0.00  0.00    -0.188 NA
ATOM     26  C   UNL     1      -2.836   1.007   1.636  0.00  0.00    +0.138 C 
BRANCH  26  27
ATOM     27  C   UNL     1      -1.879   1.710   2.509  0.00  0.00    -0.005 A 
ATOM     28  C   UNL     1      -0.771   1.033   3.025  0.00  0.00    +0.010 A 
ATOM     29  C   UNL     1       0.123   1.699   3.837  0.00  0.00    +0.016 A 
ATOM     30  C   UNL     1      -0.077   3.034   4.145  0.00  0.00    +0.018 A 
ATOM     31  C   UNL     1      -1.176   3.709   3.641  0.00  0.00    +0.016 A 
ATOM     32  C   UNL     1      -2.079   3.055   2.829  0.00  0.00    +0.010 A 
ATOM     33 BR   UNL     1       1.156   3.939   5.257  0.00  0.00    -0.050 Br
ENDBRANCH  26  27
ENDBRANCH   8  25
TORSDOF 4
