REMARK  Name = ZINC57784940
REMARK  15 active torsions:
REMARK  status: ('A' for Active; 'I' for Inactive)
REMARK    1  A    between atoms: C_1  and  C_2
REMARK    2  A    between atoms: C_4  and  C_33
REMARK    3  A    between atoms: C_5  and  N_9
REMARK    4  A    between atoms: C_6  and  C_8
REMARK    5  A    between atoms: C_10  and  C_12
REMARK    6  A    between atoms: C_12  and  C_14
REMARK    7  A    between atoms: C_12  and  S_15
REMARK    8  A    between atoms: S_15  and  C_16
REMARK    9  A    between atoms: C_19  and  C_22
REMARK   10  A    between atoms: N_20  and  N_21
REMARK   11  A    between atoms: C_22  and  O_23
REMARK   12  A    between atoms: O_23  and  C_24
REMARK   13  A    between atoms: C_27  and  C_30
REMARK   14  A    between atoms: C_30  and  C_31
REMARK   15  A    between atoms: C_30  and  C_32
REMARK                            x       y       z     vdW  Elec       q    Type
REMARK                         _______ _______ _______ _____ _____    ______ ____
ROOT
ATOM      1  C   UNL     1       1.563  -8.818   2.018  0.00  0.00    +0.209 A 
ATOM      2  N   UNL     1       0.959  -9.486   1.063  0.00  0.00    -0.121 NA
ATOM      3  N   UNL     1       1.234 -10.738   1.165  0.00  0.00    -0.128 NA
ATOM      4  C   UNL     1       2.022 -10.941   2.182  0.00  0.00    +0.189 A 
ATOM      5  N   UNL     1       2.265  -9.725   2.759  0.00  0.00    -0.225 N 
ENDROOT
BRANCH   5   6
ATOM      6  N   UNL     1       3.046  -9.471   3.850  0.00  0.00    -0.295 N 
ATOM      7  H   UNL     1       2.506  -9.524   4.701  0.00  0.00    +0.163 HD
ATOM      8  H   UNL     1       3.836 -10.098   3.884  0.00  0.00    +0.163 HD
ENDBRANCH   5   6
BRANCH   1   9
ATOM      9  S   UNL     1       1.488  -7.078   2.289  0.00  0.00    -0.072 S 
BRANCH   9  10
ATOM     10  C   UNL     1       0.399  -6.476   0.969  0.00  0.00    +0.137 C 
ATOM     11  C   UNL     1      -1.008  -7.042   1.170  0.00  0.00    +0.029 C 
BRANCH  10  13
ATOM     12  N   UNL     1      -0.052  -4.280  -0.077  0.00  0.00    -0.284 N 
ATOM     13  C   UNL     1       0.345  -4.970   1.010  0.00  0.00    +0.230 C 
ATOM     14  O   UNL     1       0.659  -4.380   2.022  0.00  0.00    -0.274 OA
ATOM     15  H   UNL     1      -0.371  -4.753  -0.862  0.00  0.00    +0.155 HD
BRANCH  12  20
ATOM     16  C   UNL     1       0.138   1.390  -0.065  0.00  0.00    +0.044 C 
ATOM     17  C   UNL     1       0.088  -0.116  -0.068  0.00  0.00    -0.050 A 
ATOM     18  C   UNL     1       0.760  -0.827  -1.046  0.00  0.00    +0.008 A 
ATOM     19  C   UNL     1       0.715  -2.208  -1.051  0.00  0.00    -0.029 A 
ATOM     20  C   UNL     1      -0.005  -2.882  -0.074  0.00  0.00    +0.039 A 
ATOM     21  C   UNL     1      -0.679  -2.165   0.906  0.00  0.00    -0.029 A 
ATOM     22  C   UNL     1      -0.626  -0.785   0.909  0.00  0.00    +0.008 A 
ATOM     23  C   UNL     1      -1.462  -2.892   1.969  0.00  0.00    +0.045 C 
ATOM     24  C   UNL     1       1.447  -2.982  -2.117  0.00  0.00    +0.045 C 
ENDBRANCH  12  20
ENDBRANCH  10  13
ENDBRANCH   9  10
ENDBRANCH   1   9
BRANCH   4  25
ATOM     25  C   UNL     1       2.571 -12.270   2.635  0.00  0.00    +0.306 C 
BRANCH  25  26
ATOM     26  O   UNL     1       3.817 -12.519   1.982  0.00  0.00    -0.484 OA
BRANCH  26  27
ATOM     27  C   UNL     1       4.449 -13.684   2.282  0.00  0.00    +0.121 A 
ATOM     28  C   UNL     1       3.878 -14.572   3.182  0.00  0.00    +0.046 A 
ATOM     29  C   UNL     1       4.522 -15.756   3.485  0.00  0.00    +0.007 A 
ATOM     30  C   UNL     1       5.734 -16.056   2.892  0.00  0.00    -0.045 A 
ATOM     31  C   UNL     1       6.305 -15.173   1.994  0.00  0.00    +0.007 A 
ATOM     32  C   UNL     1       5.662 -13.990   1.683  0.00  0.00    +0.046 A 
BRANCH  30  33
ATOM     33  C   UNL     1       6.435 -17.348   3.224  0.00  0.00    +0.013 C 
ATOM     34  C   UNL     1       6.609 -18.177   1.950  0.00  0.00    +0.012 C 
ATOM     35  C   UNL     1       7.808 -17.044   3.826  0.00  0.00    +0.012 C 
ENDBRANCH  30  33
ENDBRANCH  26  27
ENDBRANCH  25  26
ENDBRANCH   4  25
TORSDOF 9
