REMARK  Name = ZINC11856000
REMARK  4 active torsions:
REMARK  status: ('A' for Active; 'I' for Inactive)
REMARK    1  A    between atoms: C_7  and  C_11
REMARK    2  A    between atoms: C_11  and  C_13
REMARK    3  A    between atoms: N_15  and  C_16
REMARK    4  A    between atoms: C_18  and  C_33
REMARK                            x       y       z     vdW  Elec       q    Type
REMARK                         _______ _______ _______ _____ _____    ______ ____
ROOT
ATOM      1  C   UNL     1      -0.017   1.362   0.009  0.00  0.00    +0.133 A 
ATOM      2  C   UNL     1       1.272   1.792  -0.001  0.00  0.00    +0.074 A 
ATOM      3  C   UNL     1       2.106   0.654  -0.015  0.00  0.00    +0.102 A 
ATOM      4  N   UNL     1       1.340  -0.418  -0.013  0.00  0.00    -0.162 NA
ATOM      5  N   UNL     1       0.002  -0.004   0.002  0.00  0.00    -0.185 N 
ATOM      6  C   UNL     1      -1.104  -0.831   0.007  0.00  0.00    +0.234 A 
ATOM      7  N   UNL     1      -0.931  -2.180  -0.001  0.00  0.00    -0.291 N 
ATOM      8  H   UNL     1      -0.038  -2.558  -0.008  0.00  0.00    +0.172 HD
ATOM      9  C   UNL     1      -2.010  -2.988  -0.001  0.00  0.00    +0.256 A 
ATOM     10  O   UNL     1      -1.875  -4.200  -0.007  0.00  0.00    -0.267 OA
ATOM     11  C   UNL     1      -3.300  -2.410   0.007  0.00  0.00    +0.038 A 
ATOM     12  C   UNL     1      -3.412  -1.058   0.024  0.00  0.00    +0.053 A 
ATOM     13  N   UNL     1      -2.305  -0.303   0.026  0.00  0.00    -0.217 NA
ATOM     14  C   UNL     1      -4.742  -0.353   0.056  0.00  0.00    +0.056 C 
ATOM     15  C   UNL     1      -5.860  -1.297  -0.385  0.00  0.00    +0.006 C 
ATOM     16  C   UNL     1      -5.750  -2.591   0.430  0.00  0.00    +0.005 C 
ATOM     17  C   UNL     1      -4.489  -3.332  -0.013  0.00  0.00    +0.042 C 
ENDROOT
BRANCH   3  18
ATOM     18  C   UNL     1       3.584   0.664  -0.029  0.00  0.00    +0.039 A 
ATOM     19  C   UNL     1       4.453  -0.394  -0.042  0.00  0.00    +0.018 A 
ATOM     20  C   UNL     1       5.807  -0.139  -0.054  0.00  0.00    +0.008 A 
ATOM     21  C   UNL     1       6.237   1.149  -0.053  0.00  0.00    +0.046 A 
ATOM     22  S   UNL     1       4.700   2.057  -0.040  0.00  0.00    -0.095 S 
ENDBRANCH   3  18
BRANCH   1  25
ATOM     23  C   UNL     1      -1.023   3.510   0.026  0.00  0.00    +0.290 C 
ATOM     24  O   UNL     1       0.081   4.015   0.024  0.00  0.00    -0.266 OA
ATOM     25  N   UNL     1      -1.150   2.168   0.019  0.00  0.00    -0.263 N 
ATOM     26  H   UNL     1      -2.032   1.764   0.022  0.00  0.00    +0.157 HD
BRANCH  23  27
ATOM     27  C   UNL     1      -2.238   4.373   0.037  0.00  0.00    +0.250 C 
ATOM     28  O   UNL     1      -3.344   3.867   0.040  0.00  0.00    -0.282 OA
BRANCH  27  35
ATOM     29  C   UNL     1      -5.339   7.884   0.069  0.00  0.00    +0.001 A 
ATOM     30  C   UNL     1      -4.723   9.126   0.074  0.00  0.00    +0.002 A 
ATOM     31  C   UNL     1      -3.349   9.229   0.069  0.00  0.00    +0.026 A 
ATOM     32  C   UNL     1      -2.566   8.079   0.059  0.00  0.00    +0.047 A 
ATOM     33  C   UNL     1      -3.192   6.822   0.055  0.00  0.00    +0.011 A 
ATOM     34  C   UNL     1      -4.581   6.733   0.060  0.00  0.00    +0.011 A 
ATOM     35  C   UNL     1      -2.101   5.829   0.044  0.00  0.00    +0.052 A 
ATOM     36  C   UNL     1      -0.923   6.551   0.048  0.00  0.00    +0.095 A 
ATOM     37  N   UNL     1      -1.202   7.868   0.052  0.00  0.00    -0.360 N 
ATOM     38  H   UNL     1      -0.535   8.572   0.053  0.00  0.00    +0.165 HD
ENDBRANCH  27  35
ENDBRANCH  23  27
ENDBRANCH   1  25
TORSDOF 4
