REMARK  Name = ZINC06409782
REMARK  13 active torsions:
REMARK  status: ('A' for Active; 'I' for Inactive)
REMARK    1  A    between atoms: C_1  and  C_2
REMARK    2  A    between atoms: C_7  and  C_14
REMARK    3  A    between atoms: C_14  and  C_16
REMARK    4  A    between atoms: C_14  and  N_72
REMARK    5  A    between atoms: N_20  and  C_21
REMARK    6  A    between atoms: C_21  and  C_22
REMARK    7  A    between atoms: C_21  and  C_23
REMARK    8  A    between atoms: C_21  and  C_24
REMARK    9  A    between atoms: C_25  and  C_26
REMARK   10  A    between atoms: C_25  and  N_72
REMARK   11  A    between atoms: C_26  and  C_27
REMARK   12  A    between atoms: C_33  and  C_34
REMARK   13  A    between atoms: C_33  and  N_72
REMARK                            x       y       z     vdW  Elec       q    Type
REMARK                         _______ _______ _______ _____ _____    ______ ____
ROOT
ATOM      1  C   UNL     1      -5.465   1.236   0.300  0.00  0.00    +0.039 C 
ENDROOT
BRANCH   1   8
ATOM      2  C   UNL     1      -1.479   7.531   3.149  0.00  0.00    +0.044 C 
ATOM      3  C   UNL     1      -2.034   6.223   2.648  0.00  0.00    -0.048 A 
ATOM      4  C   UNL     1      -1.228   5.092   2.640  0.00  0.00    +0.004 A 
ATOM      5  C   UNL     1      -1.712   3.897   2.191  0.00  0.00    +0.010 A 
ATOM      6  C   UNL     1      -3.030   3.812   1.728  0.00  0.00    -0.001 A 
ATOM      7  C   UNL     1      -3.582   2.545   1.243  0.00  0.00    +0.017 A 
ATOM      8  C   UNL     1      -4.867   2.522   0.811  0.00  0.00    +0.011 A 
ATOM      9  C   UNL     1      -5.647   3.698   0.837  0.00  0.00    +0.251 A 
ATOM     10  O   UNL     1      -6.800   3.656   0.444  0.00  0.00    -0.268 OA
ATOM     11  N   UNL     1      -5.150   4.865   1.285  0.00  0.00    -0.322 N 
ATOM     12  H   UNL     1      -5.714   5.654   1.290  0.00  0.00    +0.169 HD
ATOM     13  C   UNL     1      -3.851   4.955   1.738  0.00  0.00    +0.049 A 
ATOM     14  C   UNL     1      -3.337   6.161   2.201  0.00  0.00    +0.029 A 
ENDBRANCH   1   8
BRANCH   1  15
ATOM     15  C   UNL     1      -6.546   0.775   1.243  0.00  0.00    +0.143 A 
ATOM     16  N   UNL     1      -7.694   1.366   1.466  0.00  0.00    -0.115 NA
ATOM     17  N   UNL     1      -8.340   0.667   2.334  0.00  0.00    -0.023 NA
ATOM     18  N   UNL     1      -7.633  -0.355   2.672  0.00  0.00    -0.043 NA
ATOM     19  N   UNL     1      -6.522  -0.326   2.017  0.00  0.00    -0.225 N 
BRANCH  19  20
ATOM     20  C   UNL     1      -5.436  -1.306   2.101  0.00  0.00    +0.059 C 
ATOM     21  C   UNL     1      -4.137  -0.597   2.486  0.00  0.00    +0.036 C 
ATOM     22  C   UNL     1      -5.778  -2.355   3.161  0.00  0.00    +0.036 C 
ATOM     23  C   UNL     1      -5.261  -1.991   0.744  0.00  0.00    +0.036 C 
ENDBRANCH  19  20
ENDBRANCH   1  15
BRANCH   1  24
ATOM     24  N   UNL     1      -6.057   1.483  -1.032  0.00  0.00    +0.392 N 
ATOM     25  H   UNL     1      -6.658   2.314  -0.981  0.00  0.00    -0.080 HD
BRANCH  24  26
ATOM     26  C   UNL     1      -6.876   0.323  -1.442  0.00  0.00    -0.072 C 
BRANCH  26  27
ATOM     27  C   UNL     1      -7.668   0.698  -2.696  0.00  0.00    +0.016 C 
BRANCH  27  28
ATOM     28  C   UNL     1      -8.622  -0.417  -3.040  0.00  0.00    -0.049 A 
ATOM     29  C   UNL     1      -8.220  -1.434  -3.886  0.00  0.00    +0.003 A 
ATOM     30  C   UNL     1      -9.094  -2.459  -4.198  0.00  0.00    +0.000 A 
ATOM     31  C   UNL     1     -10.372  -2.463  -3.671  0.00  0.00    +0.000 A 
ATOM     32  C   UNL     1     -10.775  -1.443  -2.829  0.00  0.00    +0.000 A 
ATOM     33  C   UNL     1      -9.900  -0.420  -2.514  0.00  0.00    +0.003 A 
ENDBRANCH  27  28
ENDBRANCH  26  27
ENDBRANCH  24  26
BRANCH  24  34
ATOM     34  C   UNL     1      -4.988   1.723  -2.023  0.00  0.00    -0.042 C 
BRANCH  34  35
ATOM     35  C   UNL     1      -4.133   0.492  -2.188  0.00  0.00    -0.064 A 
ATOM     36  C   UNL     1      -2.977   0.350  -1.444  0.00  0.00    +0.004 A 
ATOM     37  C   UNL     1      -2.195  -0.780  -1.591  0.00  0.00    +0.038 A 
ATOM     38  C   UNL     1      -2.565  -1.765  -2.491  0.00  0.00    +0.123 A 
ATOM     39  C   UNL     1      -3.721  -1.619  -3.239  0.00  0.00    +0.038 A 
ATOM     40  C   UNL     1      -4.504  -0.490  -3.087  0.00  0.00    +0.004 A 
ATOM     41  F   UNL     1      -1.799  -2.868  -2.639  0.00  0.00    -0.205 F 
ENDBRANCH  34  35
ENDBRANCH  24  34
ENDBRANCH   1  24
TORSDOF 9
