REMARK  Name = ZINC36352748
REMARK  6 active torsions:
REMARK  status: ('A' for Active; 'I' for Inactive)
REMARK    1  A    between atoms: C_1  and  C_2
REMARK    2  A    between atoms: C_13  and  O_31
REMARK    3  A    between atoms: C_18  and  C_28
REMARK    4  A    between atoms: C_19  and  C_20
REMARK    5  A    between atoms: C_23  and  O_26
REMARK    6  A    between atoms: O_26  and  C_27
REMARK                            x       y       z     vdW  Elec       q    Type
REMARK                         _______ _______ _______ _____ _____    ______ ____
ROOT
ATOM      1  C   UNL     1      -0.018   1.503   0.010  0.00  0.00    +0.045 C 
ATOM      2  C   UNL     1       0.002  -0.004   0.002  0.00  0.00    -0.029 A 
ATOM      3  C   UNL     1       0.006  -0.720  -1.186  0.00  0.00    +0.005 A 
ATOM      4  C   UNL     1       0.025  -2.099  -1.207  0.00  0.00    +0.001 A 
ATOM      5  C   UNL     1       0.041  -2.842  -0.031  0.00  0.00    +0.007 A 
ATOM      6  C   UNL     1       0.037  -2.138   1.153  0.00  0.00    -0.006 A 
ATOM      7  C   UNL     1       0.023  -0.737   1.189  0.00  0.00    +0.041 A 
ATOM      8  N   UNL     1       0.029  -0.289   2.498  0.00  0.00    -0.284 N 
ATOM      9  C   UNL     1       0.053  -1.309   3.382  0.00  0.00    +0.233 C 
ATOM     10  O   UNL     1       0.064  -1.216   4.591  0.00  0.00    -0.274 OA
ATOM     11  C   UNL     1       0.051  -2.591   2.578  0.00  0.00    +0.115 C 
ATOM     12  C   UNL     1      -1.190  -3.426   2.903  0.00  0.00    +0.121 C 
ATOM     13  C   UNL     1      -0.995  -4.857   2.495  0.00  0.00    +0.189 C 
ATOM     14  N   UNL     1       0.141  -5.469   2.492  0.00  0.00    -0.216 NA
ATOM     15  C   UNL     1       1.300  -4.789   2.855  0.00  0.00    +0.087 A 
ATOM     16  C   UNL     1       1.266  -3.401   2.892  0.00  0.00    +0.036 A 
ATOM     17  S   UNL     1       2.794  -2.917   3.336  0.00  0.00    -0.082 S 
ATOM     18  C   UNL     1       3.562  -4.516   3.517  0.00  0.00    +0.110 A 
ATOM     19  C   UNL     1       2.517  -5.388   3.193  0.00  0.00    +0.029 A 
ATOM     20  H   UNL     1       0.018   0.647   2.751  0.00  0.00    +0.155 HD
ENDROOT
BRANCH  19  21
ATOM     21  C   UNL     1       2.690  -6.857   3.207  0.00  0.00    -0.014 A 
ATOM     22  C   UNL     1       1.976  -7.637   4.118  0.00  0.00    +0.012 A 
ATOM     23  C   UNL     1       2.139  -9.006   4.128  0.00  0.00    +0.046 A 
ATOM     24  C   UNL     1       3.013  -9.609   3.232  0.00  0.00    +0.120 A 
ATOM     25  C   UNL     1       3.726  -8.836   2.324  0.00  0.00    +0.046 A 
ATOM     26  C   UNL     1       3.563  -7.467   2.305  0.00  0.00    +0.012 A 
BRANCH  24  27
ATOM     27  O   UNL     1       3.172 -10.958   3.245  0.00  0.00    -0.495 OA
ATOM     28  C   UNL     1       4.087 -11.512   2.297  0.00  0.00    +0.277 C 
ENDBRANCH  24  27
ENDBRANCH  19  21
BRANCH  18  29
ATOM     29  C   UNL     1       4.889  -4.824   3.892  0.00  0.00    +0.394 C 
ATOM     30  O   UNL     1       5.680  -3.922   4.143  0.00  0.00    -0.240 OA
ATOM     31  O   UNL     1       5.249  -5.993   3.966  0.00  0.00    -0.240 OA
ENDBRANCH  18  29
BRANCH  13  32
ATOM     32  O   UNL     1      -2.084  -5.552   2.104  0.00  0.00    -0.495 OA
ATOM     33  H   UNL     1      -1.898  -6.468   1.853  0.00  0.00    +0.293 HD
ENDBRANCH  13  32
TORSDOF 4
