REMARK  Name = ZINC36607124
REMARK  15 active torsions:
REMARK  status: ('A' for Active; 'I' for Inactive)
REMARK    1  A    between atoms: C_1  and  C_2
REMARK    2  A    between atoms: C_2  and  C_3
REMARK    3  A    between atoms: C_3  and  C_5
REMARK    4  A    between atoms: C_3  and  C_11
REMARK    5  A    between atoms: N_13  and  C_14
REMARK    6  A    between atoms: N_13  and  C_20
REMARK    7  A    between atoms: C_20  and  C_22
REMARK    8  A    between atoms: C_20  and  C_31
REMARK    9  A    between atoms: C_23  and  O_30
REMARK   10  A    between atoms: C_25  and  O_29
REMARK   11  A    between atoms: C_27  and  O_28
REMARK   12  A    between atoms: N_33  and  C_34
REMARK   13  A    between atoms: C_34  and  C_35
REMARK   14  A    between atoms: C_34  and  C_36
REMARK   15  A    between atoms: C_34  and  C_37
REMARK                            x       y       z     vdW  Elec       q    Type
REMARK                         _______ _______ _______ _____ _____    ______ ____
ROOT
ATOM      1  C   UNL     1      -0.921  -4.089   0.981  0.00  0.00    +0.204 C 
ENDROOT
BRANCH   1   2
ATOM      2  C   UNL     1      -2.393  -3.777   0.894  0.00  0.00    +0.065 A 
ATOM      3  C   UNL     1      -2.887  -2.601   1.439  0.00  0.00    +0.129 A 
ATOM      4  C   UNL     1      -4.241  -2.315   1.359  0.00  0.00    +0.091 A 
ATOM      5  C   UNL     1      -5.102  -3.205   0.735  0.00  0.00    +0.124 A 
ATOM      6  C   UNL     1      -4.609  -4.380   0.190  0.00  0.00    +0.091 A 
ATOM      7  C   UNL     1      -3.254  -4.665   0.266  0.00  0.00    +0.129 A 
BRANCH   7   8
ATOM      8  O   UNL     1      -2.770  -5.815  -0.273  0.00  0.00    -0.506 OA
ATOM      9  H   UNL     1      -2.762  -6.563   0.340  0.00  0.00    +0.292 HD
ENDBRANCH   7   8
BRANCH   5  10
ATOM     10  O   UNL     1      -6.430  -2.924   0.657  0.00  0.00    -0.507 OA
ATOM     11  H   UNL     1      -6.682  -2.431  -0.135  0.00  0.00    +0.292 HD
ENDBRANCH   5  10
BRANCH   3  12
ATOM     12  O   UNL     1      -2.043  -1.729   2.050  0.00  0.00    -0.506 OA
ATOM     13  H   UNL     1      -1.732  -1.015   1.477  0.00  0.00    +0.292 HD
ENDBRANCH   3  12
ENDBRANCH   1   2
BRANCH   1  14
ATOM     14  C   UNL     1      -0.575  -4.488   2.392  0.00  0.00    +0.239 C 
ATOM     15  O   UNL     1      -0.345  -3.636   3.224  0.00  0.00    -0.273 OA
ATOM     16  N   UNL     1      -0.519  -5.792   2.729  0.00  0.00    -0.309 N 
ATOM     17  H   UNL     1      -0.703  -6.473   2.063  0.00  0.00    +0.149 HD
BRANCH  16  18
ATOM     18  C   UNL     1      -0.182  -6.180   4.101  0.00  0.00    +0.026 C 
ATOM     19  C   UNL     1      -1.214  -5.593   5.066  0.00  0.00    +0.031 C 
ATOM     20  C   UNL     1      -0.188  -7.706   4.215  0.00  0.00    +0.031 C 
ATOM     21  C   UNL     1       1.208  -5.647   4.455  0.00  0.00    +0.031 C 
ENDBRANCH  16  18
ENDBRANCH   1  14
BRANCH   1  24
ATOM     22  C   UNL     1      -0.496  -2.188  -0.484  0.00  0.00    +0.228 C 
ATOM     23  O   UNL     1      -1.498  -2.477  -1.103  0.00  0.00    -0.275 OA
ATOM     24  N   UNL     1      -0.148  -2.902   0.605  0.00  0.00    -0.255 N 
BRANCH  24  25
ATOM     25  C   UNL     1       0.951  -2.510   1.377  0.00  0.00    +0.037 A 
ATOM     26  C   UNL     1       2.058  -3.341   1.485  0.00  0.00    +0.023 A 
ATOM     27  C   UNL     1       3.141  -2.951   2.247  0.00  0.00    +0.002 A 
ATOM     28  C   UNL     1       3.124  -1.734   2.904  0.00  0.00    +0.000 A 
ATOM     29  C   UNL     1       2.023  -0.904   2.799  0.00  0.00    +0.002 A 
ATOM     30  C   UNL     1       0.939  -1.286   2.033  0.00  0.00    +0.023 A 
ENDBRANCH  24  25
BRANCH  22  31
ATOM     31  C   UNL     1       0.360  -1.032  -0.931  0.00  0.00    +0.105 C 
BRANCH  31  32
ATOM     32  C   UNL     1      -0.442  -0.136  -1.841  0.00  0.00    -0.036 A 
ATOM     33  C   UNL     1      -0.972  -0.639  -3.014  0.00  0.00    +0.004 A 
ATOM     34  C   UNL     1      -1.707   0.182  -3.848  0.00  0.00    +0.000 A 
ATOM     35  C   UNL     1      -1.912   1.507  -3.509  0.00  0.00    +0.000 A 
ATOM     36  C   UNL     1      -1.382   2.009  -2.335  0.00  0.00    +0.000 A 
ATOM     37  C   UNL     1      -0.651   1.187  -1.499  0.00  0.00    +0.004 A 
ENDBRANCH  31  32
BRANCH  31  39
ATOM     38  C   UNL     1       2.494  -0.395  -2.063  0.00  0.00    +0.005 C 
ATOM     39  C   UNL     1       1.581  -1.563  -1.685  0.00  0.00    +0.014 C 
ENDBRANCH  31  39
ENDBRANCH  22  31
ENDBRANCH   1  24
TORSDOF 11
