REMARK  Name = ZINC39639276
REMARK  7 active torsions:
REMARK  status: ('A' for Active; 'I' for Inactive)
REMARK    1  A    between atoms: C_1  and  C_2
REMARK    2  A    between atoms: C_5  and  C_8
REMARK    3  A    between atoms: C_8  and  C_10
REMARK    4  A    between atoms: C_8  and  N_11
REMARK    5  A    between atoms: C_12  and  C_14
REMARK    6  A    between atoms: C_25  and  C_27
REMARK    7  A    between atoms: C_31  and  C_33
REMARK                            x       y       z     vdW  Elec       q    Type
REMARK                         _______ _______ _______ _____ _____    ______ ____
ROOT
ATOM      1  C   UNL     1       2.830  -6.451   2.582  0.00  0.00    +0.100 C 
ATOM      2  C   UNL     1       1.805  -6.476   3.737  0.00  0.00    +0.121 C 
ATOM      3  N   UNL     1       1.315  -7.873   3.773  0.00  0.00    -0.296 N 
ATOM      4  C   UNL     1       2.521  -8.694   3.513  0.00  0.00    +0.115 C 
ATOM      5  C   UNL     1       3.300  -7.908   2.440  0.00  0.00    -0.004 C 
ATOM      6  C   UNL     1       2.963  -8.439   1.050  0.00  0.00    -0.010 C 
ATOM      7  C   UNL     1       3.491  -9.870   0.913  0.00  0.00    -0.082 C 
ATOM      8  N   UNL     1       4.944  -9.880   1.124  0.00  0.00    +0.379 N 
ATOM      9  C   UNL     1       5.254  -9.456   2.494  0.00  0.00    -0.082 C 
ATOM     10  C   UNL     1       4.801  -8.007   2.698  0.00  0.00    -0.010 C 
ATOM     11  C   UNL     1       0.056  -8.302   3.993  0.00  0.00    +0.247 C 
ATOM     12  O   UNL     1      -0.855  -7.500   4.066  0.00  0.00    -0.270 OA
ATOM     13  H   UNL     1       5.298 -10.813   0.974  0.00  0.00    -0.086 HD
ATOM     14  H   UNL     1       5.381  -9.248   0.470  0.00  0.00    -0.086 HD
ENDROOT
BRANCH  11  15
ATOM     15  C   UNL     1      -0.217  -9.746   4.144  0.00  0.00    +0.038 A 
ATOM     16  C   UNL     1       0.813 -10.621   4.495  0.00  0.00    +0.016 A 
ATOM     17  C   UNL     1       0.553 -11.967   4.635  0.00  0.00    +0.039 A 
ATOM     18  C   UNL     1      -0.729 -12.453   4.427  0.00  0.00    +0.135 A 
ATOM     19  C   UNL     1      -1.756 -11.589   4.078  0.00  0.00    +0.091 A 
ATOM     20  C   UNL     1      -1.508 -10.240   3.941  0.00  0.00    +0.028 A 
ATOM     21  F   UNL     1      -0.979 -13.774   4.565  0.00  0.00    -0.205 F 
BRANCH  19  22
ATOM     22  C   UNL     1      -3.146 -12.125   3.854  0.00  0.00    +0.420 C 
ATOM     23  F   UNL     1      -4.002 -11.072   3.514  0.00  0.00    -0.166 F 
ATOM     24  F   UNL     1      -3.123 -13.061   2.814  0.00  0.00    -0.166 F 
ATOM     25  F   UNL     1      -3.604 -12.739   5.024  0.00  0.00    -0.166 F 
ENDBRANCH  19  22
ENDBRANCH  11  15
BRANCH   1  27
ATOM     26  N   UNL     1       2.919  -5.438   0.327  0.00  0.00    -0.308 N 
ATOM     27  C   UNL     1       2.174  -5.985   1.308  0.00  0.00    +0.219 C 
ATOM     28  O   UNL     1       0.975  -6.102   1.165  0.00  0.00    -0.275 OA
ATOM     29  H   UNL     1       3.877  -5.344   0.441  0.00  0.00    +0.149 HD
BRANCH  26  30
ATOM     30  C   UNL     1       2.280  -4.985  -0.912  0.00  0.00    +0.100 C 
ATOM     31  C   UNL     1       1.751  -3.562  -0.722  0.00  0.00    +0.033 C 
BRANCH  30  36
ATOM     32  C   UNL     1       6.148  -5.039  -5.205  0.00  0.00    +0.044 C 
ATOM     33  C   UNL     1       5.139  -5.025  -4.085  0.00  0.00    -0.050 A 
ATOM     34  C   UNL     1       3.842  -5.441  -4.319  0.00  0.00    +0.004 A 
ATOM     35  C   UNL     1       2.917  -5.429  -3.291  0.00  0.00    +0.006 A 
ATOM     36  C   UNL     1       3.289  -5.000  -2.031  0.00  0.00    -0.027 A 
ATOM     37  C   UNL     1       4.587  -4.584  -1.798  0.00  0.00    +0.006 A 
ATOM     38  C   UNL     1       5.513  -4.601  -2.824  0.00  0.00    +0.004 A 
ENDBRANCH  30  36
ENDBRANCH  26  30
ENDBRANCH   1  27
TORSDOF 5
