REMARK  Name = ZINC20593469
REMARK  5 active torsions:
REMARK  status: ('A' for Active; 'I' for Inactive)
REMARK    1  A    between atoms: C_1  and  C_2
REMARK    2  A    between atoms: C_6  and  N_8
REMARK    3  A    between atoms: N_8  and  S_9
REMARK    4  A    between atoms: S_9  and  C_12
REMARK    5  A    between atoms: C_15  and  C_17
REMARK                            x       y       z     vdW  Elec       q    Type
REMARK                         _______ _______ _______ _____ _____    ______ ____
ROOT
ATOM      1  S   UNL     1       2.432   5.380   0.724  0.00  0.00    +0.125 S 
ATOM      2  O   UNL     1       3.735   5.887   0.472  0.00  0.00    -0.145 OA
ATOM      3  O   UNL     1       1.256   6.080   0.343  0.00  0.00    -0.145 OA
ENDROOT
BRANCH   1   4
ATOM      4  C   UNL     1       2.321   5.119   2.463  0.00  0.00    +0.264 A 
ATOM      5  C   UNL     1       3.365   4.913   3.296  0.00  0.00    +0.072 A 
ATOM      6  C   UNL     1       2.839   4.755   4.588  0.00  0.00    +0.059 A 
ATOM      7  C   UNL     1       1.482   4.867   4.475  0.00  0.00    +0.218 A 
ATOM      8  O   UNL     1       1.188   5.088   3.176  0.00  0.00    -0.430 OA
BRANCH   7   9
ATOM      9  C   UNL     1       0.515   4.765   5.571  0.00  0.00    +0.421 C 
ATOM     10  O   UNL     1       0.902   4.562   6.706  0.00  0.00    -0.237 OA
ATOM     11  O   UNL     1      -0.804   4.895   5.321  0.00  0.00    -0.237 OA
ENDBRANCH   7   9
ENDBRANCH   1   4
BRANCH   1  12
ATOM     12  N   UNL     1       2.354   3.893   0.001  0.00  0.00    -0.092 NA
BRANCH  12  18
ATOM     13  C   UNL     1      -2.514   3.491   0.548  0.00  0.00    +0.044 C 
ATOM     14  C   UNL     1      -1.147   2.865   0.448  0.00  0.00    -0.048 A 
ATOM     15  C   UNL     1      -1.010   1.491   0.527  0.00  0.00    +0.006 A 
ATOM     16  C   UNL     1       0.243   0.912   0.441  0.00  0.00    +0.040 A 
ATOM     17  C   UNL     1       1.362   1.705   0.264  0.00  0.00    +0.148 A 
ATOM     18  C   UNL     1       1.225   3.087   0.179  0.00  0.00    +0.110 A 
ATOM     19  C   UNL     1      -0.034   3.663   0.271  0.00  0.00    +0.033 A 
ATOM     20  F   UNL     1       2.585   1.139   0.175  0.00  0.00    -0.203 F 
ENDBRANCH  12  18
ENDBRANCH   1  12
TORSDOF 4
