REMARK  Name = ZINC06053149
REMARK  8 active torsions:
REMARK  status: ('A' for Active; 'I' for Inactive)
REMARK    1  A    between atoms: C_1  and  C_2
REMARK    2  A    between atoms: C_5  and  N_8
REMARK    3  A    between atoms: C_9  and  C_11
REMARK    4  A    between atoms: C_12  and  C_28
REMARK    5  A    between atoms: C_17  and  C_19
REMARK    6  A    between atoms: C_22  and  O_26
REMARK    7  A    between atoms: C_23  and  O_25
REMARK    8  A    between atoms: O_26  and  C_27
REMARK                            x       y       z     vdW  Elec       q    Type
REMARK                         _______ _______ _______ _____ _____    ______ ____
ROOT
ATOM      1  C   UNL     1       5.325   1.440  -2.773  0.00  0.00    +0.056 C 
ATOM      2  C   UNL     1       6.267   1.721  -1.848  0.00  0.00    +0.019 C 
ATOM      3  N   UNL     1       6.727   2.996  -1.675  0.00  0.00    -0.273 N 
ATOM      4  C   UNL     1       6.295   4.044  -2.388  0.00  0.00    +0.304 C 
ATOM      5  O   UNL     1       6.765   5.142  -2.162  0.00  0.00    -0.252 OA
ATOM      6  N   UNL     1       5.357   3.921  -3.347  0.00  0.00    -0.288 N 
ATOM      7  C   UNL     1       4.796   2.585  -3.612  0.00  0.00    +0.142 C 
ATOM      8  C   UNL     1       6.820   0.611  -0.992  0.00  0.00    +0.061 C 
ATOM      9  H   UNL     1       7.404   3.150  -0.998  0.00  0.00    +0.156 HD
ATOM     10  H   UNL     1       5.058   4.694  -3.851  0.00  0.00    +0.151 HD
ENDROOT
BRANCH   7  11
ATOM     11  C   UNL     1       3.305   2.659  -3.409  0.00  0.00    -0.019 A 
ATOM     12  C   UNL     1       2.792   3.275  -2.283  0.00  0.00    +0.009 A 
ATOM     13  C   UNL     1       1.424   3.345  -2.092  0.00  0.00    +0.050 A 
ATOM     14  C   UNL     1       0.565   2.802  -3.033  0.00  0.00    +0.161 A 
ATOM     15  C   UNL     1       1.081   2.177  -4.164  0.00  0.00    +0.159 A 
ATOM     16  C   UNL     1       2.453   2.111  -4.349  0.00  0.00    +0.055 A 
BRANCH  15  17
ATOM     17  O   UNL     1       0.242   1.638  -5.088  0.00  0.00    -0.503 OA
ATOM     18  H   UNL     1       0.020   0.711  -4.924  0.00  0.00    +0.292 HD
ENDBRANCH  15  17
BRANCH  14  19
ATOM     19  O   UNL     1      -0.781   2.875  -2.850  0.00  0.00    -0.491 OA
ATOM     20  C   UNL     1      -1.240   3.532  -1.666  0.00  0.00    +0.277 C 
ENDBRANCH  14  19
ENDBRANCH   7  11
BRANCH   1  22
ATOM     21  N   UNL     1       4.341  -0.564  -1.907  0.00  0.00    -0.282 N 
ATOM     22  C   UNL     1       4.848   0.118  -2.953  0.00  0.00    +0.248 C 
ATOM     23  O   UNL     1       4.895  -0.401  -4.053  0.00  0.00    -0.270 OA
ATOM     24  H   UNL     1       4.219  -0.121  -1.053  0.00  0.00    +0.155 HD
BRANCH  21  29
ATOM     25  C   UNL     1       2.921  -6.024  -2.501  0.00  0.00    +0.044 C 
ATOM     26  C   UNL     1       3.298  -4.573  -2.343  0.00  0.00    -0.050 A 
ATOM     27  C   UNL     1       3.810  -4.120  -1.141  0.00  0.00    +0.005 A 
ATOM     28  C   UNL     1       4.157  -2.792  -0.993  0.00  0.00    +0.023 A 
ATOM     29  C   UNL     1       3.991  -1.910  -2.054  0.00  0.00    +0.034 A 
ATOM     30  C   UNL     1       3.472  -2.367  -3.258  0.00  0.00    +0.023 A 
ATOM     31  C   UNL     1       3.132  -3.698  -3.401  0.00  0.00    +0.005 A 
ENDBRANCH  21  29
ENDBRANCH   1  22
TORSDOF 5
