REMARK  Name = ZINC09611334
REMARK  8 active torsions:
REMARK  status: ('A' for Active; 'I' for Inactive)
REMARK    1  A    between atoms: C_4  and  C_7
REMARK    2  A    between atoms: C_7  and  C_8
REMARK    3  A    between atoms: C_8  and  C_10
REMARK    4  A    between atoms: C_8  and  N_21
REMARK    5  A    between atoms: N_12  and  C_13
REMARK    6  A    between atoms: C_13  and  C_14
REMARK    7  A    between atoms: N_21  and  S_22
REMARK    8  A    between atoms: S_22  and  C_25
REMARK                            x       y       z     vdW  Elec       q    Type
REMARK                         _______ _______ _______ _____ _____    ______ ____
ROOT
ATOM      1  C   UNL     1       0.591  -2.329   2.986  0.00  0.00    +0.166 C 
ENDROOT
BRANCH   1   2
ATOM      2  C   UNL     1       0.325  -1.822   1.592  0.00  0.00    +0.232 C 
ATOM      3  O   UNL     1       0.167  -2.607   0.681  0.00  0.00    -0.274 OA
ATOM      4  N   UNL     1       0.262  -0.496   1.357  0.00  0.00    -0.310 N 
ATOM      5  H   UNL     1       0.388   0.132   2.086  0.00  0.00    +0.149 HD
BRANCH   4   6
ATOM      6  C   UNL     1       0.002  -0.004   0.002  0.00  0.00    +0.141 C 
BRANCH   6   7
ATOM      7  C   UNL     1      -0.018   1.503   0.010  0.00  0.00    -0.012 A 
ATOM      8  C   UNL     1      -1.225   2.178   0.020  0.00  0.00    +0.006 A 
ATOM      9  C   UNL     1      -1.244   3.560   0.032  0.00  0.00    +0.000 A 
ATOM     10  C   UNL     1      -0.056   4.268   0.025  0.00  0.00    +0.001 A 
ATOM     11  C   UNL     1       1.150   3.594   0.010  0.00  0.00    +0.020 A 
ATOM     12  C   UNL     1       1.170   2.211   0.003  0.00  0.00    +0.046 A 
ATOM     13 CL   UNL     1       2.685   1.364  -0.016  0.00  0.00    -0.083 Cl
ENDBRANCH   6   7
ENDBRANCH   4   6
ENDBRANCH   1   2
BRANCH   1  14
ATOM     14  N   UNL     1       0.611  -3.793   2.978  0.00  0.00    -0.178 NA
ATOM     15  H   UNL     1       0.966  -4.269   2.211  0.00  0.00    +0.149 HD
BRANCH  14  16
ATOM     16  S   UNL     1       0.029  -4.636   4.279  0.00  0.00    +0.059 S 
ATOM     17  O   UNL     1       0.159  -6.015   3.961  0.00  0.00    -0.153 OA
ATOM     18  O   UNL     1       0.624  -4.062   5.434  0.00  0.00    -0.153 OA
BRANCH  16  19
ATOM     19  C   UNL     1      -1.698  -4.305   4.384  0.00  0.00    +0.106 A 
ATOM     20  C   UNL     1      -2.598  -5.115   3.716  0.00  0.00    +0.030 A 
ATOM     21  C   UNL     1      -3.953  -4.858   3.795  0.00  0.00    +0.025 A 
ATOM     22  C   UNL     1      -4.411  -3.785   4.548  0.00  0.00    +0.037 A 
ATOM     23  C   UNL     1      -3.505  -2.974   5.218  0.00  0.00    -0.024 A 
ATOM     24  C   UNL     1      -2.152  -3.239   5.139  0.00  0.00    +0.034 A 
ATOM     25  C   UNL     1      -4.002  -1.811   6.036  0.00  0.00    +0.046 C 
ATOM     26  C   UNL     1      -5.245  -1.215   5.375  0.00  0.00    +0.101 C 
ATOM     27  C   UNL     1      -6.218  -2.311   5.032  0.00  0.00    +0.218 C 
ATOM     28  O   UNL     1      -7.410  -2.103   5.117  0.00  0.00    -0.275 OA
ATOM     29  N   UNL     1      -5.781  -3.520   4.634  0.00  0.00    -0.285 N 
ATOM     30  H   UNL     1      -6.421  -4.212   4.406  0.00  0.00    +0.155 HD
ENDBRANCH  16  19
ENDBRANCH  14  16
ENDBRANCH   1  14
BRANCH   1  31
ATOM     31  C   UNL     1       1.944  -1.803   3.469  0.00  0.00    +0.065 C 
BRANCH  31  35
ATOM     32  C   UNL     1       2.546  -2.947   7.541  0.00  0.00    +0.000 A 
ATOM     33  C   UNL     1       2.971  -3.776   6.520  0.00  0.00    +0.000 A 
ATOM     34  C   UNL     1       2.777  -3.406   5.202  0.00  0.00    +0.004 A 
ATOM     35  C   UNL     1       2.156  -2.207   4.906  0.00  0.00    -0.045 A 
ATOM     36  C   UNL     1       1.735  -1.375   5.927  0.00  0.00    +0.004 A 
ATOM     37  C   UNL     1       1.925  -1.748   7.244  0.00  0.00    +0.000 A 
ENDBRANCH  31  35
ENDBRANCH   1  31
TORSDOF 8
