REMARK  Name = ZINC08789458
REMARK  7 active torsions:
REMARK  status: ('A' for Active; 'I' for Inactive)
REMARK    1  A    between atoms: C_1  and  C_2
REMARK    2  A    between atoms: C_2  and  O_4
REMARK    3  A    between atoms: O_4  and  C_5
REMARK    4  A    between atoms: C_8  and  N_11
REMARK    5  A    between atoms: C_16  and  C_32
REMARK    6  A    between atoms: C_32  and  C_33
REMARK    7  A    between atoms: C_36  and  O_39
REMARK                            x       y       z     vdW  Elec       q    Type
REMARK                         _______ _______ _______ _____ _____    ______ ____
ROOT
ATOM      1  N   UNL     1       7.359   2.331  -0.703  0.00  0.00    -0.210 N 
ATOM      2  C   UNL     1       6.259   2.973  -0.294  0.00  0.00    +0.228 C 
ATOM      3  O   UNL     1       5.982   3.224   0.859  0.00  0.00    -0.275 OA
ATOM      4  C   UNL     1       5.415   3.337  -1.494  0.00  0.00    +0.074 C 
ATOM      5  C   UNL     1       4.114   2.507  -1.474  0.00  0.00    -0.053 C 
ATOM      6  C   UNL     1       5.348   1.658  -3.267  0.00  0.00    +0.050 C 
ATOM      7  C   UNL     1       6.230   2.773  -2.691  0.00  0.00    +0.088 C 
ATOM      8  C   UNL     1       7.446   2.166  -2.028  0.00  0.00    +0.229 C 
ATOM      9  O   UNL     1       8.358   1.616  -2.607  0.00  0.00    -0.275 OA
ATOM     10  C   UNL     1       4.564   2.135  -4.457  0.00  0.00    -0.028 A 
ATOM     11  C   UNL     1       3.642   3.140  -4.644  0.00  0.00    +0.004 A 
ATOM     12  C   UNL     1       3.077   3.339  -5.891  0.00  0.00    +0.000 A 
ATOM     13  C   UNL     1       3.441   2.525  -6.949  0.00  0.00    +0.002 A 
ATOM     14  C   UNL     1       4.364   1.516  -6.766  0.00  0.00    +0.023 A 
ATOM     15  C   UNL     1       4.938   1.310  -5.513  0.00  0.00    +0.036 A 
ATOM     16  N   UNL     1       5.879   0.371  -5.084  0.00  0.00    -0.286 N 
ATOM     17  C   UNL     1       6.174   0.509  -3.777  0.00  0.00    +0.211 C 
ATOM     18  O   UNL     1       6.954  -0.162  -3.135  0.00  0.00    -0.277 OA
ATOM     19  H   UNL     1       6.274  -0.301  -5.660  0.00  0.00    +0.155 HD
ATOM     20  N   UNL     1       4.471   1.272  -2.176  0.00  0.00    +0.394 N 
ATOM     21  H   UNL     1       3.627   0.816  -2.543  0.00  0.00    -0.083 HD
ATOM     22  H   UNL     1       4.957   0.630  -1.539  0.00  0.00    -0.083 HD
ENDROOT
BRANCH   1  26
ATOM     23  C   UNL     1      10.281   0.956   1.937  0.00  0.00    +0.132 A 
ATOM     24  C   UNL     1      10.072   2.318   1.783  0.00  0.00    +0.048 A 
ATOM     25  C   UNL     1       9.105   2.774   0.910  0.00  0.00    +0.027 A 
ATOM     26  C   UNL     1       8.342   1.868   0.185  0.00  0.00    +0.044 A 
ATOM     27  C   UNL     1       8.549   0.505   0.343  0.00  0.00    +0.027 A 
ATOM     28  C   UNL     1       9.520   0.050   1.212  0.00  0.00    +0.048 A 
BRANCH  23  29
ATOM     29  O   UNL     1      11.234   0.507   2.797  0.00  0.00    -0.426 OA
BRANCH  29  31
ATOM     30  C   UNL     1      11.994   0.195   5.126  0.00  0.00    +0.136 C 
ATOM     31  C   UNL     1      10.944   0.558   4.107  0.00  0.00    +0.309 C 
ATOM     32  O   UNL     1       9.842   0.894   4.470  0.00  0.00    -0.251 OA
ENDBRANCH  29  31
ENDBRANCH  23  29
ENDBRANCH   1  26
BRANCH   5  33
ATOM     33  C   UNL     1       3.685   2.226  -0.032  0.00  0.00    +0.020 C 
BRANCH  33  34
ATOM     34  C   UNL     1       2.389   1.456  -0.035  0.00  0.00    -0.049 A 
ATOM     35  C   UNL     1       1.184   2.133  -0.019  0.00  0.00    +0.007 A 
ATOM     36  C   UNL     1      -0.005   1.430  -0.022  0.00  0.00    +0.045 A 
ATOM     37  C   UNL     1       0.011   0.043  -0.041  0.00  0.00    +0.117 A 
ATOM     38  C   UNL     1       1.222  -0.634  -0.058  0.00  0.00    +0.045 A 
ATOM     39  C   UNL     1       2.408   0.074  -0.055  0.00  0.00    +0.007 A 
BRANCH  37  40
ATOM     40  O   UNL     1      -1.157  -0.651  -0.043  0.00  0.00    -0.507 OA
ATOM     41  H   UNL     1      -1.501  -0.840  -0.927  0.00  0.00    +0.292 HD
ENDBRANCH  37  40
ENDBRANCH  33  34
ENDBRANCH   5  33
TORSDOF 6
