REMARK  Name = ZINC39631874
REMARK  14 active torsions:
REMARK  status: ('A' for Active; 'I' for Inactive)
REMARK    1  A    between atoms: C_1  and  C_2
REMARK    2  A    between atoms: C_4  and  C_7
REMARK    3  A    between atoms: C_8  and  C_13
REMARK    4  A    between atoms: C_9  and  C_12
REMARK    5  A    between atoms: C_17  and  C_26
REMARK    6  A    between atoms: N_28  and  C_29
REMARK    7  A    between atoms: C_29  and  C_31
REMARK    8  A    between atoms: C_29  and  C_32
REMARK    9  A    between atoms: C_32  and  C_33
REMARK   10  A    between atoms: C_33  and  C_34
REMARK   11  A    between atoms: C_34  and  C_35
REMARK   12  A    between atoms: C_35  and  C_36
REMARK   13  A    between atoms: C_35  and  C_37
REMARK   14  A    between atoms: C_35  and  O_38
REMARK                            x       y       z     vdW  Elec       q    Type
REMARK                         _______ _______ _______ _____ _____    ______ ____
ROOT
ATOM      1  C   UNL     1       0.460  -5.189   0.008  0.00  0.00    +0.252 C 
ATOM      2  O   UNL     1       1.071  -5.347   1.048  0.00  0.00    -0.270 OA
ATOM      3  N   UNL     1       1.085  -5.362  -1.173  0.00  0.00    -0.296 N 
ATOM      4  C   UNL     1       0.515  -5.210  -2.533  0.00  0.00    +0.121 C 
ATOM      5  C   UNL     1       1.638  -4.536  -3.354  0.00  0.00    +0.100 C 
ATOM      6  C   UNL     1       2.936  -4.895  -2.611  0.00  0.00    -0.004 C 
ATOM      7  C   UNL     1       2.499  -5.742  -1.407  0.00  0.00    +0.115 C 
ATOM      8  C   UNL     1       3.637  -3.628  -2.130  0.00  0.00    -0.010 C 
ATOM      9  C   UNL     1       4.952  -4.007  -1.445  0.00  0.00    -0.082 C 
ATOM     10  N   UNL     1       5.807  -4.734  -2.391  0.00  0.00    +0.379 N 
ATOM     11  C   UNL     1       5.166  -5.997  -2.777  0.00  0.00    -0.082 C 
ATOM     12  C   UNL     1       3.859  -5.702  -3.518  0.00  0.00    -0.010 C 
ATOM     13  H   UNL     1       5.954  -4.168  -3.213  0.00  0.00    -0.086 HD
ATOM     14  H   UNL     1       6.697  -4.929  -1.957  0.00  0.00    -0.086 HD
ENDROOT
BRANCH   1  16
ATOM     15  C   UNL     1      -1.467  -3.515   0.053  0.00  0.00    +0.201 A 
ATOM     16  C   UNL     1      -0.962  -4.808   0.041  0.00  0.00    +0.108 A 
ATOM     17  C   UNL     1      -2.068  -5.692   0.065  0.00  0.00    +0.093 A 
ATOM     18  N   UNL     1      -3.156  -4.981   0.089  0.00  0.00    -0.082 NA
ATOM     19  O   UNL     1      -2.806  -3.610   0.088  0.00  0.00    -0.352 OA
ATOM     20  C   UNL     1      -1.997  -7.198   0.061  0.00  0.00    +0.070 C 
BRANCH  15  24
ATOM     21  C   UNL     1      -0.262   1.413   0.041  0.00  0.00    +0.089 C 
ATOM     22  C   UNL     1      -0.163  -0.090   0.033  0.00  0.00    +0.135 A 
ATOM     23  C   UNL     1      -1.198  -0.948   0.056  0.00  0.00    +0.079 A 
ATOM     24  C   UNL     1      -0.678  -2.265   0.037  0.00  0.00    +0.152 A 
ATOM     25  N   UNL     1       0.632  -2.178   0.004  0.00  0.00    -0.075 NA
ATOM     26  O   UNL     1       0.973  -0.803  -0.004  0.00  0.00    -0.359 OA
ENDBRANCH  15  24
ENDBRANCH   1  16
BRANCH   5  27
ATOM     27  C   UNL     1       1.664  -5.087  -4.756  0.00  0.00    +0.218 C 
ATOM     28  O   UNL     1       1.342  -6.238  -4.963  0.00  0.00    -0.275 OA
ATOM     29  N   UNL     1       2.045  -4.299  -5.782  0.00  0.00    -0.312 N 
ATOM     30  H   UNL     1       2.302  -3.379  -5.617  0.00  0.00    +0.149 HD
BRANCH  29  31
ATOM     31  C   UNL     1       2.071  -4.834  -7.146  0.00  0.00    +0.070 C 
ATOM     32  C   UNL     1       0.677  -4.717  -7.766  0.00  0.00    +0.028 C 
BRANCH  31  33
ATOM     33  C   UNL     1       3.072  -4.039  -7.986  0.00  0.00    +0.022 C 
BRANCH  33  34
ATOM     34  C   UNL     1       4.484  -4.257  -7.439  0.00  0.00    +0.005 C 
BRANCH  34  35
ATOM     35  C   UNL     1       5.485  -3.462  -8.280  0.00  0.00    +0.034 C 
BRANCH  35  36
ATOM     36  C   UNL     1       6.897  -3.680  -7.734  0.00  0.00    +0.061 C 
ATOM     37  C   UNL     1       7.881  -2.789  -8.494  0.00  0.00    +0.041 C 
ATOM     38  C   UNL     1       6.929  -3.321  -6.247  0.00  0.00    +0.041 C 
BRANCH  36  39
ATOM     39  O   UNL     1       7.266  -5.050  -7.901  0.00  0.00    -0.389 OA
ATOM     40  H   UNL     1       8.152  -5.261  -7.576  0.00  0.00    +0.210 HD
ENDBRANCH  36  39
ENDBRANCH  35  36
ENDBRANCH  34  35
ENDBRANCH  33  34
ENDBRANCH  31  33
ENDBRANCH  29  31
ENDBRANCH   5  27
TORSDOF 9
