REMARK  Name = ZINC36599018
REMARK  14 active torsions:
REMARK  status: ('A' for Active; 'I' for Inactive)
REMARK    1  A    between atoms: C_1  and  C_2
REMARK    2  A    between atoms: C_5  and  C_7
REMARK    3  A    between atoms: C_7  and  N_8
REMARK    4  A    between atoms: N_8  and  C_9
REMARK    5  A    between atoms: C_9  and  C_11
REMARK    6  A    between atoms: C_9  and  C_17
REMARK    7  A    between atoms: N_19  and  C_20
REMARK    8  A    between atoms: C_20  and  C_21
REMARK    9  A    between atoms: C_20  and  C_22
REMARK   10  A    between atoms: C_20  and  C_23
REMARK   11  A    between atoms: C_24  and  C_26
REMARK   12  A    between atoms: C_26  and  C_27
REMARK   13  A    between atoms: C_26  and  C_33
REMARK   14  A    between atoms: C_26  and  O_39
REMARK                            x       y       z     vdW  Elec       q    Type
REMARK                         _______ _______ _______ _____ _____    ______ ____
ROOT
ATOM      1  N   UNL     1       2.861  -4.007  -1.659  0.00  0.00    -0.276 N 
ATOM      2  C   UNL     1       1.893  -4.909  -1.915  0.00  0.00    +0.258 C 
ATOM      3  O   UNL     1       1.490  -5.633  -1.029  0.00  0.00    -0.272 OA
ENDROOT
BRANCH   1   4
ATOM      4  C   UNL     1       3.502  -3.973  -0.343  0.00  0.00    +0.183 C 
BRANCH   4   9
ATOM      5  C   UNL     1       1.677  -0.020   2.203  0.00  0.00    +0.086 C 
ATOM      6  C   UNL     1       1.873  -1.431   1.710  0.00  0.00    +0.102 A 
ATOM      7  C   UNL     1       1.174  -2.508   2.109  0.00  0.00    +0.045 A 
ATOM      8  C   UNL     1       1.685  -3.616   1.395  0.00  0.00    +0.046 A 
ATOM      9  C   UNL     1       2.667  -3.150   0.603  0.00  0.00    +0.122 A 
ATOM     10  O   UNL     1       2.772  -1.824   0.793  0.00  0.00    -0.463 OA
ENDBRANCH   4   9
ENDBRANCH   1   4
BRANCH   1  11
ATOM     11  C   UNL     1       3.271  -3.059  -2.699  0.00  0.00    +0.193 C 
BRANCH  11  12
ATOM     12  C   UNL     1       2.150  -2.087  -2.962  0.00  0.00    -0.018 A 
ATOM     13  C   UNL     1       1.318  -1.694  -1.930  0.00  0.00    +0.006 A 
ATOM     14  C   UNL     1       0.290  -0.802  -2.172  0.00  0.00    +0.000 A 
ATOM     15  C   UNL     1       0.094  -0.303  -3.446  0.00  0.00    +0.000 A 
ATOM     16  C   UNL     1       0.926  -0.695  -4.478  0.00  0.00    +0.000 A 
ATOM     17  C   UNL     1       1.957  -1.583  -4.235  0.00  0.00    +0.006 A 
ENDBRANCH  11  12
BRANCH  11  18
ATOM     18  C   UNL     1       4.491  -2.305  -2.237  0.00  0.00    +0.238 C 
ATOM     19  O   UNL     1       4.539  -1.859  -1.111  0.00  0.00    -0.273 OA
ATOM     20  N   UNL     1       5.530  -2.127  -3.077  0.00  0.00    -0.309 N 
ATOM     21  H   UNL     1       5.493  -2.484  -3.978  0.00  0.00    +0.149 HD
BRANCH  20  22
ATOM     22  C   UNL     1       6.717  -1.394  -2.629  0.00  0.00    +0.026 C 
ATOM     23  C   UNL     1       7.333  -2.109  -1.425  0.00  0.00    +0.031 C 
ATOM     24  C   UNL     1       7.740  -1.336  -3.765  0.00  0.00    +0.031 C 
ATOM     25  C   UNL     1       6.318   0.027  -2.228  0.00  0.00    +0.031 C 
ENDBRANCH  20  22
ENDBRANCH  11  18
ENDBRANCH   1  11
BRANCH   2  26
ATOM     26  C   UNL     1       1.312  -5.019  -3.301  0.00  0.00    +0.192 C 
BRANCH  26  27
ATOM     27  C   UNL     1       0.757  -6.406  -3.504  0.00  0.00    -0.003 A 
ATOM     28  C   UNL     1      -0.191  -6.906  -2.631  0.00  0.00    +0.007 A 
ATOM     29  C   UNL     1      -0.700  -8.178  -2.818  0.00  0.00    +0.000 A 
ATOM     30  C   UNL     1      -0.261  -8.949  -3.878  0.00  0.00    +0.000 A 
ATOM     31  C   UNL     1       0.686  -8.448  -4.751  0.00  0.00    +0.000 A 
ATOM     32  C   UNL     1       1.192  -7.175  -4.567  0.00  0.00    +0.007 A 
ENDBRANCH  26  27
BRANCH  26  33
ATOM     33  C   UNL     1       0.207  -4.007  -3.464  0.00  0.00    -0.003 A 
ATOM     34  C   UNL     1      -0.538  -3.614  -2.368  0.00  0.00    +0.007 A 
ATOM     35  C   UNL     1      -1.551  -2.686  -2.518  0.00  0.00    +0.000 A 
ATOM     36  C   UNL     1      -1.820  -2.151  -3.764  0.00  0.00    +0.000 A 
ATOM     37  C   UNL     1      -1.074  -2.543  -4.859  0.00  0.00    +0.000 A 
ATOM     38  C   UNL     1      -0.058  -3.468  -4.709  0.00  0.00    +0.007 A 
ENDBRANCH  26  33
BRANCH  26  39
ATOM     39  O   UNL     1       2.334  -4.769  -4.267  0.00  0.00    -0.371 OA
ATOM     40  H   UNL     1       3.079  -5.384  -4.220  0.00  0.00    +0.212 HD
ENDBRANCH  26  39
ENDBRANCH   2  26
TORSDOF 10
