REMARK  Name = ZINC39755692
REMARK  15 active torsions:
REMARK  status: ('A' for Active; 'I' for Inactive)
REMARK    1  A    between atoms: C_1  and  C_2
REMARK    2  A    between atoms: C_2  and  N_3
REMARK    3  A    between atoms: C_4  and  CA_25
REMARK    4  A    between atoms: C_7  and  S_8
REMARK    5  A    between atoms: S_8  and  C_9
REMARK    6  A    between atoms: C_9  and  C_11
REMARK    7  A    between atoms: C_9  and  C_12
REMARK    8  A    between atoms: N_14  and  C_15
REMARK    9  A    between atoms: C_18  and  N_21
REMARK   10  A    between atoms: C_22  and  C_24
REMARK   11  A    between atoms: CA_25  and  C_27
REMARK   12  A    between atoms: CA_25  and  N_29
REMARK   13  A    between atoms: C_27  and  O_28
REMARK   14  A    between atoms: C_30  and  C_32
REMARK   15  A    between atoms: C_36  and  C_38
REMARK                            x       y       z     vdW  Elec       q    Type
REMARK                         _______ _______ _______ _____ _____    ______ ____
ROOT
ATOM      1  N   UNL     1       0.678  -0.426   1.162  0.00  0.00    -0.305 N 
ATOM      2  C   UNL     1       2.017  -0.684   1.268  0.00  0.00    +0.157 A 
ATOM      3  N   UNL     1       2.236  -1.110   2.480  0.00  0.00    -0.131 NA
ATOM      4  N   UNL     1       1.135  -1.139   3.143  0.00  0.00    -0.122 NA
ATOM      5  C   UNL     1       0.147  -0.725   2.384  0.00  0.00    +0.192 A 
ENDROOT
BRANCH   1   7
ATOM      6  C   UNL     1      -0.052   1.602   0.008  0.00  0.00    +0.027 C 
ATOM      7  C   UNL     1      -0.036   0.073  -0.015  0.00  0.00    +0.122 C 
ENDBRANCH   1   7
BRANCH   5   8
ATOM      8  S   UNL     1      -1.546  -0.583   2.853  0.00  0.00    -0.074 S 
BRANCH   8   9
ATOM      9  C   UNL     1      -1.569  -1.131   4.582  0.00  0.00    +0.137 C 
ATOM     10  C   UNL     1      -0.763  -0.152   5.438  0.00  0.00    +0.029 C 
BRANCH   9  11
ATOM     11  C   UNL     1      -2.993  -1.176   5.076  0.00  0.00    +0.230 C 
ATOM     12  O   UNL     1      -3.854  -0.546   4.499  0.00  0.00    -0.274 OA
ATOM     13  N   UNL     1      -3.308  -1.915   6.158  0.00  0.00    -0.285 N 
ATOM     14  H   UNL     1      -2.633  -2.471   6.579  0.00  0.00    +0.155 HD
BRANCH  13  15
ATOM     15  C   UNL     1      -4.609  -1.880   6.674  0.00  0.00    +0.034 A 
ATOM     16  C   UNL     1      -4.815  -1.968   8.045  0.00  0.00    +0.025 A 
ATOM     17  C   UNL     1      -6.097  -1.934   8.554  0.00  0.00    +0.025 A 
ATOM     18  C   UNL     1      -7.182  -1.812   7.696  0.00  0.00    +0.033 A 
ATOM     19  C   UNL     1      -6.977  -1.725   6.325  0.00  0.00    +0.025 A 
ATOM     20  C   UNL     1      -5.694  -1.753   5.816  0.00  0.00    +0.025 A 
BRANCH  18  21
ATOM     21  N   UNL     1      -8.484  -1.778   8.213  0.00  0.00    -0.286 N 
ATOM     22  C   UNL     1      -9.496  -2.347   7.528  0.00  0.00    +0.214 C 
ATOM     23  O   UNL     1      -9.296  -2.814   6.426  0.00  0.00    -0.276 OA
ATOM     24  C   UNL     1     -10.876  -2.403   8.130  0.00  0.00    +0.109 C 
ATOM     25  H   UNL     1      -8.657  -1.346   9.063  0.00  0.00    +0.155 HD
ENDBRANCH  18  21
ENDBRANCH  13  15
ENDBRANCH   9  11
ENDBRANCH   8   9
ENDBRANCH   5   8
BRANCH   2  26
ATOM     26  CA  UNL     1       3.049  -0.508   0.184  0.00  0.00    +0.167 C 
BRANCH  26  27
ATOM     27  N   UNL     1       4.232   0.154   0.738  0.00  0.00    -0.299 N 
ATOM     28  C   UNL     1       5.049   0.861  -0.069  0.00  0.00    +0.245 C 
ATOM     29  O   UNL     1       4.804   0.948  -1.256  0.00  0.00    -0.270 OA
ATOM     30  H   UNL     1       4.428   0.085   1.685  0.00  0.00    +0.150 HD
BRANCH  28  31
ATOM     31  C   UNL     1       6.243   1.530   0.491  0.00  0.00    +0.037 A 
ATOM     32  C   UNL     1       6.530   1.427   1.853  0.00  0.00    +0.013 A 
ATOM     33  C   UNL     1       7.646   2.053   2.368  0.00  0.00    +0.001 A 
ATOM     34  C   UNL     1       8.479   2.782   1.538  0.00  0.00    +0.003 A 
ATOM     35  C   UNL     1       8.200   2.888   0.187  0.00  0.00    -0.050 A 
ATOM     36  C   UNL     1       7.091   2.261  -0.342  0.00  0.00    +0.016 A 
ATOM     37  C   UNL     1       9.113   3.684  -0.709  0.00  0.00    +0.044 C 
ENDBRANCH  28  31
ENDBRANCH  26  27
BRANCH  26  38
ATOM     38  C   UNL     1       3.445  -1.878  -0.371  0.00  0.00    +0.186 C 
BRANCH  38  39
ATOM     39  O   UNL     1       3.881  -2.718   0.701  0.00  0.00    -0.393 OA
ATOM     40  H   UNL     1       4.148  -3.604   0.422  0.00  0.00    +0.209 HD
ENDBRANCH  38  39
ENDBRANCH  26  38
ENDBRANCH   2  26
TORSDOF 11
