REMARK  Name = ZINC38831594
REMARK  11 active torsions:
REMARK  status: ('A' for Active; 'I' for Inactive)
REMARK    1  A    between atoms: C_1  and  C_2
REMARK    2  A    between atoms: C_2  and  S_3
REMARK    3  A    between atoms: S_3  and  N_6
REMARK    4  A    between atoms: N_9  and  C_12
REMARK    5  A    between atoms: C_12  and  C_13
REMARK    6  A    between atoms: C_17  and  C_19
REMARK    7  A    between atoms: N_21  and  C_22
REMARK    8  A    between atoms: C_22  and  C_23
REMARK    9  A    between atoms: C_26  and  C_29
REMARK   10  A    between atoms: C_29  and  N_30
REMARK   11  A    between atoms: C_34  and  C_37
REMARK                            x       y       z     vdW  Elec       q    Type
REMARK                         _______ _______ _______ _____ _____    ______ ____
ROOT
ATOM      1  C   UNL     1      -3.518  -7.696   4.723  0.00  0.00    +0.244 C 
ATOM      2  O   UNL     1      -4.366  -6.849   4.928  0.00  0.00    -0.270 OA
ATOM      3  N   UNL     1      -3.137  -8.523   5.716  0.00  0.00    -0.307 N 
ATOM      4  H   UNL     1      -2.461  -9.198   5.553  0.00  0.00    +0.149 HD
ENDROOT
BRANCH   1   9
ATOM      5  C   UNL     1      -2.722  -7.083   1.104  0.00  0.00    -0.033 A 
ATOM      6  C   UNL     1      -1.757  -8.048   0.874  0.00  0.00    +0.005 A 
ATOM      7  C   UNL     1      -1.364  -8.898   1.891  0.00  0.00    +0.001 A 
ATOM      8  C   UNL     1      -1.932  -8.789   3.144  0.00  0.00    +0.013 A 
ATOM      9  C   UNL     1      -2.905  -7.818   3.383  0.00  0.00    +0.037 A 
ATOM     10  C   UNL     1      -3.294  -6.960   2.353  0.00  0.00    +0.018 A 
BRANCH   5  11
ATOM     11  C   UNL     1      -3.145  -6.161  -0.011  0.00  0.00    +0.119 C 
BRANCH  11  15
ATOM     12  N   UNL     1      -1.545  -2.281   0.005  0.00  0.00    -0.179 NA
ATOM     13  C   UNL     1      -1.481  -3.025  -1.262  0.00  0.00    +0.124 C 
ATOM     14  C   UNL     1      -2.511  -4.158  -1.214  0.00  0.00    +0.102 C 
ATOM     15  N   UNL     1      -2.291  -4.966  -0.008  0.00  0.00    -0.296 NA
ATOM     16  C   UNL     1      -2.500  -4.172   1.211  0.00  0.00    +0.102 C 
ATOM     17  C   UNL     1      -1.463  -3.039   1.262  0.00  0.00    +0.124 C 
BRANCH  12  18
ATOM     18  S   UNL     1      -1.700  -0.632   0.015  0.00  0.00    +0.032 S 
ATOM     19  O   UNL     1      -2.322  -0.334   1.257  0.00  0.00    -0.158 OA
ATOM     20  O   UNL     1      -2.346  -0.321  -1.212  0.00  0.00    -0.158 OA
BRANCH  18  22
ATOM     21  C   UNL     1      -0.019   1.526   0.010  0.00  0.00    +0.029 C 
ATOM     22  C   UNL     1       0.002  -0.004   0.002  0.00  0.00    +0.182 C 
ENDBRANCH  18  22
ENDBRANCH  12  18
ENDBRANCH  11  15
ENDBRANCH   5  11
ENDBRANCH   1   9
BRANCH   3  23
ATOM     23  C   UNL     1      -3.745  -8.402   7.044  0.00  0.00    +0.139 C 
BRANCH  23  24
ATOM     24  C   UNL     1      -3.149  -9.435   7.965  0.00  0.00    -0.030 A 
ATOM     25  C   UNL     1      -3.726 -10.687   8.064  0.00  0.00    +0.005 A 
ATOM     26  C   UNL     1      -3.180 -11.635   8.909  0.00  0.00    +0.002 A 
ATOM     27  C   UNL     1      -2.057 -11.331   9.655  0.00  0.00    -0.064 A 
ATOM     28  C   UNL     1      -1.479 -10.079   9.556  0.00  0.00    +0.002 A 
ATOM     29  C   UNL     1      -2.023  -9.132   8.707  0.00  0.00    +0.005 A 
BRANCH  27  30
ATOM     30  C   UNL     1      -1.462 -12.364  10.577  0.00  0.00    -0.043 C 
BRANCH  30  31
ATOM     31  N   UNL     1      -0.461 -13.154   9.847  0.00  0.00    +0.383 N 
ATOM     32  C   UNL     1       0.654 -12.284   9.453  0.00  0.00    -0.078 C 
ATOM     33  C   UNL     1       1.660 -13.084   8.622  0.00  0.00    -0.018 C 
ATOM     34  C   UNL     1       2.191 -14.251   9.459  0.00  0.00    -0.001 C 
ATOM     35  C   UNL     1       1.012 -15.110   9.927  0.00  0.00    -0.031 C 
ATOM     36  C   UNL     1       0.030 -14.235  10.709  0.00  0.00    -0.075 C 
ATOM     37  C   UNL     1       1.526 -16.235  10.828  0.00  0.00    +0.005 C 
ATOM     38  H   UNL     1      -0.885 -13.550   9.021  0.00  0.00    -0.081 HD
ENDBRANCH  30  31
ENDBRANCH  27  30
ENDBRANCH  23  24
ENDBRANCH   3  23
TORSDOF 9
