REMARK  Name = ZINC05873733
REMARK  9 active torsions:
REMARK  status: ('A' for Active; 'I' for Inactive)
REMARK    1  A    between atoms: C_1  and  C_2
REMARK    2  A    between atoms: C_2  and  O_3
REMARK    3  A    between atoms: O_3  and  C_4
REMARK    4  A    between atoms: C_7  and  C_10
REMARK    5  A    between atoms: C_12  and  C_19
REMARK    6  A    between atoms: C_13  and  C_18
REMARK    7  A    between atoms: N_21  and  C_22
REMARK    8  A    between atoms: C_25  and  C_29
REMARK    9  A    between atoms: C_27  and  C_28
REMARK                            x       y       z     vdW  Elec       q    Type
REMARK                         _______ _______ _______ _____ _____    ______ ____
ROOT
ATOM      1  C   UNL     1      -0.204   3.736  -0.368  0.00  0.00    +0.139 C 
ATOM      2  C   UNL     1      -1.198   2.710   0.136  0.00  0.00    +0.056 C 
ATOM      3  C   UNL     1      -0.732   1.479   0.437  0.00  0.00    +0.017 C 
ATOM      4  N   UNL     1       0.593   1.174   0.302  0.00  0.00    -0.300 N 
ATOM      5  C   UNL     1       1.513   2.041  -0.139  0.00  0.00    +0.135 C 
ATOM      6  S   UNL     1       3.141   1.527  -0.268  0.00  0.00    -0.019 S 
ATOM      7  N   UNL     1       1.200   3.306  -0.483  0.00  0.00    -0.315 N 
ATOM      8  C   UNL     1      -1.687   0.426   0.937  0.00  0.00    +0.061 C 
ATOM      9  H   UNL     1       0.882   0.278   0.535  0.00  0.00    +0.154 HD
ATOM     10  H   UNL     1       1.882   3.918  -0.800  0.00  0.00    +0.149 HD
ENDROOT
BRANCH   1  14
ATOM     11  C   UNL     1      -0.337   7.101   2.263  0.00  0.00    +0.121 A 
ATOM     12  C   UNL     1      -0.823   7.212   0.969  0.00  0.00    +0.046 A 
ATOM     13  C   UNL     1      -0.779   6.123   0.120  0.00  0.00    +0.009 A 
ATOM     14  C   UNL     1      -0.251   4.923   0.560  0.00  0.00    -0.022 A 
ATOM     15  C   UNL     1       0.229   4.808   1.852  0.00  0.00    +0.009 A 
ATOM     16  C   UNL     1       0.192   5.896   2.703  0.00  0.00    +0.046 A 
BRANCH  11  17
ATOM     17  O   UNL     1      -0.380   8.171   3.100  0.00  0.00    -0.492 OA
BRANCH  17  19
ATOM     18  C   UNL     1       0.007   9.289   5.208  0.00  0.00    +0.048 C 
ATOM     19  C   UNL     1       0.138   7.985   4.419  0.00  0.00    +0.225 C 
ENDBRANCH  17  19
ENDBRANCH  11  17
ENDBRANCH   1  14
BRANCH   2  20
ATOM     20  C   UNL     1      -2.570   3.029   0.282  0.00  0.00    +0.248 C 
ATOM     21  O   UNL     1      -3.332   2.224   0.785  0.00  0.00    -0.270 OA
ATOM     22  N   UNL     1      -3.032   4.224  -0.137  0.00  0.00    -0.281 N 
ATOM     23  H   UNL     1      -2.435   4.846  -0.580  0.00  0.00    +0.155 HD
BRANCH  22  24
ATOM     24  C   UNL     1      -4.372   4.566   0.069  0.00  0.00    +0.037 A 
ATOM     25  C   UNL     1      -5.321   3.572   0.273  0.00  0.00    +0.024 A 
ATOM     26  C   UNL     1      -6.643   3.914   0.480  0.00  0.00    +0.005 A 
ATOM     27  C   UNL     1      -7.024   5.243   0.474  0.00  0.00    -0.050 A 
ATOM     28  C   UNL     1      -6.083   6.235   0.266  0.00  0.00    +0.008 A 
ATOM     29  C   UNL     1      -4.758   5.900   0.063  0.00  0.00    -0.029 A 
ATOM     30  C   UNL     1      -3.733   6.981  -0.164  0.00  0.00    +0.045 C 
ATOM     31  C   UNL     1      -8.469   5.612   0.695  0.00  0.00    +0.044 C 
ENDBRANCH  22  24
ENDBRANCH   2  20
TORSDOF 5
