REMARK  Name = ZINC35483451
REMARK  18 active torsions:
REMARK  status: ('A' for Active; 'I' for Inactive)
REMARK    1  A    between atoms: C_1  and  C_2
REMARK    2  A    between atoms: C_2  and  C_3
REMARK    3  A    between atoms: C_3  and  C_4
REMARK    4  A    between atoms: C_4  and  N_5
REMARK    5  A    between atoms: N_5  and  C_6
REMARK    6  A    between atoms: N_5  and  C_10
REMARK    7  A    between atoms: C_6  and  C_7
REMARK    8  A    between atoms: C_7  and  C_8
REMARK    9  A    between atoms: C_8  and  C_9
REMARK   10  A    between atoms: C_10  and  C_11
REMARK   11  A    between atoms: C_11  and  C_12
REMARK   12  A    between atoms: C_12  and  N_13
REMARK   13  A    between atoms: C_14  and  C_29
REMARK   14  A    between atoms: C_32  and  O_37
REMARK   15  A    between atoms: C_33  and  O_35
REMARK   16  A    between atoms: O_35  and  C_36
REMARK   17  A    between atoms: O_37  and  C_38
REMARK   18  A    between atoms: C_38  and  C_39
REMARK                            x       y       z     vdW  Elec       q    Type
REMARK                         _______ _______ _______ _____ _____    ______ ____
ROOT
ATOM      1  N   UNL     1       2.402  -6.720   4.428  0.00  0.00    -0.284 N 
ATOM      2  C   UNL     1       3.802  -7.165   4.517  0.00  0.00    +0.145 C 
ATOM      3  C   UNL     1       3.950  -7.774   5.873  0.00  0.00    +0.072 A 
ATOM      4  C   UNL     1       5.103  -8.396   6.533  0.00  0.00    +0.199 A 
ATOM      5  O   UNL     1       6.234  -8.351   6.082  0.00  0.00    -0.287 OA
ATOM      6  C   UNL     1       4.761  -9.085   7.803  0.00  0.00    +0.064 A 
ATOM      7  C   UNL     1       5.701  -9.890   8.445  0.00  0.00    +0.015 A 
ATOM      8  C   UNL     1       5.369 -10.522   9.611  0.00  0.00    +0.001 A 
ATOM      9  C   UNL     1       4.101 -10.365  10.154  0.00  0.00    +0.004 A 
ATOM     10  C   UNL     1       3.162  -9.572   9.534  0.00  0.00    +0.047 A 
ATOM     11  C   UNL     1       3.477  -8.915   8.345  0.00  0.00    +0.139 A 
ATOM     12  O   UNL     1       2.542  -8.134   7.758  0.00  0.00    -0.450 OA
ATOM     13  C   UNL     1       2.743  -7.679   6.506  0.00  0.00    +0.199 A 
ATOM     14  C   UNL     1       1.793  -7.019   5.593  0.00  0.00    +0.283 C 
ATOM     15  O   UNL     1       0.631  -6.781   5.852  0.00  0.00    -0.267 OA
ENDROOT
BRANCH   2  16
ATOM     16  C   UNL     1       4.733  -5.989   4.369  0.00  0.00    -0.019 A 
ATOM     17  C   UNL     1       4.426  -4.786   4.976  0.00  0.00    +0.009 A 
ATOM     18  C   UNL     1       5.276  -3.704   4.843  0.00  0.00    +0.050 A 
ATOM     19  C   UNL     1       6.440  -3.825   4.101  0.00  0.00    +0.162 A 
ATOM     20  C   UNL     1       6.750  -5.036   3.491  0.00  0.00    +0.162 A 
ATOM     21  C   UNL     1       5.895  -6.118   3.632  0.00  0.00    +0.055 A 
BRANCH  20  22
ATOM     22  O   UNL     1       7.891  -5.160   2.761  0.00  0.00    -0.491 OA
ATOM     23  C   UNL     1       8.144  -6.433   2.163  0.00  0.00    +0.277 C 
ENDBRANCH  20  22
BRANCH  19  24
ATOM     24  O   UNL     1       7.277  -2.762   3.969  0.00  0.00    -0.489 OA
BRANCH  24  25
ATOM     25  C   UNL     1       6.895  -1.550   4.623  0.00  0.00    +0.226 C 
ATOM     26  C   UNL     1       7.952  -0.475   4.363  0.00  0.00    +0.048 C 
ENDBRANCH  24  25
ENDBRANCH  19  24
ENDBRANCH   2  16
BRANCH   1  27
ATOM     27  C   UNL     1       1.781  -6.060   3.276  0.00  0.00    +0.107 C 
BRANCH  27  28
ATOM     28  C   UNL     1       1.946  -4.545   3.406  0.00  0.00    +0.000 C 
BRANCH  28  29
ATOM     29  C   UNL     1       1.297  -3.856   2.204  0.00  0.00    -0.077 C 
BRANCH  29  30
ATOM     30  N   UNL     1       1.460  -2.401   2.326  0.00  0.00    +0.380 N 
ATOM     31  H   UNL     1       1.012  -1.946   1.545  0.00  0.00    -0.082 HD
BRANCH  30  32
ATOM     32  C   UNL     1       0.845  -1.943   3.579  0.00  0.00    -0.079 C 
BRANCH  32  33
ATOM     33  C   UNL     1       0.905  -0.416   3.647  0.00  0.00    -0.019 C 
BRANCH  33  35
ATOM     34  C   UNL     1       0.323   1.589   5.021  0.00  0.00    +0.004 C 
ATOM     35  C   UNL     1       0.264   0.061   4.952  0.00  0.00    -0.005 C 
ENDBRANCH  33  35
ENDBRANCH  32  33
ENDBRANCH  30  32
BRANCH  30  36
ATOM     36  C   UNL     1       2.891  -2.068   2.332  0.00  0.00    -0.079 C 
BRANCH  36  37
ATOM     37  C   UNL     1       3.507  -2.439   0.981  0.00  0.00    -0.019 C 
BRANCH  37  38
ATOM     38  C   UNL     1       4.962  -1.969   0.938  0.00  0.00    -0.005 C 
ATOM     39  C   UNL     1       5.578  -2.340  -0.413  0.00  0.00    +0.004 C 
ENDBRANCH  37  38
ENDBRANCH  36  37
ENDBRANCH  30  36
ENDBRANCH  29  30
ENDBRANCH  28  29
ENDBRANCH  27  28
ENDBRANCH   1  27
TORSDOF 14
