REMARK  Name = ZINC39656960
REMARK  6 active torsions:
REMARK  status: ('A' for Active; 'I' for Inactive)
REMARK    1  A    between atoms: C_1  and  C_2
REMARK    2  A    between atoms: C_2  and  C_4
REMARK    3  A    between atoms: C_2  and  N_11
REMARK    4  A    between atoms: C_12  and  C_14
REMARK    5  A    between atoms: C_25  and  C_27
REMARK    6  A    between atoms: C_27  and  C_33
REMARK                            x       y       z     vdW  Elec       q    Type
REMARK                         _______ _______ _______ _____ _____    ______ ____
ROOT
ATOM      1  C   UNL     1       2.775  -1.319   2.957  0.00  0.00    +0.100 C 
ATOM      2  C   UNL     1       2.164  -2.736   3.035  0.00  0.00    +0.121 C 
ATOM      3  N   UNL     1       3.158  -3.610   2.370  0.00  0.00    -0.300 N 
ATOM      4  C   UNL     1       4.470  -3.081   2.813  0.00  0.00    +0.115 C 
ATOM      5  C   UNL     1       4.289  -1.550   2.815  0.00  0.00    -0.004 C 
ATOM      6  C   UNL     1       5.031  -0.932   3.996  0.00  0.00    -0.010 C 
ATOM      7  C   UNL     1       6.538  -1.123   3.803  0.00  0.00    -0.082 C 
ATOM      8  N   UNL     1       6.957  -0.486   2.549  0.00  0.00    +0.379 N 
ATOM      9  C   UNL     1       6.309  -1.148   1.410  0.00  0.00    -0.082 C 
ATOM     10  C   UNL     1       4.793  -0.958   1.502  0.00  0.00    -0.010 C 
ATOM     11  C   UNL     1       2.922  -4.652   1.547  0.00  0.00    +0.222 C 
ATOM     12  O   UNL     1       1.787  -4.917   1.214  0.00  0.00    -0.275 OA
ATOM     13  H   UNL     1       6.694   0.488   2.564  0.00  0.00    -0.086 HD
ATOM     14  H   UNL     1       7.959  -0.560   2.454  0.00  0.00    -0.086 HD
ENDROOT
BRANCH  11  15
ATOM     15  C   UNL     1       4.071  -5.487   1.042  0.00  0.00    +0.044 C 
ATOM     16  C   UNL     1       4.946  -4.642   0.113  0.00  0.00    +0.016 C 
ATOM     17  C   UNL     1       4.109  -4.154  -1.071  0.00  0.00    +0.001 C 
ATOM     18  C   UNL     1       3.564  -5.358  -1.841  0.00  0.00    +0.000 C 
ATOM     19  C   UNL     1       2.689  -6.203  -0.913  0.00  0.00    +0.001 C 
ATOM     20  C   UNL     1       3.525  -6.691   0.272  0.00  0.00    +0.016 C 
ATOM     21  C   UNL     1       4.907  -5.975   2.226  0.00  0.00    +0.021 C 
ENDBRANCH  11  15
BRANCH   1  23
ATOM     22  N   UNL     1       2.134   0.760   1.781  0.00  0.00    -0.308 N 
ATOM     23  C   UNL     1       2.241  -0.583   1.756  0.00  0.00    +0.219 C 
ATOM     24  O   UNL     1       1.909  -1.199   0.765  0.00  0.00    -0.275 OA
ATOM     25  H   UNL     1       2.399   1.253   2.573  0.00  0.00    +0.149 HD
BRANCH  22  27
ATOM     26  C   UNL     1       2.754   1.733  -0.375  0.00  0.00    +0.033 C 
ATOM     27  C   UNL     1       1.615   1.476   0.613  0.00  0.00    +0.100 C 
BRANCH  27  28
ATOM     28  C   UNL     1       1.024   2.791   1.051  0.00  0.00    -0.027 A 
ATOM     29  C   UNL     1       1.657   3.544   2.023  0.00  0.00    +0.006 A 
ATOM     30  C   UNL     1       1.115   4.750   2.425  0.00  0.00    +0.015 A 
ATOM     31  C   UNL     1      -0.061   5.204   1.855  0.00  0.00    +0.018 A 
ATOM     32  C   UNL     1      -0.694   4.450   0.883  0.00  0.00    +0.015 A 
ATOM     33  C   UNL     1      -0.149   3.247   0.478  0.00  0.00    +0.006 A 
ATOM     34 BR   UNL     1      -0.803   6.854   2.405  0.00  0.00    -0.050 Br
ENDBRANCH  27  28
ENDBRANCH  22  27
ENDBRANCH   1  23
TORSDOF 4
