REMARK  Name = ZINC63486019
REMARK  9 active torsions:
REMARK  status: ('A' for Active; 'I' for Inactive)
REMARK    1  A    between atoms: C_1  and  C_2
REMARK    2  A    between atoms: C_3  and  O_33
REMARK    3  A    between atoms: C_11  and  C_16
REMARK    4  A    between atoms: C_13  and  C_15
REMARK    5  A    between atoms: C_16  and  C_17
REMARK    6  A    between atoms: C_17  and  C_18
REMARK    7  A    between atoms: N_20  and  C_21
REMARK    8  A    between atoms: C_21  and  C_22
REMARK    9  A    between atoms: C_22  and  C_23
REMARK                            x       y       z     vdW  Elec       q    Type
REMARK                         _______ _______ _______ _____ _____    ______ ____
ROOT
ATOM      1  C   UNL     1       2.544  -1.042   4.747  0.00  0.00    +0.096 C 
ENDROOT
BRANCH   1   2
ATOM      2  C   UNL     1       4.039  -0.871   4.660  0.00  0.00    +0.213 C 
ATOM      3  O   UNL     1       4.650  -1.344   3.726  0.00  0.00    -0.276 OA
ATOM      4  N   UNL     1       4.696  -0.191   5.620  0.00  0.00    -0.315 N 
ATOM      5  H   UNL     1       4.207   0.188   6.368  0.00  0.00    +0.149 HD
BRANCH   4   6
ATOM      6  C   UNL     1       6.149  -0.024   5.535  0.00  0.00    +0.108 C 
BRANCH   6   7
ATOM      7  C   UNL     1       6.641   0.780   6.741  0.00  0.00    +0.052 C 
BRANCH   7   8
ATOM      8  C   UNL     1       8.136   0.952   6.654  0.00  0.00    -0.040 C 
ATOM      9  C   UNL     1       8.804   2.009   6.139  0.00  0.00    +0.002 A 
ATOM     10  C   UNL     1       8.356   3.267   5.530  0.00  0.00    +0.048 A 
ATOM     11  C   UNL     1       9.284   4.153   5.097  0.00  0.00    +0.124 A 
ATOM     12  C   UNL     1      10.659   3.899   5.216  0.00  0.00    +0.040 A 
ATOM     13  C   UNL     1      11.146   2.766   5.765  0.00  0.00    +0.029 A 
ATOM     14  C   UNL     1      10.260   1.765   6.253  0.00  0.00    +0.043 A 
ATOM     15  N   UNL     1      10.483   0.603   6.816  0.00  0.00    -0.380 N 
ATOM     16  C   UNL     1       9.192  -0.021   7.130  0.00  0.00    +0.144 C 
ATOM     17  F   UNL     1       8.875   5.312   4.535  0.00  0.00    -0.205 F 
ATOM     18  H   UNL     1      11.355   0.220   6.999  0.00  0.00    +0.160 HD
ENDBRANCH   7   8
ENDBRANCH   6   7
ENDBRANCH   4   6
ENDBRANCH   1   2
BRANCH   1  19
ATOM     19  C   UNL     1       2.052  -1.846   3.542  0.00  0.00    +0.024 C 
BRANCH  19  30
ATOM     20  C   UNL     1      -0.018   1.503   0.010  0.00  0.00    +0.051 C 
ATOM     21  C   UNL     1       0.002  -0.004   0.002  0.00  0.00    +0.034 A 
ATOM     22  C   UNL     1       0.006  -0.688  -1.202  0.00  0.00    +0.123 A 
ATOM     23  C   UNL     1       0.024  -2.076  -1.207  0.00  0.00    +0.046 A 
ATOM     24  C   UNL     1       0.035  -2.768  -0.013  0.00  0.00    +0.011 A 
ATOM     25  C   UNL     1       0.029  -2.088   1.195  0.00  0.00    -0.001 A 
ATOM     26  C   UNL     1       0.023  -0.704   1.203  0.00  0.00    +0.141 A 
ATOM     27  O   UNL     1       0.043   0.007   2.363  0.00  0.00    -0.425 OA
ATOM     28  C   UNL     1      -0.146  -0.671   3.513  0.00  0.00    +0.316 C 
ATOM     29  O   UNL     1      -0.826  -0.225   4.407  0.00  0.00    -0.250 OA
ATOM     30  C   UNL     1       0.534  -2.020   3.631  0.00  0.00    +0.106 C 
ATOM     31  C   UNL     1       0.029  -2.891   2.471  0.00  0.00    +0.033 C 
ATOM     32  C   UNL     1      -1.390  -3.381   2.763  0.00  0.00    +0.013 C 
BRANCH  22  33
ATOM     33  O   UNL     1      -0.009  -0.003  -2.376  0.00  0.00    -0.506 OA
ATOM     34  H   UNL     1       0.870   0.207  -2.720  0.00  0.00    +0.292 HD
ENDBRANCH  22  33
ENDBRANCH  19  30
ENDBRANCH   1  19
TORSDOF 7
