REMARK  Name = ZINC37367917
REMARK  4 active torsions:
REMARK  status: ('A' for Active; 'I' for Inactive)
REMARK    1  A    between atoms: C_1  and  C_2
REMARK    2  A    between atoms: C_7  and  N_8
REMARK    3  A    between atoms: N_8  and  C_9
REMARK    4  A    between atoms: C_18  and  N_19
REMARK                            x       y       z     vdW  Elec       q    Type
REMARK                         _______ _______ _______ _____ _____    ______ ____
ROOT
ATOM      1  C   UNL     1      -0.057  -0.766   3.585  0.00  0.00    +0.063 A 
ATOM      2  C   UNL     1      -0.472  -0.177   4.801  0.00  0.00    +0.022 A 
ATOM      3  C   UNL     1      -0.838   1.175   4.869  0.00  0.00    +0.027 A 
ATOM      4  C   UNL     1      -1.233   1.708   6.059  0.00  0.00    +0.019 A 
ATOM      5  C   UNL     1      -1.277   0.925   7.212  0.00  0.00    +0.017 A 
ATOM      6  C   UNL     1      -0.928  -0.391   7.181  0.00  0.00    +0.027 A 
ATOM      7  C   UNL     1      -0.516  -0.975   5.970  0.00  0.00    +0.048 A 
ATOM      8  N   UNL     1      -0.170  -2.266   5.914  0.00  0.00    -0.359 N 
ATOM      9  C   UNL     1       0.217  -2.829   4.793  0.00  0.00    +0.107 A 
ATOM     10  C   UNL     1       0.284  -2.114   3.598  0.00  0.00    +0.063 A 
ATOM     11 BR   UNL     1      -1.726   3.531   6.149  0.00  0.00    -0.050 Br
ATOM     12  H   UNL     1      -0.205  -2.800   6.723  0.00  0.00    +0.165 HD
ENDROOT
BRANCH  10  13
ATOM     13  N   UNL     1       0.697  -2.749   2.418  0.00  0.00    -0.355 N 
ATOM     14  H   UNL     1       0.822  -2.232   1.607  0.00  0.00    +0.142 HD
ATOM     15  H   UNL     1       0.856  -3.706   2.413  0.00  0.00    +0.142 HD
ENDBRANCH  10  13
BRANCH   1  16
ATOM     16  N   UNL     1       0.002  -0.022   2.411  0.00  0.00    -0.312 N 
ATOM     17  H   UNL     1      -0.760  -0.001   1.811  0.00  0.00    +0.152 HD
BRANCH  16  24
ATOM     18  C   UNL     1       0.132   1.271  -0.120  0.00  0.00    +0.045 C 
ATOM     19  C   UNL     1       1.265   1.342   0.871  0.00  0.00    -0.029 A 
ATOM     20  C   UNL     1       2.408   2.054   0.564  0.00  0.00    +0.006 A 
ATOM     21  C   UNL     1       3.448   2.120   1.472  0.00  0.00    +0.015 A 
ATOM     22  C   UNL     1       3.349   1.472   2.691  0.00  0.00    +0.020 A 
ATOM     23  C   UNL     1       2.208   0.758   3.004  0.00  0.00    +0.038 A 
ATOM     24  C   UNL     1       1.159   0.695   2.095  0.00  0.00    +0.035 A 
ATOM     25 BR   UNL     1       4.774   1.565   3.930  0.00  0.00    -0.050 Br
ENDBRANCH  16  24
ENDBRANCH   1  16
TORSDOF 3
