REMARK  Name = ZINC16885258
REMARK  13 active torsions:
REMARK  status: ('A' for Active; 'I' for Inactive)
REMARK    1  A    between atoms: C_1  and  C_2
REMARK    2  A    between atoms: C_3  and  C_32
REMARK    3  A    between atoms: N_6  and  C_24
REMARK    4  A    between atoms: N_9  and  N_10
REMARK    5  A    between atoms: N_10  and  C_11
REMARK    6  A    between atoms: C_14  and  C_17
REMARK    7  A    between atoms: C_17  and  O_19
REMARK    8  A    between atoms: O_19  and  C_20
REMARK    9  A    between atoms: C_20  and  C_21
REMARK   10  A    between atoms: C_21  and  C_22
REMARK   11  A    between atoms: C_21  and  C_23
REMARK   12  A    between atoms: C_24  and  C_25
REMARK   13  A    between atoms: C_32  and  C_33
REMARK                            x       y       z     vdW  Elec       q    Type
REMARK                         _______ _______ _______ _____ _____    ______ ____
ROOT
ATOM      1  C   UNL     1      -1.332   2.061   0.019  0.00  0.00    +0.066 C 
ATOM      2  C   UNL     1      -0.016   1.327   0.009  0.00  0.00    +0.050 A 
ATOM      3  C   UNL     1       1.155   2.027   0.002  0.00  0.00    +0.042 A 
ATOM      4  C   UNL     1       2.370   1.320  -0.013  0.00  0.00    +0.259 A 
ATOM      5  O   UNL     1       3.436   1.914  -0.021  0.00  0.00    -0.267 OA
ATOM      6  N   UNL     1       2.335  -0.030  -0.020  0.00  0.00    -0.275 N 
ATOM      7  C   UNL     1       1.137  -0.675  -0.012  0.00  0.00    +0.215 A 
ATOM      8  N   UNL     1       0.002  -0.004   0.002  0.00  0.00    -0.219 NA
ATOM      9  N   UNL     1       1.109  -2.043  -0.020  0.00  0.00    -0.236 N 
ATOM     10  H   UNL     1       1.940  -2.545  -0.031  0.00  0.00    +0.173 HD
ENDROOT
BRANCH   9  11
ATOM     11  N   UNL     1      -0.118  -2.719  -0.012  0.00  0.00    -0.264 N 
ATOM     12  H   UNL     1      -0.948  -2.218  -0.002  0.00  0.00    +0.170 HD
BRANCH  11  13
ATOM     13  C   UNL     1      -0.146  -4.109  -0.020  0.00  0.00    +0.044 A 
ATOM     14  C   UNL     1       1.047  -4.828  -0.041  0.00  0.00    +0.025 A 
ATOM     15  C   UNL     1       1.023  -6.199  -0.043  0.00  0.00    +0.017 A 
ATOM     16  C   UNL     1      -0.201  -6.875  -0.035  0.00  0.00    +0.059 A 
ATOM     17  C   UNL     1      -1.397  -6.150  -0.019  0.00  0.00    +0.017 A 
ATOM     18  C   UNL     1      -1.366  -4.779  -0.012  0.00  0.00    +0.025 A 
BRANCH  16  19
ATOM     19  C   UNL     1      -0.231  -8.349  -0.042  0.00  0.00    +0.339 C 
ATOM     20  O   UNL     1      -1.295  -8.935  -0.035  0.00  0.00    -0.245 OA
BRANCH  19  21
ATOM     21  O   UNL     1       0.922  -9.046  -0.057  0.00  0.00    -0.461 OA
BRANCH  21  22
ATOM     22  C   UNL     1       0.818 -10.494  -0.063  0.00  0.00    +0.235 C 
BRANCH  22  23
ATOM     23  C   UNL     1       2.219 -11.107  -0.080  0.00  0.00    +0.020 C 
ATOM     24  C   UNL     1       2.112 -12.628   0.039  0.00  0.00    +0.010 C 
ATOM     25  C   UNL     1       2.918 -10.746  -1.392  0.00  0.00    +0.010 C 
ENDBRANCH  22  23
ENDBRANCH  21  22
ENDBRANCH  19  21
ENDBRANCH  16  19
ENDBRANCH  11  13
ENDBRANCH   9  11
BRANCH   6  26
ATOM     26  C   UNL     1       3.583  -0.798  -0.036  0.00  0.00    +0.163 C 
BRANCH  26  27
ATOM     27  C   UNL     1       3.997  -1.054  -1.462  0.00  0.00    -0.027 A 
ATOM     28  C   UNL     1       3.564  -2.194  -2.113  0.00  0.00    +0.007 A 
ATOM     29  C   UNL     1       3.939  -2.426  -3.423  0.00  0.00    +0.020 A 
ATOM     30  C   UNL     1       4.758  -1.524  -4.079  0.00  0.00    +0.041 A 
ATOM     31  C   UNL     1       5.195  -0.386  -3.424  0.00  0.00    +0.020 A 
ATOM     32  C   UNL     1       4.815  -0.151  -2.116  0.00  0.00    +0.007 A 
ATOM     33 CL   UNL     1       5.235  -1.819  -5.721  0.00  0.00    -0.084 Cl
ENDBRANCH  26  27
ENDBRANCH   6  26
BRANCH   3  34
ATOM     34  C   UNL     1       1.146   3.534   0.011  0.00  0.00    +0.077 C 
BRANCH  34  35
ATOM     35  C   UNL     1       1.281   4.029   1.428  0.00  0.00    -0.043 A 
ATOM     36  C   UNL     1       0.151   4.254   2.192  0.00  0.00    +0.004 A 
ATOM     37  C   UNL     1       0.275   4.704   3.493  0.00  0.00    +0.000 A 
ATOM     38  C   UNL     1       1.528   4.938   4.027  0.00  0.00    +0.000 A 
ATOM     39  C   UNL     1       2.658   4.718   3.261  0.00  0.00    +0.000 A 
ATOM     40  C   UNL     1       2.534   4.264   1.962  0.00  0.00    +0.004 A 
ENDBRANCH  34  35
ENDBRANCH   3  34
TORSDOF 10
