REMARK  Name = ZINC05271236
REMARK  7 active torsions:
REMARK  status: ('A' for Active; 'I' for Inactive)
REMARK    1  A    between atoms: C_1  and  C_2
REMARK    2  A    between atoms: C_2  and  O_3
REMARK    3  A    between atoms: O_3  and  C_4
REMARK    4  A    between atoms: C_9  and  N_10
REMARK    5  A    between atoms: C_13  and  C_23
REMARK    6  A    between atoms: C_15  and  C_17
REMARK    7  A    between atoms: C_20  and  C_22
REMARK                            x       y       z     vdW  Elec       q    Type
REMARK                         _______ _______ _______ _____ _____    ______ ____
ROOT
ATOM      1  N   UNL     1      -3.446  -1.960   6.150  0.00  0.00    -0.241 N 
ATOM      2  C   UNL     1      -3.184  -0.692   5.662  0.00  0.00    +0.170 A 
ATOM      3  C   UNL     1      -3.720   0.217   6.593  0.00  0.00    +0.117 A 
ATOM      4  C   UNL     1      -3.593   1.584   6.342  0.00  0.00    +0.154 A 
ATOM      5  N   UNL     1      -2.970   1.974   5.230  0.00  0.00    -0.218 NA
ATOM      6  C   UNL     1      -2.479   1.085   4.377  0.00  0.00    +0.198 A 
ATOM      7  N   UNL     1      -2.586  -0.225   4.580  0.00  0.00    -0.205 NA
ATOM      8  N   UNL     1      -4.284  -0.535   7.608  0.00  0.00    -0.303 N 
ATOM      9  H   UNL     1      -4.731  -0.184   8.394  0.00  0.00    +0.171 HD
ATOM     10  C   UNL     1      -4.107  -1.838   7.318  0.00  0.00    +0.333 A 
ATOM     11  O   UNL     1      -4.485  -2.767   8.007  0.00  0.00    -0.246 OA
ENDROOT
BRANCH   1  17
ATOM     12  C   UNL     1      -1.854  -3.753   5.815  0.00  0.00    +0.144 A 
ATOM     13  C   UNL     1      -1.504  -4.948   5.206  0.00  0.00    +0.048 A 
ATOM     14  C   UNL     1      -2.372  -5.550   4.315  0.00  0.00    +0.004 A 
ATOM     15  C   UNL     1      -3.593  -4.966   4.032  0.00  0.00    +0.002 A 
ATOM     16  C   UNL     1      -3.951  -3.777   4.638  0.00  0.00    +0.030 A 
ATOM     17  C   UNL     1      -3.085  -3.167   5.534  0.00  0.00    +0.094 A 
BRANCH  12  18
ATOM     18  O   UNL     1      -0.998  -3.157   6.688  0.00  0.00    -0.490 OA
BRANCH  18  20
ATOM     19  C   UNL     1       1.069  -3.002   7.929  0.00  0.00    +0.048 C 
ATOM     20  C   UNL     1       0.247  -3.816   6.928  0.00  0.00    +0.226 C 
ENDBRANCH  18  20
ENDBRANCH  12  18
ENDBRANCH   1  17
BRANCH   6  21
ATOM     21  C   UNL     1      -1.797   1.566   3.159  0.00  0.00    +0.172 A 
ATOM     22  C   UNL     1      -1.613   2.867   2.808  0.00  0.00    +0.053 A 
ATOM     23  C   UNL     1      -0.916   2.862   1.585  0.00  0.00    +0.045 A 
ATOM     24  C   UNL     1      -0.718   1.572   1.248  0.00  0.00    +0.103 A 
ATOM     25  O   UNL     1      -1.248   0.792   2.203  0.00  0.00    -0.457 OA
ATOM     26  C   UNL     1      -0.013   1.086   0.008  0.00  0.00    +0.086 C 
ENDBRANCH   6  21
BRANCH   4  27
ATOM     27  C   UNL     1      -4.139   2.581   7.292  0.00  0.00    +0.262 C 
ATOM     28  O   UNL     1      -4.705   2.211   8.302  0.00  0.00    -0.269 OA
ATOM     29  N   UNL     1      -4.008   3.897   7.036  0.00  0.00    -0.324 N 
ATOM     30  H   UNL     1      -3.557   4.192   6.230  0.00  0.00    +0.145 HD
ATOM     31  H   UNL     1      -4.366   4.550   7.658  0.00  0.00    +0.145 HD
ENDBRANCH   4  27
TORSDOF 5
