REMARK  Name = ZINC38143768
REMARK  17 active torsions:
REMARK  status: ('A' for Active; 'I' for Inactive)
REMARK    1  A    between atoms: C_1  and  C_2
REMARK    2  A    between atoms: C_4  and  O_42
REMARK    3  A    between atoms: C_6  and  C_31
REMARK    4  A    between atoms: C_8  and  C_30
REMARK    5  A    between atoms: C_12  and  C_29
REMARK    6  A    between atoms: C_21  and  O_28
REMARK    7  A    between atoms: C_25  and  C_26
REMARK    8  A    between atoms: C_25  and  C_27
REMARK    9  A    between atoms: C_31  and  C_32
REMARK   10  A    between atoms: C_31  and  C_33
REMARK   11  A    between atoms: C_31  and  O_41
REMARK   12  A    between atoms: C_33  and  C_35
REMARK   13  A    between atoms: C_35  and  C_36
REMARK   14  A    between atoms: C_36  and  C_37
REMARK   15  A    between atoms: C_37  and  C_38
REMARK   16  A    between atoms: C_37  and  C_39
REMARK   17  A    between atoms: C_37  and  O_40
REMARK                            x       y       z     vdW  Elec       q    Type
REMARK                         _______ _______ _______ _____ _____    ______ ____
ROOT
ATOM      1  C   UNL     1       0.379   1.224  -1.583  0.00  0.00    +0.012 C 
ATOM      2  C   UNL     1       0.730  -0.229  -1.995  0.00  0.00    -0.020 C 
ATOM      3  C   UNL     1       1.671  -0.125  -3.205  0.00  0.00    +0.039 C 
ATOM      4  C   UNL     1       3.007   0.339  -2.563  0.00  0.00    +0.122 C 
ATOM      5  C   UNL     1       2.963  -0.099  -1.081  0.00  0.00    +0.063 C 
ATOM      6  C   UNL     1       1.639  -0.863  -0.929  0.00  0.00    -0.011 C 
ATOM      7  C   UNL     1       0.971  -0.844   0.419  0.00  0.00    +0.082 C 
ATOM      8  C   UNL     1      -0.500  -1.225   0.305  0.00  0.00    +0.141 C 
ATOM      9  O   UNL     1      -1.214  -1.129   1.294  0.00  0.00    -0.297 OA
ATOM     10  C   UNL     1      -1.080  -1.724  -0.987  0.00  0.00    +0.036 C 
ATOM     11  C   UNL     1      -0.572  -0.917  -2.176  0.00  0.00    +0.013 C 
ATOM     12  C   UNL     1      -0.839  -1.677  -3.464  0.00  0.00    +0.032 C 
ATOM     13  C   UNL     1      -2.332  -1.942  -3.491  0.00  0.00    -0.026 C 
ATOM     14  C   UNL     1      -3.091  -1.865  -2.443  0.00  0.00    -0.057 C 
ATOM     15  C   UNL     1      -2.605  -1.591  -1.035  0.00  0.00    +0.032 C 
ATOM     16  C   UNL     1      -3.118  -0.248  -0.555  0.00  0.00    +0.048 C 
ATOM     17  C   UNL     1      -4.618  -0.125  -0.845  0.00  0.00    +0.182 C 
ATOM     18  C   UNL     1      -5.174  -1.456  -1.295  0.00  0.00    +0.171 C 
ATOM     19  O   UNL     1      -6.050  -2.010  -0.673  0.00  0.00    -0.294 OA
ATOM     20  C   UNL     1      -4.596  -2.078  -2.559  0.00  0.00    +0.047 C 
ATOM     21  C   UNL     1      -5.158  -1.369  -3.792  0.00  0.00    +0.023 C 
ATOM     22  C   UNL     1      -4.920  -3.571  -2.609  0.00  0.00    +0.023 C 
ATOM     23  C   UNL     1      -0.823  -3.229  -1.125  0.00  0.00    +0.020 C 
ATOM     24  C   UNL     1       2.016  -2.312  -1.309  0.00  0.00    +0.012 C 
ENDROOT
BRANCH  17  25
ATOM     25  O   UNL     1      -5.288   0.286   0.349  0.00  0.00    -0.384 OA
ATOM     26  H   UNL     1      -6.244   0.387   0.248  0.00  0.00    +0.210 HD
ENDBRANCH  17  25
BRANCH   5  27
ATOM     27  C   UNL     1       3.138   1.064  -0.125  0.00  0.00    +0.126 C 
ATOM     28  C   UNL     1       4.462   1.771  -0.420  0.00  0.00    +0.050 C 
BRANCH  27  29
ATOM     29  C   UNL     1       3.148   0.552   1.293  0.00  0.00    +0.165 C 
ATOM     30  O   UNL     1       3.553  -0.560   1.530  0.00  0.00    -0.294 OA
BRANCH  29  31
ATOM     31  C   UNL     1       2.651   1.429   2.413  0.00  0.00    +0.080 C 
BRANCH  31  32
ATOM     32  C   UNL     1       2.768   0.676   3.740  0.00  0.00    +0.042 C 
BRANCH  32  33
ATOM     33  C   UNL     1       2.263   1.566   4.878  0.00  0.00    +0.061 C 
ATOM     34  C   UNL     1       2.495   0.862   6.217  0.00  0.00    +0.041 C 
ATOM     35  C   UNL     1       3.023   2.894   4.861  0.00  0.00    +0.041 C 
BRANCH  33  36
ATOM     36  O   UNL     1       0.867   1.814   4.705  0.00  0.00    -0.389 OA
ATOM     37  H   UNL     1       0.322   1.014   4.706  0.00  0.00    +0.210 HD
ENDBRANCH  33  36
ENDBRANCH  32  33
ENDBRANCH  31  32
ENDBRANCH  29  31
ENDBRANCH  27  29
BRANCH  27  38
ATOM     38  O   UNL     1       2.058   1.985  -0.292  0.00  0.00    -0.381 OA
ATOM     39  H   UNL     1       1.294   1.801   0.271  0.00  0.00    +0.211 HD
ENDBRANCH  27  38
ENDBRANCH   5  27
BRANCH   4  40
ATOM     40  O   UNL     1       3.156   1.753  -2.668  0.00  0.00    -0.391 OA
ATOM     41  H   UNL     1       3.185   2.079  -3.579  0.00  0.00    +0.210 HD
ENDBRANCH   4  40
TORSDOF 9
