REMARK  Name = ZINC13064730
REMARK  13 active torsions:
REMARK  status: ('A' for Active; 'I' for Inactive)
REMARK    1  A    between atoms: C_1  and  C_2
REMARK    2  A    between atoms: C_2  and  C_3
REMARK    3  A    between atoms: C_3  and  C_5
REMARK    4  A    between atoms: C_3  and  N_69
REMARK    5  A    between atoms: N_9  and  C_10
REMARK    6  A    between atoms: C_10  and  C_11
REMARK    7  A    between atoms: C_11  and  C_12
REMARK    8  A    between atoms: C_18  and  C_19
REMARK    9  A    between atoms: C_18  and  N_69
REMARK   10  A    between atoms: C_24  and  C_25
REMARK   11  A    between atoms: C_24  and  N_69
REMARK   12  A    between atoms: C_29  and  C_38
REMARK   13  A    between atoms: C_30  and  C_37
REMARK                            x       y       z     vdW  Elec       q    Type
REMARK                         _______ _______ _______ _____ _____    ______ ____
ROOT
ATOM      1  N   UNL     1      -5.142   4.002  -1.739  0.00  0.00    +0.392 N 
ATOM      2  H   UNL     1      -4.960   2.992  -1.757  0.00  0.00    -0.080 HD
ENDROOT
BRANCH   1   3
ATOM      3  C   UNL     1      -6.601   4.229  -1.804  0.00  0.00    +0.003 C 
BRANCH   3   4
ATOM      4  C   UNL     1      -6.898   5.680  -2.084  0.00  0.00    +0.138 A 
ATOM      5  N   UNL     1      -6.419   6.401  -3.068  0.00  0.00    -0.115 NA
ATOM      6  N   UNL     1      -6.910   7.588  -2.967  0.00  0.00    -0.023 NA
ATOM      7  N   UNL     1      -7.683   7.645  -1.939  0.00  0.00    -0.044 NA
ATOM      8  N   UNL     1      -7.702   6.488  -1.368  0.00  0.00    -0.231 N 
BRANCH   8   9
ATOM      9  C   UNL     1      -8.457   6.123  -0.167  0.00  0.00    +0.152 C 
BRANCH   9  10
ATOM     10  C   UNL     1      -7.703   6.601   1.075  0.00  0.00    +0.058 C 
BRANCH  10  11
ATOM     11  C   UNL     1      -8.547   6.358   2.300  0.00  0.00    -0.046 A 
ATOM     12  C   UNL     1      -9.505   7.282   2.672  0.00  0.00    +0.004 A 
ATOM     13  C   UNL     1     -10.283   7.057   3.793  0.00  0.00    +0.000 A 
ATOM     14  C   UNL     1     -10.095   5.913   4.547  0.00  0.00    +0.000 A 
ATOM     15  C   UNL     1      -9.133   4.993   4.177  0.00  0.00    +0.000 A 
ATOM     16  C   UNL     1      -8.359   5.215   3.053  0.00  0.00    +0.004 A 
ENDBRANCH  10  11
ENDBRANCH   9  10
ENDBRANCH   8   9
ENDBRANCH   3   4
BRANCH   3  18
ATOM     17  C   UNL     1      -6.906   1.889  -2.625  0.00  0.00    +0.002 C 
ATOM     18  C   UNL     1      -7.185   3.364  -2.923  0.00  0.00    -0.011 C 
ENDBRANCH   3  18
ENDBRANCH   1   3
BRANCH   1  19
ATOM     19  C   UNL     1      -4.481   4.630  -2.903  0.00  0.00    -0.034 C 
BRANCH  19  20
ATOM     20  C   UNL     1      -3.079   4.089  -3.014  0.00  0.00    -0.027 A 
ATOM     21  C   UNL     1      -2.628   3.024  -3.721  0.00  0.00    +0.009 A 
ATOM     22  C   UNL     1      -1.283   2.709  -3.674  0.00  0.00    +0.008 A 
ATOM     23  C   UNL     1      -0.455   3.474  -2.922  0.00  0.00    +0.045 A 
ATOM     24  S   UNL     1      -1.580   4.689  -2.253  0.00  0.00    -0.103 S 
ENDBRANCH  19  20
ENDBRANCH   1  19
BRANCH   1  25
ATOM     25  C   UNL     1      -4.598   4.565  -0.486  0.00  0.00    -0.036 C 
BRANCH  25  26
ATOM     26  C   UNL     1      -4.663   3.505   0.584  0.00  0.00    +0.001 A 
ATOM     27  C   UNL     1      -3.571   2.747   0.851  0.00  0.00    +0.017 A 
ATOM     28  C   UNL     1      -3.668   1.722   1.892  0.00  0.00    -0.001 A 
ATOM     29  C   UNL     1      -2.580   0.898   2.199  0.00  0.00    +0.013 A 
ATOM     30  C   UNL     1      -2.704  -0.049   3.175  0.00  0.00    -0.047 A 
ATOM     31  C   UNL     1      -3.898  -0.201   3.866  0.00  0.00    -0.046 A 
ATOM     32  C   UNL     1      -4.983   0.601   3.580  0.00  0.00    +0.030 A 
ATOM     33  C   UNL     1      -4.883   1.568   2.586  0.00  0.00    +0.049 A 
ATOM     34  N   UNL     1      -5.953   2.380   2.275  0.00  0.00    -0.322 N 
ATOM     35  H   UNL     1      -6.788   2.275   2.757  0.00  0.00    +0.169 HD
ATOM     36  C   UNL     1      -5.856   3.314   1.313  0.00  0.00    +0.251 A 
ATOM     37  O   UNL     1      -6.823   4.013   1.064  0.00  0.00    -0.268 OA
ATOM     38  C   UNL     1      -4.011  -1.252   4.939  0.00  0.00    +0.044 C 
ATOM     39  C   UNL     1      -1.532  -0.938   3.506  0.00  0.00    +0.044 C 
ENDBRANCH  25  26
ENDBRANCH   1  25
TORSDOF 10
