REMARK  Name = ZINC40985838
REMARK  12 active torsions:
REMARK  status: ('A' for Active; 'I' for Inactive)
REMARK    1  A    between atoms: C_1  and  C_2
REMARK    2  A    between atoms: C_5  and  C_8
REMARK    3  A    between atoms: C_8  and  S_9
REMARK    4  A    between atoms: S_9  and  C_10
REMARK    5  A    between atoms: C_13  and  C_17
REMARK    6  A    between atoms: N_19  and  C_20
REMARK    7  A    between atoms: C_20  and  C_21
REMARK    8  A    between atoms: C_21  and  C_23
REMARK    9  A    between atoms: C_21  and  N_32
REMARK   10  A    between atoms: C_26  and  C_29
REMARK   11  A    between atoms: C_29  and  C_30
REMARK   12  A    between atoms: C_29  and  C_31
REMARK                            x       y       z     vdW  Elec       q    Type
REMARK                         _______ _______ _______ _____ _____    ______ ____
ROOT
ATOM      1  C   UNL     1       1.956 -13.326   1.218  0.00  0.00    +0.248 C 
ATOM      2  O   UNL     1       2.637 -12.853   0.329  0.00  0.00    -0.270 OA
ATOM      3  N   UNL     1       0.620 -13.417   1.068  0.00  0.00    -0.312 N 
ATOM      4  H   UNL     1       0.076 -13.793   1.778  0.00  0.00    +0.149 HD
ENDROOT
BRANCH   1   8
ATOM      5  C   UNL     1       3.749 -14.661   4.724  0.00  0.00    +0.190 A 
ATOM      6  N   UNL     1       2.431 -14.759   4.595  0.00  0.00    -0.229 NA
ATOM      7  C   UNL     1       1.824 -14.346   3.499  0.00  0.00    +0.129 A 
ATOM      8  C   UNL     1       2.592 -13.799   2.462  0.00  0.00    +0.092 A 
ATOM      9  C   UNL     1       3.981 -13.713   2.638  0.00  0.00    +0.146 A 
ATOM     10  N   UNL     1       4.511 -14.144   3.768  0.00  0.00    -0.209 NA
ATOM     11 CL   UNL     1       4.988 -13.046   1.391  0.00  0.00    -0.061 Cl
BRANCH   5  12
ATOM     12  S   UNL     1       4.507 -15.227   6.210  0.00  0.00    -0.081 S 
BRANCH  12  13
ATOM     13  C   UNL     1       3.119 -15.838   7.206  0.00  0.00    +0.112 C 
BRANCH  13  18
ATOM     14  C   UNL     1       5.098 -17.835  12.254  0.00  0.00    +0.044 C 
ATOM     15  C   UNL     1       4.582 -17.314  10.938  0.00  0.00    -0.050 A 
ATOM     16  C   UNL     1       4.214 -15.988  10.816  0.00  0.00    +0.003 A 
ATOM     17  C   UNL     1       3.740 -15.510   9.608  0.00  0.00    +0.005 A 
ATOM     18  C   UNL     1       3.636 -16.359   8.522  0.00  0.00    -0.037 A 
ATOM     19  C   UNL     1       4.005 -17.685   8.644  0.00  0.00    +0.005 A 
ATOM     20  C   UNL     1       4.483 -18.162   9.850  0.00  0.00    +0.003 A 
ENDBRANCH  13  18
ENDBRANCH  12  13
ENDBRANCH   5  12
ENDBRANCH   1   8
BRANCH   3  21
ATOM     21  C   UNL     1      -0.012 -12.946  -0.167  0.00  0.00    +0.094 C 
BRANCH  21  22
ATOM     22  C   UNL     1      -1.505 -13.281  -0.136  0.00  0.00    -0.020 C 
BRANCH  22  23
ATOM     23  N   UNL     1      -2.155 -12.730  -1.332  0.00  0.00    +0.385 N 
ATOM     24  C   UNL     1      -2.024 -11.268  -1.329  0.00  0.00    -0.078 C 
ATOM     25  C   UNL     1      -2.629 -10.695  -2.612  0.00  0.00    -0.019 C 
ATOM     26  C   UNL     1      -4.110 -11.076  -2.687  0.00  0.00    -0.004 C 
ATOM     27  C   UNL     1      -4.239 -12.600  -2.615  0.00  0.00    -0.019 C 
ATOM     28  C   UNL     1      -3.575 -13.103  -1.331  0.00  0.00    -0.078 C 
ATOM     29  H   UNL     1      -1.711 -13.103  -2.158  0.00  0.00    -0.081 HD
ENDBRANCH  22  23
BRANCH  22  30
ATOM     30  C   UNL     1      -1.683 -14.777  -0.112  0.00  0.00    -0.059 A 
ATOM     31  C   UNL     1      -1.574 -15.506  -1.282  0.00  0.00    +0.002 A 
ATOM     32  C   UNL     1      -1.738 -16.878  -1.260  0.00  0.00    +0.004 A 
ATOM     33  C   UNL     1      -2.011 -17.522  -0.067  0.00  0.00    -0.045 A 
ATOM     34  C   UNL     1      -2.119 -16.794   1.103  0.00  0.00    +0.004 A 
ATOM     35  C   UNL     1      -1.951 -15.422   1.081  0.00  0.00    +0.002 A 
BRANCH  33  36
ATOM     36  C   UNL     1      -2.190 -19.018  -0.043  0.00  0.00    +0.013 C 
ATOM     37  C   UNL     1      -1.141 -19.643   0.879  0.00  0.00    +0.012 C 
ATOM     38  C   UNL     1      -3.590 -19.356   0.474  0.00  0.00    +0.012 C 
ENDBRANCH  33  36
ENDBRANCH  22  30
ENDBRANCH  21  22
ENDBRANCH   3  21
TORSDOF 9
