REMARK  Name = ZINC39529841
REMARK  8 active torsions:
REMARK  status: ('A' for Active; 'I' for Inactive)
REMARK    1  A    between atoms: C_1  and  C_2
REMARK    2  A    between atoms: C_2  and  C_3
REMARK    3  A    between atoms: C_2  and  S_4
REMARK    4  A    between atoms: S_4  and  C_7
REMARK    5  A    between atoms: C_10  and  N_19
REMARK    6  A    between atoms: C_11  and  C_13
REMARK    7  A    between atoms: C_23  and  C_26
REMARK    8  A    between atoms: C_31  and  O_32
REMARK                            x       y       z     vdW  Elec       q    Type
REMARK                         _______ _______ _______ _____ _____    ______ ____
ROOT
ATOM      1  C   UNL     1       2.476   0.084  -1.381  0.00  0.00    +0.089 A 
ATOM      2  C   UNL     1       2.744   1.329  -1.924  0.00  0.00    +0.029 A 
ATOM      3  C   UNL     1       4.014   1.865  -1.843  0.00  0.00    +0.025 A 
ATOM      4  C   UNL     1       5.029   1.158  -1.215  0.00  0.00    +0.037 A 
ATOM      5  C   UNL     1       4.760  -0.101  -0.664  0.00  0.00    +0.005 A 
ATOM      6  C   UNL     1       3.474  -0.629  -0.748  0.00  0.00    +0.037 A 
ENDROOT
BRANCH   4   7
ATOM      7  N   UNL     1       6.312   1.698  -1.133  0.00  0.00    -0.332 N 
ATOM      8  C   UNL     1       7.306   1.451  -2.189  0.00  0.00    +0.086 C 
ATOM      9  C   UNL     1       7.902   2.795  -2.619  0.00  0.00    -0.063 C 
ATOM     10  N   UNL     1       8.431   3.495  -1.441  0.00  0.00    +0.386 N 
ATOM     11  C   UNL     1       7.335   3.825  -0.522  0.00  0.00    -0.020 C 
ATOM     12  C   UNL     1       6.709   2.536   0.010  0.00  0.00    +0.094 C 
ATOM     13  H   UNL     1       9.097   2.901  -0.969  0.00  0.00    -0.085 HD
ATOM     14  H   UNL     1       8.890   4.344  -1.734  0.00  0.00    -0.085 HD
BRANCH  11  15
ATOM     15  C   UNL     1       7.871   4.636   0.629  0.00  0.00    -0.018 A 
ATOM     16  C   UNL     1       9.222   4.615   0.920  0.00  0.00    +0.005 A 
ATOM     17  C   UNL     1       9.714   5.360   1.976  0.00  0.00    +0.000 A 
ATOM     18  C   UNL     1       8.857   6.127   2.743  0.00  0.00    +0.004 A 
ATOM     19  C   UNL     1       7.506   6.152   2.456  0.00  0.00    +0.045 A 
ATOM     20  C   UNL     1       7.010   5.410   1.394  0.00  0.00    +0.118 A 
BRANCH  20  21
ATOM     21  O   UNL     1       5.682   5.437   1.106  0.00  0.00    -0.507 OA
ATOM     22  H   UNL     1       5.166   4.761   1.566  0.00  0.00    +0.292 HD
ENDBRANCH  20  21
ENDBRANCH  11  15
ENDBRANCH   4   7
BRANCH   5  23
ATOM     23  C   UNL     1       5.837  -0.866   0.009  0.00  0.00    -0.016 A 
ATOM     24  C   UNL     1       7.066  -1.047  -0.623  0.00  0.00    +0.008 A 
ATOM     25  C   UNL     1       8.065  -1.759   0.009  0.00  0.00    +0.001 A 
ATOM     26  C   UNL     1       7.849  -2.293   1.267  0.00  0.00    +0.000 A 
ATOM     27  C   UNL     1       6.631  -2.117   1.898  0.00  0.00    +0.001 A 
ATOM     28  C   UNL     1       5.626  -1.401   1.279  0.00  0.00    +0.008 A 
ENDBRANCH   5  23
BRANCH   1  29
ATOM     29  S   UNL     1       0.851  -0.589  -1.490  0.00  0.00    -0.001 S 
ATOM     30  O   UNL     1       1.037  -1.996  -1.428  0.00  0.00    -0.169 OA
ATOM     31  O   UNL     1       0.285   0.016  -2.645  0.00  0.00    -0.169 OA
BRANCH  29  33
ATOM     32  C   UNL     1      -0.019   1.526   0.010  0.00  0.00    +0.032 C 
ATOM     33  C   UNL     1       0.002  -0.004   0.002  0.00  0.00    +0.130 C 
ATOM     34  C   UNL     1      -1.433  -0.534   0.013  0.00  0.00    +0.032 C 
ENDBRANCH  29  33
ENDBRANCH   1  29
TORSDOF 6
