REMARK  Name = ZINC01994828
REMARK  7 active torsions:
REMARK  status: ('A' for Active; 'I' for Inactive)
REMARK    1  A    between atoms: C_5  and  C_7
REMARK    2  A    between atoms: N_9  and  C_10
REMARK    3  A    between atoms: C_10  and  C_11
REMARK    4  A    between atoms: N_13  and  N_14
REMARK    5  A    between atoms: C_15  and  C_16
REMARK    6  A    between atoms: C_19  and  O_23
REMARK    7  A    between atoms: C_21  and  O_22
REMARK                            x       y       z     vdW  Elec       q    Type
REMARK                         _______ _______ _______ _____ _____    ______ ____
ROOT
ATOM      1  C   UNL     1       2.406   0.752  -0.017  0.00  0.00    +0.249 C 
ATOM      2  O   UNL     1       2.201  -0.444  -0.021  0.00  0.00    -0.272 OA
ATOM      3  N   UNL     1       3.671   1.218  -0.026  0.00  0.00    -0.206 N 
ATOM      4  H   UNL     1       3.835   2.174  -0.023  0.00  0.00    +0.177 HD
ENDROOT
BRANCH   3   5
ATOM      5  N   UNL     1       4.748   0.323  -0.042  0.00  0.00    -0.188 NA
ATOM      6  C   UNL     1       5.966   0.772  -0.051  0.00  0.00    +0.142 C 
BRANCH   6   7
ATOM      7  C   UNL     1       7.098  -0.170  -0.067  0.00  0.00    +0.036 A 
ATOM      8  C   UNL     1       8.410   0.311  -0.077  0.00  0.00    +0.016 A 
ATOM      9  C   UNL     1       9.466  -0.574  -0.091  0.00  0.00    +0.046 A 
ATOM     10  C   UNL     1       9.232  -1.944  -0.096  0.00  0.00    +0.120 A 
ATOM     11  C   UNL     1       7.933  -2.431  -0.086  0.00  0.00    +0.091 A 
ATOM     12  C   UNL     1       6.864  -1.552  -0.066  0.00  0.00    +0.129 A 
BRANCH  12  13
ATOM     13  O   UNL     1       5.592  -2.028  -0.051  0.00  0.00    -0.506 OA
ATOM     14  H   UNL     1       5.212  -2.164  -0.930  0.00  0.00    +0.292 HD
ENDBRANCH  12  13
BRANCH  10  15
ATOM     15  O   UNL     1      10.279  -2.809  -0.109  0.00  0.00    -0.507 OA
ATOM     16  H   UNL     1      10.590  -3.064   0.770  0.00  0.00    +0.292 HD
ENDBRANCH  10  15
ENDBRANCH   6   7
ENDBRANCH   3   5
BRANCH   1  17
ATOM     17  C   UNL     1       1.248   1.716  -0.001  0.00  0.00    +0.202 C 
BRANCH  17  20
ATOM     18  C   UNL     1      -1.187   1.624   0.017  0.00  0.00    +0.246 C 
ATOM     19  O   UNL     1      -1.204   2.839   0.023  0.00  0.00    -0.270 OA
ATOM     20  N   UNL     1      -0.011   0.966   0.007  0.00  0.00    -0.303 N 
ATOM     21  H   UNL     1       0.002  -0.004   0.002  0.00  0.00    +0.150 HD
BRANCH  18  26
ATOM     22  C   UNL     1      -3.630  -1.228   0.011  0.00  0.00    +0.001 A 
ATOM     23  C   UNL     1      -4.837  -0.550   0.021  0.00  0.00    +0.001 A 
ATOM     24  C   UNL     1      -4.860   0.833   0.029  0.00  0.00    +0.016 A 
ATOM     25  C   UNL     1      -3.678   1.546   0.028  0.00  0.00    +0.030 A 
ATOM     26  C   UNL     1      -2.457   0.868   0.018  0.00  0.00    +0.051 A 
ATOM     27  C   UNL     1      -2.442  -0.528   0.005  0.00  0.00    +0.014 A 
ATOM     28 BR   UNL     1      -3.711   3.437   0.038  0.00  0.00    -0.050 Br
ENDBRANCH  18  26
ENDBRANCH  17  20
ENDBRANCH   1  17
TORSDOF 7
