REMARK  Name = ZINC39775874
REMARK  12 active torsions:
REMARK  status: ('A' for Active; 'I' for Inactive)
REMARK    1  A    between atoms: C_1  and  C_2
REMARK    2  A    between atoms: C_5  and  N_8
REMARK    3  A    between atoms: N_11  and  C_12
REMARK    4  A    between atoms: N_11  and  O_39
REMARK    5  A    between atoms: C_14  and  C_37
REMARK    6  A    between atoms: C_14  and  C_38
REMARK    7  A    between atoms: N_15  and  C_26
REMARK    8  A    between atoms: N_18  and  C_19
REMARK    9  A    between atoms: C_22  and  C_25
REMARK   10  A    between atoms: C_26  and  C_27
REMARK   11  A    between atoms: N_29  and  N_30
REMARK   12  A    between atoms: C_31  and  C_32
REMARK                            x       y       z     vdW  Elec       q    Type
REMARK                         _______ _______ _______ _____ _____    ______ ____
ROOT
ATOM      1  C   UNL     1       0.435  -6.991   2.476  0.00  0.00    +0.224 C 
ATOM      2  C   UNL     1      -0.699  -8.031   2.386  0.00  0.00    +0.071 C 
ATOM      3  N   UNL     1      -1.702  -7.542   3.344  0.00  0.00    -0.268 N 
ATOM      4  C   UNL     1      -1.256  -6.413   3.910  0.00  0.00    +0.312 C 
ATOM      5  O   UNL     1      -1.890  -5.795   4.743  0.00  0.00    -0.252 OA
ATOM      6  N   UNL     1      -0.046  -6.026   3.476  0.00  0.00    -0.232 N 
ATOM      7  C   UNL     1      -0.192  -9.415   2.798  0.00  0.00    +0.035 C 
ATOM      8  C   UNL     1      -1.281  -8.070   0.972  0.00  0.00    +0.035 C 
ENDROOT
BRANCH   6   9
ATOM      9  C   UNL     1       0.647  -4.888   3.904  0.00  0.00    +0.040 A 
ATOM     10  C   UNL     1       1.837  -4.525   3.286  0.00  0.00    +0.024 A 
ATOM     11  C   UNL     1       2.518  -3.401   3.711  0.00  0.00    +0.005 A 
ATOM     12  C   UNL     1       2.016  -2.637   4.748  0.00  0.00    -0.050 A 
ATOM     13  C   UNL     1       0.832  -2.996   5.365  0.00  0.00    +0.005 A 
ATOM     14  C   UNL     1       0.143  -4.116   4.942  0.00  0.00    +0.024 A 
ATOM     15  C   UNL     1       2.762  -1.411   5.209  0.00  0.00    +0.044 C 
ENDBRANCH   6   9
BRANCH   1  19
ATOM     16  N   UNL     1      -0.194  -5.027  -0.567  0.00  0.00    -0.268 N 
ATOM     17  C   UNL     1      -0.335  -5.550   0.668  0.00  0.00    +0.331 C 
ATOM     18  O   UNL     1      -1.335  -5.314   1.318  0.00  0.00    -0.250 OA
ATOM     19  N   UNL     1       0.634  -6.334   1.182  0.00  0.00    -0.144 N 
ATOM     20  H   UNL     1       0.568  -5.274  -1.114  0.00  0.00    +0.156 HD
BRANCH  16  25
ATOM     21  C   UNL     1      -4.060  -1.386  -2.562  0.00  0.00    +0.044 C 
ATOM     22  C   UNL     1      -3.034  -2.353  -2.032  0.00  0.00    -0.050 A 
ATOM     23  C   UNL     1      -2.701  -2.340  -0.690  0.00  0.00    +0.005 A 
ATOM     24  C   UNL     1      -1.761  -3.226  -0.201  0.00  0.00    +0.023 A 
ATOM     25  C   UNL     1      -1.148  -4.130  -1.059  0.00  0.00    +0.035 A 
ATOM     26  C   UNL     1      -1.484  -4.140  -2.406  0.00  0.00    +0.023 A 
ATOM     27  C   UNL     1      -2.429  -3.256  -2.888  0.00  0.00    +0.005 A 
ENDBRANCH  16  25
BRANCH  19  28
ATOM     28  O   UNL     1       1.844  -6.523   0.470  0.00  0.00    -0.289 OA
ATOM     29  H   UNL     1       2.445  -7.160   0.879  0.00  0.00    +0.242 HD
ENDBRANCH  19  28
ENDBRANCH   1  19
BRANCH   3  30
ATOM     30  C   UNL     1      -2.984  -8.188   3.633  0.00  0.00    +0.207 C 
BRANCH  30  31
ATOM     31  C   UNL     1      -2.809  -9.169   4.764  0.00  0.00    +0.250 C 
ATOM     32  O   UNL     1      -1.720  -9.315   5.277  0.00  0.00    -0.272 OA
ATOM     33  N   UNL     1      -3.863  -9.885   5.204  0.00  0.00    -0.206 N 
ATOM     34  H   UNL     1      -4.734  -9.769   4.793  0.00  0.00    +0.177 HD
BRANCH  33  35
ATOM     35  N   UNL     1      -3.700 -10.797   6.255  0.00  0.00    -0.185 NA
ATOM     36  C   UNL     1      -4.717 -11.488   6.680  0.00  0.00    +0.176 C 
BRANCH  36  37
ATOM     37  C   UNL     1      -4.546 -12.442   7.780  0.00  0.00    +0.147 A 
ATOM     38  C   UNL     1      -5.523 -13.230   8.316  0.00  0.00    +0.051 A 
ATOM     39  C   UNL     1      -4.919 -13.983   9.340  0.00  0.00    +0.042 A 
ATOM     40  C   UNL     1      -3.619 -13.625   9.382  0.00  0.00    +0.196 A 
ATOM     41  O   UNL     1      -3.396 -12.699   8.435  0.00  0.00    -0.462 OA
ENDBRANCH  36  37
ENDBRANCH  33  35
ENDBRANCH  30  31
ENDBRANCH   3  30
TORSDOF 8
