REMARK  Name = ZINC55168445
REMARK  10 active torsions:
REMARK  status: ('A' for Active; 'I' for Inactive)
REMARK    1  A    between atoms: C_1  and  C_2
REMARK    2  A    between atoms: C_2  and  C_3
REMARK    3  A    between atoms: C_2  and  C_4
REMARK    4  A    between atoms: N_6  and  C_7
REMARK    5  A    between atoms: N_6  and  C_14
REMARK    6  A    between atoms: C_7  and  C_8
REMARK    7  A    between atoms: C_20  and  C_22
REMARK    8  A    between atoms: C_22  and  C_24
REMARK    9  A    between atoms: C_22  and  N_32
REMARK   10  A    between atoms: C_24  and  C_25
REMARK                            x       y       z     vdW  Elec       q    Type
REMARK                         _______ _______ _______ _____ _____    ______ ____
ROOT
ATOM      1  C   UNL     1      -0.005  -0.996  -1.047  0.00  0.00    +0.095 C 
ATOM      2  C   UNL     1       0.494   0.417  -1.446  0.00  0.00    +0.043 C 
ATOM      3  C   UNL     1       2.031   0.225  -1.413  0.00  0.00    +0.109 C 
ATOM      4  N   UNL     1       2.274  -0.679  -0.274  0.00  0.00    -0.301 N 
ATOM      5  C   UNL     1       1.053  -1.465  -0.026  0.00  0.00    +0.130 C 
ATOM      6  C   UNL     1       3.424  -0.774   0.422  0.00  0.00    +0.201 C 
ATOM      7  O   UNL     1       3.511  -1.556   1.344  0.00  0.00    -0.277 OA
ENDROOT
BRANCH   1  10
ATOM      8  C   UNL     1      -1.501  -0.214   0.711  0.00  0.00    +0.218 C 
ATOM      9  O   UNL     1      -0.589   0.453   1.154  0.00  0.00    -0.275 OA
ATOM     10  N   UNL     1      -1.329  -0.921  -0.423  0.00  0.00    -0.296 N 
BRANCH   8  12
ATOM     11  C   UNL     1      -2.704   0.490   2.761  0.00  0.00    +0.017 C 
ATOM     12  C   UNL     1      -2.825  -0.251   1.428  0.00  0.00    +0.069 C 
ATOM     13  C   UNL     1      -3.892   0.425   0.565  0.00  0.00    +0.017 C 
ENDBRANCH   8  12
BRANCH  10  14
ATOM     14  C   UNL     1      -2.466  -1.616  -1.033  0.00  0.00    +0.111 C 
BRANCH  14  15
ATOM     15  C   UNL     1      -2.759  -1.006  -2.406  0.00  0.00    +0.006 C 
ATOM     16  C   UNL     1      -2.925   0.508  -2.266  0.00  0.00    +0.005 C 
ATOM     17  C   UNL     1      -3.219   1.118  -3.638  0.00  0.00    +0.000 C 
ATOM     18  C   UNL     1      -4.507   0.513  -4.200  0.00  0.00    +0.000 C 
ATOM     19  C   UNL     1      -4.341  -1.002  -4.340  0.00  0.00    +0.000 C 
ATOM     20  C   UNL     1      -4.047  -1.611  -2.967  0.00  0.00    +0.005 C 
ENDBRANCH  14  15
ENDBRANCH  10  14
ENDBRANCH   1  10
BRANCH   6  21
ATOM     21  C   UNL     1       4.601   0.093   0.055  0.00  0.00    +0.017 C 
BRANCH  21  22
ATOM     22  N   UNL     1       5.832  -0.498   0.597  0.00  0.00    +0.386 N 
ATOM     23  H   UNL     1       5.960  -1.421   0.210  0.00  0.00    -0.089 HD
ATOM     24  H   UNL     1       6.620   0.082   0.351  0.00  0.00    -0.089 HD
ATOM     25  H   UNL     1       5.761  -0.560   1.601  0.00  0.00    -0.089 HD
ENDBRANCH  21  22
BRANCH  21  26
ATOM     26  C   UNL     1       4.406   1.493   0.640  0.00  0.00    +0.028 C 
BRANCH  26  27
ATOM     27  C   UNL     1       5.520   2.393   0.172  0.00  0.00    -0.048 A 
ATOM     28  C   UNL     1       6.685   2.492   0.909  0.00  0.00    +0.005 A 
ATOM     29  C   UNL     1       7.707   3.318   0.480  0.00  0.00    +0.020 A 
ATOM     30  C   UNL     1       7.564   4.045  -0.688  0.00  0.00    +0.041 A 
ATOM     31  C   UNL     1       6.398   3.945  -1.426  0.00  0.00    +0.020 A 
ATOM     32  C   UNL     1       5.379   3.115  -0.999  0.00  0.00    +0.005 A 
ATOM     33 CL   UNL     1       8.847   5.082  -1.228  0.00  0.00    -0.084 Cl
ENDBRANCH  26  27
ENDBRANCH  21  26
ENDBRANCH   6  21
TORSDOF 8
