REMARK  Name = ZINC15970308
REMARK  7 active torsions:
REMARK  status: ('A' for Active; 'I' for Inactive)
REMARK    1  A    between atoms: C_1  and  C_2
REMARK    2  A    between atoms: C_2  and  C_4
REMARK    3  A    between atoms: C_2  and  N_15
REMARK    4  A    between atoms: N_6  and  C_7
REMARK    5  A    between atoms: C_7  and  C_8
REMARK    6  A    between atoms: C_8  and  C_9
REMARK    7  A    between atoms: C_16  and  C_18
REMARK                            x       y       z     vdW  Elec       q    Type
REMARK                         _______ _______ _______ _____ _____    ______ ____
ROOT
ATOM      1  C   UNL     1       2.625   8.111  -8.581  0.00  0.00    +0.167 C 
ATOM      2  C   UNL     1       2.435   7.947 -10.096  0.00  0.00    +0.069 C 
ATOM      3  C   UNL     1       3.429   8.800 -10.842  0.00  0.00    -0.015 A 
ATOM      4  C   UNL     1       3.782   8.709 -12.248  0.00  0.00    +0.003 A 
ATOM      5  C   UNL     1       3.353   7.863 -13.275  0.00  0.00    +0.010 A 
ATOM      6  C   UNL     1       3.908   8.062 -14.515  0.00  0.00    +0.001 A 
ATOM      7  C   UNL     1       4.850   9.052 -14.748  0.00  0.00    +0.002 A 
ATOM      8  C   UNL     1       5.292   9.902 -13.750  0.00  0.00    +0.026 A 
ATOM      9  C   UNL     1       4.745   9.723 -12.481  0.00  0.00    +0.047 A 
ATOM     10  N   UNL     1       4.949  10.369 -11.296  0.00  0.00    -0.356 N 
ATOM     11  H   UNL     1       5.556  11.114 -11.164  0.00  0.00    +0.166 HD
ATOM     12  C   UNL     1       4.167   9.807 -10.323  0.00  0.00    +0.046 A 
ATOM     13  C   UNL     1       4.100  10.210  -8.870  0.00  0.00    +0.155 C 
ATOM     14  N   UNL     1       2.909   9.525  -8.316  0.00  0.00    -0.273 N 
ATOM     15  C   UNL     1       2.192  10.416  -7.617  0.00  0.00    +0.248 C 
ATOM     16  O   UNL     1       1.270  10.145  -6.873  0.00  0.00    -0.270 OA
ATOM     17  C   UNL     1       2.688  11.769  -7.889  0.00  0.00    +0.042 A 
ATOM     18  C   UNL     1       3.846  11.667  -8.687  0.00  0.00    -0.009 A 
ATOM     19  C   UNL     1       4.511  12.785  -9.137  0.00  0.00    +0.006 A 
ATOM     20  C   UNL     1       3.999  14.022  -8.758  0.00  0.00    +0.000 A 
ATOM     21  C   UNL     1       2.874  14.132  -7.966  0.00  0.00    +0.001 A 
ATOM     22  C   UNL     1       2.188  13.017  -7.510  0.00  0.00    +0.013 A 
ENDROOT
BRANCH   1  24
ATOM     23  N   UNL     1       1.355   6.580  -7.111  0.00  0.00    -0.303 N 
ATOM     24  C   UNL     1       1.366   7.699  -7.862  0.00  0.00    +0.235 C 
ATOM     25  O   UNL     1       0.364   8.375  -7.958  0.00  0.00    -0.274 OA
ATOM     26  H   UNL     1       2.157   6.040  -7.033  0.00  0.00    +0.149 HD
BRANCH  23  28
ATOM     27  C   UNL     1      -0.759   5.376  -7.361  0.00  0.00    +0.038 C 
ATOM     28  C   UNL     1       0.131   6.180  -6.411  0.00  0.00    +0.156 C 
BRANCH  28  29
ATOM     29  C   UNL     1       0.489   5.331  -5.219  0.00  0.00    +0.233 C 
ATOM     30  O   UNL     1       1.652   5.085  -4.977  0.00  0.00    -0.274 OA
ATOM     31  N   UNL     1      -0.482   4.846  -4.421  0.00  0.00    -0.313 N 
ATOM     32  H   UNL     1      -1.412   5.043  -4.614  0.00  0.00    +0.149 HD
BRANCH  31  33
ATOM     33  C   UNL     1      -0.134   4.021  -3.262  0.00  0.00    +0.108 C 
BRANCH  33  34
ATOM     34  C   UNL     1      -1.412   3.603  -2.531  0.00  0.00    +0.049 C 
BRANCH  34  35
ATOM     35  C   UNL     1      -1.054   2.754  -1.339  0.00  0.00    -0.072 C 
ATOM     36  C   UNL     1      -0.943   3.338  -0.189  0.00  0.00    -0.028 C 
ATOM     37  C   UNL     1      -0.583   2.629   1.083  0.00  0.00    +0.027 C 
ATOM     38  C   UNL     1      -0.781   1.121   0.925  0.00  0.00    +0.004 C 
ATOM     39  C   UNL     1      -0.096   0.674  -0.373  0.00  0.00    +0.005 C 
ATOM     40  C   UNL     1      -0.849   1.283  -1.558  0.00  0.00    +0.030 C 
ENDBRANCH  34  35
ENDBRANCH  33  34
ENDBRANCH  31  33
ENDBRANCH  28  29
ENDBRANCH  23  28
ENDBRANCH   1  24
TORSDOF 6
