REMARK  Name = ZINC36949859
REMARK  3 active torsions:
REMARK  status: ('A' for Active; 'I' for Inactive)
REMARK    1  A    between atoms: C_5  and  C_7
REMARK    2  A    between atoms: C_7  and  C_9
REMARK    3  A    between atoms: C_7  and  N_21
REMARK                            x       y       z     vdW  Elec       q    Type
REMARK                         _______ _______ _______ _____ _____    ______ ____
ROOT
ATOM      1  C   UNL     1       1.373  -2.695   1.389  0.00  0.00    -0.057 A 
ATOM      2  C   UNL     1       0.272  -2.757   2.224  0.00  0.00    +0.004 A 
ATOM      3  C   UNL     1       0.420  -3.227   3.506  0.00  0.00    +0.024 A 
ATOM      4  C   UNL     1       1.670  -3.644   3.995  0.00  0.00    +0.037 A 
ATOM      5  C   UNL     1       2.764  -3.575   3.160  0.00  0.00    -0.026 A 
ATOM      6  C   UNL     1       2.600  -3.107   1.856  0.00  0.00    +0.007 A 
ATOM      7  C   UNL     1       4.158  -3.966   3.533  0.00  0.00    +0.037 C 
ATOM      8  C   UNL     1       4.560  -3.674   4.944  0.00  0.00    +0.014 C 
ATOM      9  C   UNL     1       4.007  -4.661   5.944  0.00  0.00    +0.096 C 
ATOM     10  C   UNL     1       2.551  -4.464   6.171  0.00  0.00    +0.217 C 
ATOM     11  O   UNL     1       2.150  -4.658   7.299  0.00  0.00    -0.275 OA
ATOM     12  N   UNL     1       1.660  -4.105   5.292  0.00  0.00    -0.285 N 
ATOM     13  H   UNL     1       0.758  -4.183   5.639  0.00  0.00    +0.155 HD
ENDROOT
BRANCH   1  14
ATOM     14  C   UNL     1       1.229  -2.186  -0.022  0.00  0.00    -0.012 C 
BRANCH  14  19
ATOM     15  C   UNL     1      -0.017   1.378   0.010  0.00  0.00    +0.000 A 
ATOM     16  C   UNL     1       1.171   2.086   0.002  0.00  0.00    +0.001 A 
ATOM     17  C   UNL     1       2.377   1.411  -0.013  0.00  0.00    +0.014 A 
ATOM     18  C   UNL     1       2.396   0.029  -0.021  0.00  0.00    +0.015 A 
ATOM     19  C   UNL     1       1.208  -0.679  -0.013  0.00  0.00    -0.045 A 
ATOM     20  C   UNL     1       0.002  -0.004   0.002  0.00  0.00    +0.003 A 
ATOM     21  I   UNL     1       4.225  -0.994  -0.044  0.00  0.00    -0.044 I 
ENDBRANCH  14  19
BRANCH  14  22
ATOM     22  N   UNL     1      -0.025  -2.689  -0.598  0.00  0.00    +0.385 N 
ATOM     23  H   UNL     1      -0.122  -2.349  -1.543  0.00  0.00    -0.089 HD
ATOM     24  H   UNL     1      -0.012  -3.698  -0.604  0.00  0.00    -0.089 HD
ATOM     25  H   UNL     1      -0.804  -2.367  -0.043  0.00  0.00    -0.089 HD
ENDBRANCH  14  22
ENDBRANCH   1  14
TORSDOF 3
