REMARK  Name = ZINC09963007
REMARK  17 active torsions:
REMARK  status: ('A' for Active; 'I' for Inactive)
REMARK    1  A    between atoms: C_1  and  C_2
REMARK    2  A    between atoms: C_2  and  C_3
REMARK    3  A    between atoms: C_3  and  C_4
REMARK    4  A    between atoms: C_4  and  N_5
REMARK    5  A    between atoms: N_5  and  C_6
REMARK    6  A    between atoms: N_5  and  C_10
REMARK    7  A    between atoms: C_6  and  C_7
REMARK    8  A    between atoms: C_7  and  C_8
REMARK    9  A    between atoms: C_8  and  C_9
REMARK   10  A    between atoms: C_10  and  C_11
REMARK   11  A    between atoms: C_11  and  C_12
REMARK   12  A    between atoms: C_12  and  N_13
REMARK   13  A    between atoms: C_14  and  C_16
REMARK   14  A    between atoms: C_16  and  N_17
REMARK   15  A    between atoms: C_20  and  S_28
REMARK   16  A    between atoms: S_28  and  N_31
REMARK   17  A    between atoms: C_34  and  C_37
REMARK                            x       y       z     vdW  Elec       q    Type
REMARK                         _______ _______ _______ _____ _____    ______ ____
ROOT
ATOM      1  N   UNL     1      -4.157  -8.974  -3.694  0.00  0.00    -0.256 N 
ATOM      2  C   UNL     1      -4.204  -9.498  -4.994  0.00  0.00    +0.081 A 
ATOM      3  C   UNL     1      -3.748  -8.758  -6.072  0.00  0.00    +0.055 A 
ATOM      4  C   UNL     1      -3.804  -9.292  -7.346  0.00  0.00    +0.107 A 
ATOM      5  C   UNL     1      -4.314 -10.562  -7.546  0.00  0.00    +0.032 A 
ATOM      6  C   UNL     1      -4.771 -11.306  -6.474  0.00  0.00    +0.049 A 
ATOM      7  C   UNL     1      -4.717 -10.778  -5.196  0.00  0.00    +0.143 A 
ATOM      8  O   UNL     1      -5.159 -11.497  -4.129  0.00  0.00    -0.481 OA
ATOM      9  C   UNL     1      -4.479 -11.290  -2.888  0.00  0.00    +0.325 C 
ATOM     10  C   UNL     1      -4.300  -9.813  -2.645  0.00  0.00    +0.258 C 
ATOM     11  O   UNL     1      -4.288  -9.380  -1.513  0.00  0.00    -0.271 OA
ENDROOT
BRANCH   4  12
ATOM     12  S   UNL     1      -3.225  -8.352  -8.720  0.00  0.00    +0.061 S 
ATOM     13  O   UNL     1      -3.889  -8.860  -9.869  0.00  0.00    -0.153 OA
ATOM     14  O   UNL     1      -3.301  -6.986  -8.337  0.00  0.00    -0.153 OA
BRANCH  12  15
ATOM     15  N   UNL     1      -1.617  -8.702  -8.909  0.00  0.00    -0.177 NA
ATOM     16  C   UNL     1      -0.592  -7.912  -8.213  0.00  0.00    +0.110 C 
ATOM     17  C   UNL     1       0.420  -7.400  -9.242  0.00  0.00    +0.020 C 
ATOM     18  C   UNL     1       0.973  -8.583 -10.040  0.00  0.00    -0.012 C 
ATOM     19  C   UNL     1      -0.170  -9.274 -10.788  0.00  0.00    +0.020 C 
ATOM     20  C   UNL     1      -1.189  -9.811  -9.772  0.00  0.00    +0.110 C 
ATOM     21  C   UNL     1       2.009  -8.080 -11.046  0.00  0.00    +0.007 C 
ENDBRANCH  12  15
ENDBRANCH   4  12
BRANCH   1  22
ATOM     22  C   UNL     1      -3.949  -7.541  -3.477  0.00  0.00    +0.209 C 
BRANCH  22  24
ATOM     23  N   UNL     1      -2.042  -5.995  -3.175  0.00  0.00    -0.314 N 
ATOM     24  C   UNL     1      -2.473  -7.256  -3.377  0.00  0.00    +0.231 C 
ATOM     25  O   UNL     1      -1.673  -8.162  -3.477  0.00  0.00    -0.274 OA
ATOM     26  H   UNL     1      -2.682  -5.271  -3.095  0.00  0.00    +0.149 HD
BRANCH  23  27
ATOM     27  C   UNL     1      -0.606  -5.719  -3.078  0.00  0.00    +0.102 C 
BRANCH  27  28
ATOM     28  C   UNL     1      -0.390  -4.221  -2.851  0.00  0.00    +0.000 C 
BRANCH  28  29
ATOM     29  C   UNL     1       1.109  -3.932  -2.749  0.00  0.00    -0.077 C 
BRANCH  29  30
ATOM     30  N   UNL     1       1.317  -2.495  -2.531  0.00  0.00    +0.380 N 
ATOM     31  H   UNL     1       0.856  -1.974  -3.261  0.00  0.00    -0.082 HD
BRANCH  30  32
ATOM     32  C   UNL     1       0.758  -2.111  -1.228  0.00  0.00    -0.079 C 
BRANCH  32  33
ATOM     33  C   UNL     1       0.846  -0.593  -1.062  0.00  0.00    -0.019 C 
BRANCH  33  35
ATOM     34  C   UNL     1       0.232   1.339   0.399  0.00  0.00    +0.004 C 
ATOM     35  C   UNL     1       0.144  -0.179   0.234  0.00  0.00    -0.005 C 
ENDBRANCH  33  35
ENDBRANCH  32  33
ENDBRANCH  30  32
BRANCH  30  36
ATOM     36  C   UNL     1       2.756  -2.199  -2.552  0.00  0.00    -0.079 C 
BRANCH  36  37
ATOM     37  C   UNL     1       3.310  -2.463  -3.954  0.00  0.00    -0.019 C 
BRANCH  37  38
ATOM     38  C   UNL     1       4.776  -2.030  -4.013  0.00  0.00    -0.005 C 
ATOM     39  C   UNL     1       5.330  -2.294  -5.414  0.00  0.00    +0.004 C 
ENDBRANCH  37  38
ENDBRANCH  36  37
ENDBRANCH  30  36
ENDBRANCH  29  30
ENDBRANCH  28  29
ENDBRANCH  27  28
ENDBRANCH  23  27
ENDBRANCH  22  24
ENDBRANCH   1  22
TORSDOF 14
