REMARK  Name = ZINC39676922
REMARK  7 active torsions:
REMARK  status: ('A' for Active; 'I' for Inactive)
REMARK    1  A    between atoms: C_1  and  C_2
REMARK    2  A    between atoms: C_5  and  C_33
REMARK    3  A    between atoms: C_6  and  C_8
REMARK    4  A    between atoms: C_8  and  C_9
REMARK    5  A    between atoms: C_9  and  N_10
REMARK    6  A    between atoms: C_11  and  C_13
REMARK    7  A    between atoms: C_24  and  C_26
REMARK                            x       y       z     vdW  Elec       q    Type
REMARK                         _______ _______ _______ _____ _____    ______ ____
ROOT
ATOM      1  C   UNL     1       2.881  -4.428   5.939  0.00  0.00    +0.100 C 
ATOM      2  C   UNL     1       2.284  -3.811   7.223  0.00  0.00    +0.121 C 
ATOM      3  N   UNL     1       3.151  -4.310   8.316  0.00  0.00    -0.296 N 
ATOM      4  C   UNL     1       4.521  -4.265   7.750  0.00  0.00    +0.115 C 
ATOM      5  C   UNL     1       4.350  -4.724   6.288  0.00  0.00    -0.004 C 
ATOM      6  C   UNL     1       5.280  -3.931   5.375  0.00  0.00    -0.010 C 
ATOM      7  C   UNL     1       6.733  -4.287   5.703  0.00  0.00    -0.082 C 
ATOM      8  N   UNL     1       6.941  -5.728   5.515  0.00  0.00    +0.379 N 
ATOM      9  C   UNL     1       6.110  -6.481   6.462  0.00  0.00    -0.082 C 
ATOM     10  C   UNL     1       4.631  -6.218   6.167  0.00  0.00    -0.010 C 
ATOM     11  C   UNL     1       2.779  -4.714   9.547  0.00  0.00    +0.247 C 
ATOM     12  O   UNL     1       1.600  -4.815   9.823  0.00  0.00    -0.270 OA
ATOM     13  H   UNL     1       6.689  -5.983   4.572  0.00  0.00    -0.086 HD
ATOM     14  H   UNL     1       7.913  -5.949   5.672  0.00  0.00    -0.086 HD
ENDROOT
BRANCH  11  15
ATOM     15  C   UNL     1       3.805  -5.034  10.562  0.00  0.00    +0.037 A 
ATOM     16  C   UNL     1       5.101  -4.529  10.431  0.00  0.00    +0.014 A 
ATOM     17  C   UNL     1       6.054  -4.831  11.382  0.00  0.00    +0.021 A 
ATOM     18  C   UNL     1       5.728  -5.633  12.463  0.00  0.00    +0.041 A 
ATOM     19  C   UNL     1       4.444  -6.136  12.598  0.00  0.00    +0.021 A 
ATOM     20  C   UNL     1       3.481  -5.837  11.657  0.00  0.00    +0.014 A 
ATOM     21 CL   UNL     1       6.933  -6.009  13.654  0.00  0.00    -0.084 Cl
ENDBRANCH  11  15
BRANCH   1  23
ATOM     22  N   UNL     1       2.676  -3.891   3.533  0.00  0.00    -0.315 N 
ATOM     23  C   UNL     1       2.801  -3.445   4.799  0.00  0.00    +0.218 C 
ATOM     24  O   UNL     1       2.849  -2.254   5.021  0.00  0.00    -0.275 OA
ATOM     25  H   UNL     1       2.638  -4.843   3.356  0.00  0.00    +0.149 HD
BRANCH  22  26
ATOM     26  C   UNL     1       2.599  -2.936   2.425  0.00  0.00    +0.109 C 
BRANCH  26  27
ATOM     27  C   UNL     1       2.462  -3.697   1.104  0.00  0.00    +0.054 C 
BRANCH  27  33
ATOM     28  C   UNL     1      -0.268  -0.982  -2.093  0.00  0.00    +0.044 C 
ATOM     29  C   UNL     1       1.075  -1.416  -1.566  0.00  0.00    -0.050 A 
ATOM     30  C   UNL     1       2.234  -0.913  -2.128  0.00  0.00    +0.003 A 
ATOM     31  C   UNL     1       3.466  -1.311  -1.644  0.00  0.00    +0.004 A 
ATOM     32  C   UNL     1       3.540  -2.212  -0.598  0.00  0.00    -0.047 A 
ATOM     33  C   UNL     1       2.381  -2.714  -0.036  0.00  0.00    -0.043 A 
ATOM     34  C   UNL     1       1.149  -2.312  -0.517  0.00  0.00    +0.007 A 
ATOM     35  C   UNL     1       4.883  -2.647  -0.071  0.00  0.00    +0.044 C 
ENDBRANCH  27  33
ENDBRANCH  26  27
ENDBRANCH  22  26
ENDBRANCH   1  23
TORSDOF 5
