REMARK  Name = ZINC45447326
REMARK  4 active torsions:
REMARK  status: ('A' for Active; 'I' for Inactive)
REMARK    1  A    between atoms: C_1  and  N_2
REMARK    2  A    between atoms: N_2  and  C_3
REMARK    3  A    between atoms: C_6  and  C_12
REMARK    4  A    between atoms: C_8  and  N_9
REMARK                            x       y       z     vdW  Elec       q    Type
REMARK                         _______ _______ _______ _____ _____    ______ ____
ROOT
ATOM      1  C   UNL     1       2.917  -2.687  -4.021  0.00  0.00    +0.218 C 
ATOM      2  N   UNL     1       2.564  -2.248  -5.369  0.00  0.00    -0.337 N 
ATOM      3  C   UNL     1       3.282  -1.458  -6.096  0.00  0.00    +0.159 C 
ATOM      4  N   UNL     1       4.495  -0.945  -5.677  0.00  0.00    -0.259 N 
ATOM      5  C   UNL     1       5.054  -1.514  -4.538  0.00  0.00    +0.205 A 
ATOM      6  N   UNL     1       4.311  -2.350  -3.740  0.00  0.00    -0.286 N 
ATOM      7  C   UNL     1       5.124  -2.757  -2.705  0.00  0.00    +0.076 A 
ATOM      8  C   UNL     1       4.949  -3.587  -1.605  0.00  0.00    +0.077 A 
ATOM      9  C   UNL     1       5.998  -3.799  -0.731  0.00  0.00    +0.164 A 
ATOM     10  C   UNL     1       7.229  -3.185  -0.944  0.00  0.00    +0.164 A 
ATOM     11  C   UNL     1       7.418  -2.354  -2.029  0.00  0.00    +0.079 A 
ATOM     12  C   UNL     1       6.365  -2.132  -2.921  0.00  0.00    +0.095 A 
ATOM     13  N   UNL     1       6.252  -1.388  -4.053  0.00  0.00    -0.214 NA
ATOM     14  O   UNL     1       8.255  -3.411  -0.071  0.00  0.00    -0.488 OA
ATOM     15  C   UNL     1       8.094  -2.865   1.239  0.00  0.00    +0.232 C 
ATOM     16  C   UNL     1       7.286  -3.805   2.119  0.00  0.00    +0.082 C 
ATOM     17  C   UNL     1       5.857  -3.975   1.627  0.00  0.00    +0.232 C 
ATOM     18  O   UNL     1       5.832  -4.616   0.351  0.00  0.00    -0.488 OA
ATOM     19  N   UNL     1       2.820  -1.114  -7.345  0.00  0.00    -0.332 N 
ATOM     20  H   UNL     1       1.972  -1.463  -7.661  0.00  0.00    +0.145 HD
ATOM     21  H   UNL     1       4.935  -0.223  -6.153  0.00  0.00    +0.158 HD
ATOM     22  H   UNL     1       3.342  -0.523  -7.909  0.00  0.00    +0.145 HD
ATOM     23  H   UNL     1       1.731  -2.573  -5.745  0.00  0.00    +0.164 HD
ENDROOT
BRANCH   1  27
ATOM     24  C   UNL     1       0.385  -0.735  -1.184  0.00  0.00    +0.057 A 
ATOM     25  C   UNL     1       0.881  -0.031  -2.275  0.00  0.00    +0.025 A 
ATOM     26  C   UNL     1       1.699  -0.665  -3.189  0.00  0.00    +0.009 A 
ATOM     27  C   UNL     1       2.024  -1.998  -3.021  0.00  0.00    -0.002 A 
ATOM     28  C   UNL     1       1.532  -2.702  -1.937  0.00  0.00    +0.042 A 
ATOM     29  C   UNL     1       0.718  -2.072  -1.015  0.00  0.00    +0.147 A 
BRANCH  24  31
ATOM     30  C   UNL     1      -0.683   1.345  -0.360  0.00  0.00    +0.125 C 
ATOM     31  N   UNL     1      -0.442  -0.096  -0.257  0.00  0.00    -0.345 N 
ATOM     32  H   UNL     1      -0.856  -0.608   0.456  0.00  0.00    +0.146 HD
ENDBRANCH  24  31
BRANCH  29  33
ATOM     33  N   UNL     1       0.197  -2.824   0.149  0.00  0.00    +0.058 N 
ATOM     34  O   UNL     1       0.100  -2.282   1.225  0.00  0.00    -0.126 OA
ATOM     35  O   UNL     1      -0.132  -3.981   0.023  0.00  0.00    -0.126 OA
ENDBRANCH  29  33
ENDBRANCH   1  27
TORSDOF 3
