REMARK  Name = ZINC20826725
REMARK  10 active torsions:
REMARK  status: ('A' for Active; 'I' for Inactive)
REMARK    1  A    between atoms: C_1  and  C_2
REMARK    2  A    between atoms: C_5  and  C_8
REMARK    3  A    between atoms: N_9  and  N_10
REMARK    4  A    between atoms: C_14  and  S_17
REMARK    5  A    between atoms: N_15  and  N_16
REMARK    6  A    between atoms: S_17  and  C_18
REMARK    7  A    between atoms: C_18  and  C_19
REMARK    8  A    between atoms: N_21  and  C_22
REMARK    9  A    between atoms: C_27  and  S_28
REMARK   10  A    between atoms: S_28  and  C_29
REMARK                            x       y       z     vdW  Elec       q    Type
REMARK                         _______ _______ _______ _____ _____    ______ ____
ROOT
ATOM      1  N   UNL     1      -0.012   1.383   0.077  0.00  0.00    -0.204 N 
ATOM      2  C   UNL     1       0.006  -0.004   0.059  0.00  0.00    +0.254 A 
ATOM      3  N   UNL     1      -1.045  -0.789   0.068  0.00  0.00    -0.109 NA
ATOM      4  N   UNL     1      -0.594  -2.115   0.040  0.00  0.00    -0.119 NA
ATOM      5  C   UNL     1       0.717  -2.098   0.024  0.00  0.00    +0.210 A 
ATOM      6  N   UNL     1       1.122  -0.793   0.035  0.00  0.00    -0.211 N 
ATOM      7  H   UNL     1       0.933   1.945   0.076  0.00  0.00    +0.177 HD
ENDROOT
BRANCH   6   8
ATOM      8  N   UNL     1       2.416  -0.354   0.023  0.00  0.00    -0.294 N 
ATOM      9  H   UNL     1       3.243  -1.079   0.004  0.00  0.00    +0.163 HD
ATOM     10  H   UNL     1       2.630   0.725   0.034  0.00  0.00    +0.163 HD
ENDBRANCH   6   8
BRANCH   1  12
ATOM     11  C   UNL     1      -1.252   3.366   0.112  0.00  0.00    +0.138 C 
ATOM     12  N   UNL     1      -1.235   2.067   0.095  0.00  0.00    -0.188 NA
BRANCH  11  17
ATOM     13  C   UNL     1      -6.269   6.175   0.187  0.00  0.00    +0.044 C 
ATOM     14  C   UNL     1      -4.954   5.439   0.168  0.00  0.00    -0.050 A 
ATOM     15  C   UNL     1      -3.767   6.150   0.167  0.00  0.00    +0.004 A 
ATOM     16  C   UNL     1      -2.560   5.483   0.149  0.00  0.00    +0.010 A 
ATOM     17  C   UNL     1      -2.538   4.086   0.131  0.00  0.00    -0.005 A 
ATOM     18  C   UNL     1      -3.741   3.375   0.126  0.00  0.00    +0.010 A 
ATOM     19  C   UNL     1      -4.940   4.055   0.149  0.00  0.00    +0.004 A 
ENDBRANCH  11  17
ENDBRANCH   1  12
BRANCH   5  20
ATOM     20  S   UNL     1       1.772  -3.509  -0.007  0.00  0.00    -0.075 S 
BRANCH  20  21
ATOM     21  C   UNL     1       0.624  -4.914  -0.010  0.00  0.00    +0.173 C 
BRANCH  21  22
ATOM     22  C   UNL     1       1.407  -6.202  -0.036  0.00  0.00    +0.228 C 
ATOM     23  O   UNL     1       2.619  -6.174  -0.051  0.00  0.00    -0.275 OA
ATOM     24  N   UNL     1       0.759  -7.384  -0.042  0.00  0.00    -0.284 N 
ATOM     25  H   UNL     1      -0.337  -7.411   0.046  0.00  0.00    +0.155 HD
BRANCH  24  26
ATOM     26  C   UNL     1       1.483  -8.578  -0.161  0.00  0.00    +0.047 A 
ATOM     27  C   UNL     1       2.738  -8.691   0.417  0.00  0.00    +0.024 A 
ATOM     28  C   UNL     1       3.448  -9.872   0.304  0.00  0.00    +0.002 A 
ATOM     29  C   UNL     1       2.914 -10.940  -0.394  0.00  0.00    +0.001 A 
ATOM     30  C   UNL     1       1.666 -10.835  -0.979  0.00  0.00    +0.016 A 
ATOM     31  C   UNL     1       0.944  -9.655  -0.865  0.00  0.00    +0.029 A 
BRANCH  31  32
ATOM     32  S   UNL     1      -0.647  -9.518  -1.609  0.00  0.00    -0.127 S 
ATOM     33  C   UNL     1      -0.907 -11.134  -2.391  0.00  0.00    +0.090 C 
ENDBRANCH  31  32
ENDBRANCH  24  26
ENDBRANCH  21  22
ENDBRANCH  20  21
ENDBRANCH   5  20
TORSDOF 8
