REMARK  Name = ZINC53115297
REMARK  6 active torsions:
REMARK  status: ('A' for Active; 'I' for Inactive)
REMARK    1  A    between atoms: C_1  and  C_2
REMARK    2  A    between atoms: C_7  and  C_9
REMARK    3  A    between atoms: C_7  and  N_11
REMARK    4  A    between atoms: C_9  and  O_10
REMARK    5  A    between atoms: N_11  and  C_12
REMARK    6  A    between atoms: C_15  and  N_19
REMARK                            x       y       z     vdW  Elec       q    Type
REMARK                         _______ _______ _______ _____ _____    ______ ____
ROOT
ATOM      1  N   UNL     1      -0.609  -2.342   1.133  0.00  0.00    -0.332 N 
ATOM      2  H   UNL     1      -0.652  -3.260   0.822  0.00  0.00    +0.147 HD
ENDROOT
BRANCH   1   3
ATOM      3  C   UNL     1      -1.449  -1.915   2.173  0.00  0.00    +0.099 A 
ATOM      4  C   UNL     1      -0.902  -1.363   3.325  0.00  0.00    +0.149 A 
ATOM      5  C   UNL     1      -1.730  -0.942   4.350  0.00  0.00    +0.063 A 
ATOM      6  C   UNL     1      -3.107  -1.070   4.227  0.00  0.00    +0.030 A 
ATOM      7  C   UNL     1      -3.654  -1.621   3.076  0.00  0.00    +0.063 A 
ATOM      8  C   UNL     1      -2.827  -2.037   2.048  0.00  0.00    +0.149 A 
ATOM      9  F   UNL     1      -3.360  -2.567   0.925  0.00  0.00    -0.203 F 
ATOM     10  F   UNL     1       0.438  -1.239   3.445  0.00  0.00    -0.203 F 
BRANCH   6  11
ATOM     11  N   UNL     1      -3.945  -0.644   5.265  0.00  0.00    -0.358 N 
ATOM     12  H   UNL     1      -3.563  -0.260   6.070  0.00  0.00    +0.142 HD
ATOM     13  H   UNL     1      -4.907  -0.734   5.179  0.00  0.00    +0.142 HD
ENDBRANCH   6  11
ENDBRANCH   1   3
BRANCH   1  19
ATOM     14  C   UNL     1      -1.696   1.815   1.115  0.00  0.00    +0.007 C 
ATOM     15  C   UNL     1      -1.397   0.398   0.623  0.00  0.00    -0.012 C 
ATOM     16  C   UNL     1      -1.545   0.345  -0.899  0.00  0.00    +0.003 C 
ATOM     17  C   UNL     1      -1.246  -1.073  -1.391  0.00  0.00    +0.002 C 
ATOM     18  C   UNL     1       0.184  -1.456  -1.004  0.00  0.00    +0.028 C 
ATOM     19  C   UNL     1       0.332  -1.403   0.518  0.00  0.00    +0.055 C 
ATOM     20  C   UNL     1       0.033   0.014   1.010  0.00  0.00    +0.031 C 
BRANCH  19  21
ATOM     21  C   UNL     1       1.762  -1.786   0.905  0.00  0.00    +0.181 C 
BRANCH  21  22
ATOM     22  O   UNL     1       2.045  -3.106   0.435  0.00  0.00    -0.393 OA
ATOM     23  H   UNL     1       2.936  -3.415   0.645  0.00  0.00    +0.209 HD
ENDBRANCH  21  22
ENDBRANCH  19  21
ENDBRANCH   1  19
TORSDOF 5
