REMARK  Name = ZINC12989101
REMARK  9 active torsions:
REMARK  status: ('A' for Active; 'I' for Inactive)
REMARK    1  A    between atoms: C_1  and  C_2
REMARK    2  A    between atoms: C_2  and  C_3
REMARK    3  A    between atoms: C_6  and  C_9
REMARK    4  A    between atoms: N_11  and  N_12
REMARK    5  A    between atoms: C_13  and  C_15
REMARK    6  A    between atoms: C_15  and  N_16
REMARK    7  A    between atoms: C_19  and  C_23
REMARK    8  A    between atoms: C_19  and  C_25
REMARK    9  A    between atoms: C_23  and  C_24
REMARK                            x       y       z     vdW  Elec       q    Type
REMARK                         _______ _______ _______ _____ _____    ______ ____
ROOT
ATOM      1  C   UNL     1       2.832  -3.366   9.294  0.00  0.00    +0.215 C 
ENDROOT
BRANCH   1   2
ATOM      2  N   UNL     1       1.877  -3.554  10.390  0.00  0.00    -0.215 N 
ATOM      3  C   UNL     1       1.551  -2.598  11.282  0.00  0.00    +0.251 C 
ATOM      4  O   UNL     1       1.975  -1.463  11.327  0.00  0.00    -0.272 OA
ATOM      5  C   UNL     1       0.542  -3.236  12.216  0.00  0.00    +0.138 C 
ATOM      6  N   UNL     1       0.404  -4.606  11.693  0.00  0.00    -0.281 N 
ATOM      7  C   UNL     1       1.218  -4.694  10.626  0.00  0.00    +0.310 C 
ATOM      8  O   UNL     1       1.343  -5.698   9.952  0.00  0.00    -0.252 OA
ATOM      9  H   UNL     1      -0.164  -5.307  12.048  0.00  0.00    +0.152 HD
BRANCH   5  10
ATOM     10  C   UNL     1       1.067  -3.257  13.629  0.00  0.00    -0.015 A 
ATOM     11  C   UNL     1       0.797  -2.204  14.482  0.00  0.00    +0.006 A 
ATOM     12  C   UNL     1       1.279  -2.224  15.778  0.00  0.00    +0.000 A 
ATOM     13  C   UNL     1       2.030  -3.297  16.220  0.00  0.00    +0.000 A 
ATOM     14  C   UNL     1       2.298  -4.351  15.366  0.00  0.00    +0.000 A 
ATOM     15  C   UNL     1       1.813  -4.333  14.072  0.00  0.00    +0.006 A 
ENDBRANCH   5  10
BRANCH   5  16
ATOM     16  C   UNL     1      -0.796  -2.497  12.149  0.00  0.00    +0.037 C 
ATOM     17  C   UNL     1      -1.391  -2.645  10.747  0.00  0.00    +0.007 C 
ENDBRANCH   5  16
ENDBRANCH   1   2
BRANCH   1  19
ATOM     18  N   UNL     1       2.783  -2.621   6.936  0.00  0.00    -0.233 N 
ATOM     19  C   UNL     1       2.103  -2.866   8.074  0.00  0.00    +0.247 C 
ATOM     20  O   UNL     1       0.904  -2.685   8.115  0.00  0.00    -0.273 OA
ATOM     21  H   UNL     1       3.741  -2.766   6.903  0.00  0.00    +0.173 HD
BRANCH  18  24
ATOM     22  C   UNL     1       2.785  -1.911   4.664  0.00  0.00    +0.260 C 
ATOM     23  O   UNL     1       3.986  -2.093   4.623  0.00  0.00    -0.269 OA
ATOM     24  N   UNL     1       2.105  -2.156   5.801  0.00  0.00    -0.230 N 
ATOM     25  H   UNL     1       1.147  -2.011   5.834  0.00  0.00    +0.173 HD
BRANCH  22  29
ATOM     26  C   UNL     1       0.731  -0.503   1.223  0.00  0.00    -0.048 A 
ATOM     27  C   UNL     1       2.098  -0.709   1.173  0.00  0.00    +0.004 A 
ATOM     28  C   UNL     1       2.772  -1.166   2.287  0.00  0.00    +0.013 A 
ATOM     29  C   UNL     1       2.070  -1.421   3.466  0.00  0.00    +0.038 A 
ATOM     30  C   UNL     1       0.691  -1.211   3.510  0.00  0.00    +0.013 A 
ATOM     31  C   UNL     1       0.031  -0.749   2.391  0.00  0.00    +0.004 A 
BRANCH  26  33
ATOM     32  C   UNL     1      -0.019   1.526   0.010  0.00  0.00    +0.009 C 
ATOM     33  C   UNL     1       0.002  -0.004   0.002  0.00  0.00    +0.032 C 
ENDBRANCH  26  33
ENDBRANCH  22  29
ENDBRANCH  18  24
ENDBRANCH   1  19
TORSDOF 7
