REMARK  Name = ZINC08862465
REMARK  5 active torsions:
REMARK  status: ('A' for Active; 'I' for Inactive)
REMARK    1  A    between atoms: C_1  and  C_2
REMARK    2  A    between atoms: C_15  and  C_17
REMARK    3  A    between atoms: C_17  and  C_19
REMARK    4  A    between atoms: C_17  and  N_65
REMARK    5  A    between atoms: C_25  and  C_27
REMARK                            x       y       z     vdW  Elec       q    Type
REMARK                         _______ _______ _______ _____ _____    ______ ____
ROOT
ATOM      1  C   UNL     1      -0.702   1.524   3.695  0.00  0.00    -0.059 C 
ATOM      2  C   UNL     1       0.103   0.948   4.864  0.00  0.00    +0.089 C 
ATOM      3  N   UNL     1       1.453   1.531   4.834  0.00  0.00    -0.302 N 
ATOM      4  C   UNL     1       2.205   1.479   3.572  0.00  0.00    +0.089 C 
ATOM      5  C   UNL     1       1.318   2.035   2.453  0.00  0.00    -0.059 C 
ATOM      6  C   UNL     1       1.987   2.097   5.935  0.00  0.00    +0.260 C 
ATOM      7  O   UNL     1       1.388   2.057   6.989  0.00  0.00    -0.271 OA
ATOM      8  N   UNL     1       0.044   1.283   2.440  0.00  0.00    +0.388 N 
ATOM      9  H   UNL     1       0.250   0.280   2.363  0.00  0.00    -0.081 HD
ENDROOT
BRANCH   6  10
ATOM     10  C   UNL     1       3.328   2.780   5.856  0.00  0.00    +0.296 C 
ATOM     11  C   UNL     1       4.435   1.729   5.699  0.00  0.00    +0.283 C 
ATOM     12  O   UNL     1       5.694   2.409   5.642  0.00  0.00    -0.484 OA
ATOM     13  C   UNL     1       5.906   3.382   6.570  0.00  0.00    +0.162 A 
ATOM     14  C   UNL     1       7.198   3.827   6.807  0.00  0.00    +0.049 A 
ATOM     15  C   UNL     1       7.429   4.819   7.741  0.00  0.00    +0.004 A 
ATOM     16  C   UNL     1       6.373   5.370   8.443  0.00  0.00    +0.004 A 
ATOM     17  C   UNL     1       5.083   4.930   8.213  0.00  0.00    +0.049 A 
ATOM     18  C   UNL     1       4.845   3.935   7.277  0.00  0.00    +0.163 A 
ATOM     19  O   UNL     1       3.569   3.510   7.064  0.00  0.00    -0.473 OA
ENDBRANCH   6  10
BRANCH   8  20
ATOM     20  C   UNL     1      -0.773   1.696   1.280  0.00  0.00    -0.004 C 
ATOM     21  C   UNL     1      -0.849   3.221   1.191  0.00  0.00    -0.005 C 
BRANCH  20  35
ATOM     22  C   UNL     1       4.059  -2.506  -6.389  0.00  0.00    +0.008 C 
ATOM     23  C   UNL     1       3.038  -2.036  -5.352  0.00  0.00    -0.009 C 
ATOM     24  C   UNL     1       2.566  -0.621  -5.700  0.00  0.00    +0.008 C 
ATOM     25  C   UNL     1       1.373  -0.241  -4.822  0.00  0.00    +0.037 C 
ATOM     26  C   UNL     1       1.746  -0.469  -3.360  0.00  0.00    -0.023 A 
ATOM     27  C   UNL     1       2.786  -1.263  -3.029  0.00  0.00    -0.004 A 
ATOM     28  S   UNL     1       2.844  -1.231  -1.258  0.00  0.00    -0.073 S 
ATOM     29  C   UNL     1       1.468  -0.148  -0.967  0.00  0.00    +0.116 A 
ATOM     30  C   UNL     1       1.010   0.152  -2.259  0.00  0.00    +0.075 A 
ATOM     31  C   UNL     1      -0.122   1.028  -2.328  0.00  0.00    +0.260 A 
ATOM     32  O   UNL     1      -0.595   1.347  -3.406  0.00  0.00    -0.267 OA
ATOM     33  N   UNL     1      -0.655   1.494  -1.183  0.00  0.00    -0.312 N 
ATOM     34  H   UNL     1      -1.422   2.087  -1.222  0.00  0.00    +0.170 HD
ATOM     35  C   UNL     1      -0.143   1.149   0.026  0.00  0.00    +0.097 A 
ATOM     36  N   UNL     1       0.891   0.356   0.121  0.00  0.00    -0.228 NA
ATOM     37  C   UNL     1       3.691  -2.009  -3.962  0.00  0.00    +0.046 C 
ENDBRANCH  20  35
ENDBRANCH   8  20
TORSDOF 3
