REMARK  Name = ZINC02494343
REMARK  10 active torsions:
REMARK  status: ('A' for Active; 'I' for Inactive)
REMARK    1  A    between atoms: C_1  and  C_2
REMARK    2  A    between atoms: C_2  and  C_3
REMARK    3  A    between atoms: C_3  and  C_4
REMARK    4  A    between atoms: C_3  and  C_5
REMARK    5  A    between atoms: C_3  and  N_13
REMARK    6  A    between atoms: N_7  and  C_8
REMARK    7  A    between atoms: N_13  and  C_14
REMARK    8  A    between atoms: C_17  and  C_20
REMARK    9  A    between atoms: C_21  and  C_23
REMARK   10  A    between atoms: C_23  and  C_24
REMARK                            x       y       z     vdW  Elec       q    Type
REMARK                         _______ _______ _______ _____ _____    ______ ____
ROOT
ATOM      1  N   UNL     1       0.160   0.378  -2.253  0.00  0.00    -0.257 N 
ATOM      2  C   UNL     1      -1.141   0.418  -2.604  0.00  0.00    +0.223 C 
ATOM      3  O   UNL     1      -1.943  -0.298  -2.044  0.00  0.00    -0.275 OA
ENDROOT
BRANCH   1   4
ATOM      4  C   UNL     1       1.063   1.291  -2.807  0.00  0.00    +0.037 A 
ATOM      5  C   UNL     1       2.109   0.841  -3.601  0.00  0.00    +0.024 A 
ATOM      6  C   UNL     1       2.999   1.745  -4.147  0.00  0.00    +0.005 A 
ATOM      7  C   UNL     1       2.849   3.098  -3.903  0.00  0.00    -0.050 A 
ATOM      8  C   UNL     1       1.808   3.550  -3.113  0.00  0.00    +0.005 A 
ATOM      9  C   UNL     1       0.912   2.651  -2.568  0.00  0.00    +0.024 A 
ATOM     10  C   UNL     1       3.822   4.082  -4.500  0.00  0.00    +0.044 C 
ENDBRANCH   1   4
BRANCH   1  11
ATOM     11  C   UNL     1       0.628  -0.624  -1.291  0.00  0.00    +0.115 C 
ATOM     12  C   UNL     1      -0.567  -1.418  -0.760  0.00  0.00    +0.042 C 
BRANCH  11  13
ATOM     13  C   UNL     1       1.592  -1.561  -1.971  0.00  0.00    +0.237 C 
ATOM     14  O   UNL     1       2.575  -1.954  -1.379  0.00  0.00    -0.273 OA
ATOM     15  N   UNL     1       1.363  -1.962  -3.237  0.00  0.00    -0.311 N 
ATOM     16  H   UNL     1       0.625  -1.583  -3.740  0.00  0.00    +0.149 HD
BRANCH  15  17
ATOM     17  C   UNL     1       2.228  -2.971  -3.854  0.00  0.00    +0.073 C 
ATOM     18  C   UNL     1       3.481  -2.298  -4.451  0.00  0.00    +0.022 C 
ATOM     19  C   UNL     1       3.754  -3.091  -5.753  0.00  0.00    +0.002 C 
ATOM     20  C   UNL     1       2.328  -3.367  -6.290  0.00  0.00    +0.002 C 
ATOM     21  C   UNL     1       1.494  -3.650  -5.024  0.00  0.00    +0.022 C 
ENDBRANCH  15  17
ENDBRANCH  11  13
BRANCH  11  23
ATOM     22  C   UNL     1       2.599   0.766  -0.639  0.00  0.00    +0.006 C 
ATOM     23  C   UNL     1       1.332   0.077  -0.128  0.00  0.00    +0.032 C 
ENDBRANCH  11  23
ENDBRANCH   1  11
BRANCH   2  24
ATOM     24  C   UNL     1      -1.598   1.355  -3.693  0.00  0.00    +0.128 C 
BRANCH  24  25
ATOM     25  C   UNL     1      -3.118   1.262  -3.840  0.00  0.00    +0.169 C 
ATOM     26  C   UNL     1      -3.611   2.222  -4.905  0.00  0.00    +0.241 C 
ATOM     27  O   UNL     1      -3.508   3.430  -4.906  0.00  0.00    -0.273 OA
ATOM     28  N   UNL     1      -4.185   1.453  -5.850  0.00  0.00    -0.239 N 
ATOM     29  C   UNL     1      -4.125   0.155  -5.534  0.00  0.00    +0.307 C 
ATOM     30  O   UNL     1      -4.576  -0.732  -6.232  0.00  0.00    -0.252 OA
ATOM     31  N   UNL     1      -3.510  -0.061  -4.354  0.00  0.00    -0.287 N 
ATOM     32  H   UNL     1      -4.593   1.799  -6.660  0.00  0.00    +0.159 HD
ATOM     33  H   UNL     1      -3.354  -0.918  -3.927  0.00  0.00    +0.151 HD
ENDBRANCH  24  25
ENDBRANCH   2  24
TORSDOF 7
