REMARK  Name = ZINC39237826
REMARK  8 active torsions:
REMARK  status: ('A' for Active; 'I' for Inactive)
REMARK    1  A    between atoms: C_1  and  C_2
REMARK    2  A    between atoms: C_2  and  C_3
REMARK    3  A    between atoms: C_6  and  C_9
REMARK    4  A    between atoms: C_13  and  C_15
REMARK    5  A    between atoms: N_21  and  C_29
REMARK    6  A    between atoms: C_23  and  C_24
REMARK    7  A    between atoms: C_36  and  N_40
REMARK    8  A    between atoms: C_37  and  C_38
REMARK                            x       y       z     vdW  Elec       q    Type
REMARK                         _______ _______ _______ _____ _____    ______ ____
ROOT
ATOM      1  C   UNL     1       4.718  -3.078  -3.913  0.00  0.00    +0.063 C 
ATOM      2  C   UNL     1       6.207  -3.180  -4.080  0.00  0.00    +0.113 C 
ATOM      3  C   UNL     1       6.949  -3.726  -2.849  0.00  0.00    +0.294 C 
ATOM      4  N   UNL     1       8.295  -3.121  -3.091  0.00  0.00    -0.185 N 
ATOM      5  N   UNL     1       8.068  -1.919  -3.779  0.00  0.00    -0.177 NA
ATOM      6  C   UNL     1       6.917  -1.887  -4.357  0.00  0.00    +0.110 C 
ATOM      7  O   UNL     1       6.464  -3.118  -1.651  0.00  0.00    -0.455 OA
ATOM      8  C   UNL     1       5.181  -2.786  -1.500  0.00  0.00    +0.194 C 
ATOM      9  C   UNL     1       4.325  -2.679  -2.520  0.00  0.00    +0.091 C 
ENDROOT
BRANCH   4  10
ATOM     10  C   UNL     1       9.529  -3.647  -2.710  0.00  0.00    +0.055 A 
ATOM     11  C   UNL     1       9.590  -4.861  -2.034  0.00  0.00    +0.025 A 
ATOM     12  C   UNL     1      10.814  -5.378  -1.658  0.00  0.00    +0.002 A 
ATOM     13  C   UNL     1      11.977  -4.691  -1.954  0.00  0.00    +0.000 A 
ATOM     14  C   UNL     1      11.920  -3.484  -2.626  0.00  0.00    +0.002 A 
ATOM     15  C   UNL     1      10.701  -2.963  -3.010  0.00  0.00    +0.025 A 
ENDBRANCH   4  10
BRANCH   1  20
ATOM     16  C   UNL     1       3.627  -0.837  -4.155  0.00  0.00    +0.080 C 
ATOM     17  N   UNL     1       2.362  -0.776  -4.470  0.00  0.00    -0.153 NA
ATOM     18  N   UNL     1       1.987  -1.798  -5.336  0.00  0.00    -0.161 NA
ATOM     19  C   UNL     1       2.973  -2.580  -5.636  0.00  0.00    +0.118 C 
ATOM     20  C   UNL     1       4.180  -2.038  -4.897  0.00  0.00    +0.092 C 
BRANCH  16  24
ATOM     21  C   UNL     1       5.754   1.793  -1.596  0.00  0.00    -0.048 A 
ATOM     22  C   UNL     1       4.554   2.197  -2.154  0.00  0.00    +0.004 A 
ATOM     23  C   UNL     1       3.856   1.348  -2.986  0.00  0.00    +0.010 A 
ATOM     24  C   UNL     1       4.365   0.076  -3.267  0.00  0.00    -0.001 A 
ATOM     25  C   UNL     1       5.579  -0.325  -2.700  0.00  0.00    +0.010 A 
ATOM     26  C   UNL     1       6.267   0.538  -1.874  0.00  0.00    +0.004 A 
BRANCH  21  28
ATOM     27  C   UNL     1       7.469   3.583  -1.517  0.00  0.00    +0.009 C 
ATOM     28  C   UNL     1       6.510   2.727  -0.686  0.00  0.00    +0.032 C 
ENDBRANCH  21  28
ENDBRANCH  16  24
ENDBRANCH   1  20
BRANCH   6  29
ATOM     29  C   UNL     1       6.405  -0.775  -5.165  0.00  0.00    +0.151 A 
ATOM     30  C   UNL     1       6.291   0.523  -4.761  0.00  0.00    +0.051 A 
ATOM     31  C   UNL     1       5.758   1.241  -5.848  0.00  0.00    +0.042 A 
ATOM     32  C   UNL     1       5.573   0.359  -6.852  0.00  0.00    +0.196 A 
ATOM     33  O   UNL     1       5.969  -0.856  -6.438  0.00  0.00    -0.462 OA
ENDBRANCH   6  29
BRANCH   8  34
ATOM     34  N   UNL     1       4.726  -2.498  -0.238  0.00  0.00    -0.329 N 
ATOM     35  H   UNL     1       5.333  -2.539   0.517  0.00  0.00    +0.145 HD
ATOM     36  H   UNL     1       3.798  -2.254  -0.101  0.00  0.00    +0.145 HD
ENDBRANCH   8  34
BRANCH   9  37
ATOM     37  C   UNL     1       2.994  -2.215  -2.271  0.00  0.00    +0.100 C 
ATOM     38  N   UNL     1       1.938  -1.846  -2.074  0.00  0.00    -0.191 NA
ENDBRANCH   9  37
TORSDOF 7
