REMARK  Name = ZINC05554192
REMARK  7 active torsions:
REMARK  status: ('A' for Active; 'I' for Inactive)
REMARK    1  A    between atoms: C_1  and  C_2
REMARK    2  A    between atoms: C_2  and  C_3
REMARK    3  A    between atoms: C_2  and  C_4
REMARK    4  A    between atoms: C_2  and  C_5
REMARK    5  A    between atoms: C_8  and  C_11
REMARK    6  A    between atoms: N_14  and  N_15
REMARK    7  A    between atoms: N_15  and  C_16
REMARK                            x       y       z     vdW  Elec       q    Type
REMARK                         _______ _______ _______ _____ _____    ______ ____
ROOT
ATOM      1  C   UNL     1      -5.988  -1.023  -0.236  0.00  0.00    +0.138 A 
ATOM      2  C   UNL     1      -4.809  -0.413   0.022  0.00  0.00    +0.076 A 
ATOM      3  C   UNL     1      -4.774   1.063   0.030  0.00  0.00    +0.096 A 
ATOM      4  N   UNL     1      -3.645   1.732   0.029  0.00  0.00    -0.182 NA
ATOM      5  C   UNL     1      -6.094   1.746   0.046  0.00  0.00    +0.044 A 
ATOM      6  C   UNL     1      -6.205   3.103   0.310  0.00  0.00    +0.014 A 
ATOM      7  C   UNL     1      -7.453   3.697   0.314  0.00  0.00    +0.001 A 
ATOM      8  C   UNL     1      -8.582   2.941   0.051  0.00  0.00    +0.004 A 
ATOM      9  C   UNL     1      -8.479   1.590  -0.221  0.00  0.00    +0.047 A 
ATOM     10  C   UNL     1      -7.234   0.978  -0.231  0.00  0.00    +0.138 A 
ATOM     11  O   UNL     1      -7.119  -0.341  -0.500  0.00  0.00    -0.455 OA
ENDROOT
BRANCH   1  15
ATOM     12  C   UNL     1      -6.129  -5.266  -0.215  0.00  0.00    -0.042 A 
ATOM     13  C   UNL     1      -7.276  -4.540  -0.483  0.00  0.00    +0.005 A 
ATOM     14  C   UNL     1      -7.238  -3.162  -0.492  0.00  0.00    +0.012 A 
ATOM     15  C   UNL     1      -6.037  -2.498  -0.229  0.00  0.00    +0.017 A 
ATOM     16  C   UNL     1      -4.881  -3.237   0.035  0.00  0.00    +0.012 A 
ATOM     17  C   UNL     1      -4.936  -4.615   0.046  0.00  0.00    +0.005 A 
BRANCH  12  19
ATOM     18  C   UNL     1      -6.623  -7.274  -1.583  0.00  0.00    +0.015 C 
ATOM     19  C   UNL     1      -6.179  -6.772  -0.208  0.00  0.00    -0.013 C 
ATOM     20  C   UNL     1      -4.789  -7.327   0.113  0.00  0.00    +0.015 C 
ATOM     21  C   UNL     1      -7.174  -7.245   0.853  0.00  0.00    +0.015 C 
ENDBRANCH  12  19
ENDBRANCH   1  15
BRANCH   4  22
ATOM     22  N   UNL     1      -2.424   1.046   0.019  0.00  0.00    -0.237 N 
ATOM     23  H   UNL     1      -2.413   0.075   0.014  0.00  0.00    +0.174 HD
BRANCH  22  24
ATOM     24  C   UNL     1      -1.226   1.756   0.017  0.00  0.00    +0.048 A 
ATOM     25  C   UNL     1      -0.013   1.076   0.008  0.00  0.00    +0.025 A 
ATOM     26  C   UNL     1       1.173   1.783   0.000  0.00  0.00    +0.002 A 
ATOM     27  C   UNL     1       1.155   3.166   0.008  0.00  0.00    +0.000 A 
ATOM     28  C   UNL     1      -0.049   3.846   0.023  0.00  0.00    +0.002 A 
ATOM     29  C   UNL     1      -1.239   3.146   0.031  0.00  0.00    +0.025 A 
ENDBRANCH  22  24
ENDBRANCH   4  22
TORSDOF 4
