REMARK  Name = ZINC10033391
REMARK  9 active torsions:
REMARK  status: ('A' for Active; 'I' for Inactive)
REMARK    1  A    between atoms: C_1  and  C_2
REMARK    2  A    between atoms: C_5  and  N_12
REMARK    3  A    between atoms: C_8  and  C_10
REMARK    4  A    between atoms: C_8  and  C_11
REMARK    5  A    between atoms: C_13  and  C_15
REMARK    6  A    between atoms: N_17  and  C_18
REMARK    7  A    between atoms: N_22  and  C_23
REMARK    8  A    between atoms: C_26  and  O_29
REMARK    9  A    between atoms: O_29  and  C_30
REMARK                            x       y       z     vdW  Elec       q    Type
REMARK                         _______ _______ _______ _____ _____    ______ ____
ROOT
ATOM      1  C   UNL     1       5.622  -3.448   4.785  0.00  0.00    +0.134 A 
ATOM      2  C   UNL     1       5.088  -3.502   6.053  0.00  0.00    +0.038 A 
ATOM      3  C   UNL     1       6.011  -4.124   6.875  0.00  0.00    +0.091 A 
ATOM      4  N   UNL     1       7.072  -4.441   6.146  0.00  0.00    -0.168 NA
ATOM      5  N   UNL     1       6.846  -4.031   4.831  0.00  0.00    -0.218 N 
ATOM      6  C   UNL     1       5.621  -4.293   8.343  0.00  0.00    +0.223 C 
ATOM      7  S   UNL     1       4.204  -3.129   8.491  0.00  0.00    -0.021 S 
ATOM      8  O   UNL     1       4.678  -1.860   8.918  0.00  0.00    -0.174 OA
ATOM      9  O   UNL     1       3.146  -3.761   9.199  0.00  0.00    -0.174 OA
ATOM     10  C   UNL     1       3.781  -3.053   6.702  0.00  0.00    +0.206 C 
ENDROOT
BRANCH   5  11
ATOM     11  C   UNL     1       7.728  -4.190   3.752  0.00  0.00    +0.068 A 
ATOM     12  C   UNL     1       7.237  -4.521   2.496  0.00  0.00    +0.031 A 
ATOM     13  C   UNL     1       8.104  -4.672   1.433  0.00  0.00    +0.048 A 
ATOM     14  C   UNL     1       9.469  -4.503   1.621  0.00  0.00    +0.120 A 
ATOM     15  C   UNL     1       9.961  -4.178   2.877  0.00  0.00    +0.048 A 
ATOM     16  C   UNL     1       9.093  -4.021   3.940  0.00  0.00    +0.031 A 
BRANCH  14  17
ATOM     17  O   UNL     1      10.323  -4.657   0.576  0.00  0.00    -0.495 OA
ATOM     18  C   UNL     1       9.748  -4.992  -0.689  0.00  0.00    +0.277 C 
ENDBRANCH  14  17
ENDBRANCH   5  11
BRANCH   1  21
ATOM     19  C   UNL     1       3.670  -2.863   3.569  0.00  0.00    +0.304 C 
ATOM     20  O   UNL     1       2.990  -3.380   4.432  0.00  0.00    -0.265 OA
ATOM     21  N   UNL     1       5.015  -2.900   3.659  0.00  0.00    -0.262 N 
ATOM     22  H   UNL     1       5.559  -2.544   2.939  0.00  0.00    +0.157 HD
BRANCH  19  24
ATOM     23  N   UNL     1       1.673  -2.152   2.319  0.00  0.00    -0.305 N 
ATOM     24  C   UNL     1       3.018  -2.188   2.409  0.00  0.00    +0.300 C 
ATOM     25  O   UNL     1       3.697  -1.672   1.546  0.00  0.00    -0.265 OA
ATOM     26  H   UNL     1       1.130  -2.564   3.009  0.00  0.00    +0.149 HD
BRANCH  23  30
ATOM     27  C   UNL     1       0.114   2.198   0.562  0.00  0.00    +0.007 C 
ATOM     28  C   UNL     1       0.239   0.700   0.277  0.00  0.00    -0.012 C 
ATOM     29  C   UNL     1       0.908   0.009   1.466  0.00  0.00    +0.025 C 
ATOM     30  C   UNL     1       1.033  -1.489   1.180  0.00  0.00    +0.074 C 
ATOM     31  C   UNL     1      -0.359  -2.085   0.961  0.00  0.00    +0.028 C 
ATOM     32  C   UNL     1      -1.028  -1.393  -0.229  0.00  0.00    -0.033 C 
ATOM     33  C   UNL     1      -1.154   0.105   0.057  0.00  0.00    +0.009 C 
ATOM     34  C   UNL     1      -0.180  -1.603  -1.484  0.00  0.00    +0.011 C 
ATOM     35  C   UNL     1      -2.421  -1.988  -0.448  0.00  0.00    +0.011 C 
ENDBRANCH  23  30
ENDBRANCH  19  24
ENDBRANCH   1  21
TORSDOF 5
