REMARK  Name = ZINC62242995
REMARK  5 active torsions:
REMARK  status: ('A' for Active; 'I' for Inactive)
REMARK    1  A    between atoms: C_4  and  C_7
REMARK    2  A    between atoms: C_7  and  C_9
REMARK    3  A    between atoms: C_7  and  N_13
REMARK    4  A    between atoms: N_10  and  O_11
REMARK    5  A    between atoms: C_14  and  C_16
REMARK                            x       y       z     vdW  Elec       q    Type
REMARK                         _______ _______ _______ _____ _____    ______ ____
ROOT
ATOM      1  C   UNL     1       2.917  -0.488   2.470  0.00  0.00    +0.142 C 
ENDROOT
BRANCH   1   5
ATOM      2  C   UNL     1      -0.019   1.526   0.010  0.00  0.00    +0.000 C 
ATOM      3  C   UNL     1       1.417   2.055  -0.000  0.00  0.00    +0.000 C 
ATOM      4  C   UNL     1       2.157   1.548   1.239  0.00  0.00    +0.006 C 
ATOM      5  C   UNL     1       2.178   0.019   1.231  0.00  0.00    +0.017 C 
ATOM      6  C   UNL     1       0.742  -0.511   1.242  0.00  0.00    +0.006 C 
ATOM      7  C   UNL     1       0.002  -0.004   0.002  0.00  0.00    +0.000 C 
ENDBRANCH   1   5
BRANCH   1   8
ATOM      8  C   UNL     1       4.331   0.034   2.459  0.00  0.00    +0.152 C 
ATOM      9  N   UNL     1       4.783   0.695   3.473  0.00  0.00    -0.075 NA
ATOM     10  N   UNL     1       5.141  -0.195   1.369  0.00  0.00    -0.342 N 
ATOM     11  H   UNL     1       4.802  -0.692   0.609  0.00  0.00    +0.144 HD
ATOM     12  H   UNL     1       6.051   0.141   1.363  0.00  0.00    +0.144 HD
BRANCH   9  13
ATOM     13  O   UNL     1       6.112   1.185   3.463  0.00  0.00    -0.408 OA
ATOM     14  H   UNL     1       6.359   1.667   4.264  0.00  0.00    +0.328 HD
ENDBRANCH   9  13
ENDBRANCH   1   8
BRANCH   1  15
ATOM     15  N   UNL     1       2.937  -1.953   2.462  0.00  0.00    -0.305 N 
ATOM     16  C   UNL     1       3.059  -2.632   3.620  0.00  0.00    +0.219 C 
ATOM     17  O   UNL     1       3.153  -2.030   4.669  0.00  0.00    -0.275 OA
ATOM     18  H   UNL     1       2.863  -2.434   1.623  0.00  0.00    +0.149 HD
BRANCH  16  19
ATOM     19  C   UNL     1       3.080  -4.138   3.612  0.00  0.00    +0.101 C 
ATOM     20  C   UNL     1       3.229  -4.656   5.046  0.00  0.00    +0.017 C 
ATOM     21  C   UNL     1       3.327  -6.185   5.017  0.00  0.00    +0.029 C 
ATOM     22  C   UNL     1       4.501  -6.597   4.125  0.00  0.00    +0.160 C 
ATOM     23  O   UNL     1       4.315  -6.057   2.815  0.00  0.00    -0.379 OA
ATOM     24  C   UNL     1       4.262  -4.630   2.773  0.00  0.00    +0.172 C 
ENDBRANCH  16  19
ENDBRANCH   1  15
TORSDOF 5
