REMARK  Name = ZINC38684796
REMARK  12 active torsions:
REMARK  status: ('A' for Active; 'I' for Inactive)
REMARK    1  A    between atoms: C_1  and  C_2
REMARK    2  A    between atoms: C_2  and  C_3
REMARK    3  A    between atoms: C_3  and  C_4
REMARK    4  A    between atoms: C_4  and  C_5
REMARK    5  A    between atoms: C_5  and  O_6
REMARK    6  A    between atoms: O_6  and  C_7
REMARK    7  A    between atoms: C_11  and  C_13
REMARK    8  A    between atoms: C_18  and  O_27
REMARK    9  A    between atoms: C_22  and  N_26
REMARK   10  A    between atoms: C_23  and  C_24
REMARK   11  A    between atoms: O_27  and  C_28
REMARK   12  A    between atoms: C_28  and  C_30
REMARK                            x       y       z     vdW  Elec       q    Type
REMARK                         _______ _______ _______ _____ _____    ______ ____
ROOT
ATOM      1  C   UNL     1       2.856  -8.065   4.659  0.00  0.00    +0.098 C 
ATOM      2  C   UNL     1       2.183  -8.557   5.913  0.00  0.00    +0.008 A 
ATOM      3  C   UNL     1       0.804  -8.496   6.014  0.00  0.00    +0.012 A 
ATOM      4  C   UNL     1       0.170  -8.944   7.156  0.00  0.00    +0.047 A 
ATOM      5  C   UNL     1       0.915  -9.457   8.208  0.00  0.00    +0.135 A 
ATOM      6  C   UNL     1       2.296  -9.520   8.110  0.00  0.00    +0.093 A 
ATOM      7  C   UNL     1       2.933  -9.069   6.961  0.00  0.00    +0.138 A 
ATOM      8  O   UNL     1       4.285  -9.137   6.880  0.00  0.00    -0.441 OA
ATOM      9  C   UNL     1       4.888  -9.083   5.681  0.00  0.00    +0.199 C 
ATOM     10  C   UNL     1       4.265  -8.585   4.591  0.00  0.00    +0.098 C 
ENDROOT
BRANCH   1  15
ATOM     11  C   UNL     1       2.273  -4.467   3.662  0.00  0.00    +0.121 A 
ATOM     12  C   UNL     1       2.929  -3.790   4.681  0.00  0.00    +0.045 A 
ATOM     13  C   UNL     1       3.557  -4.499   5.686  0.00  0.00    +0.004 A 
ATOM     14  C   UNL     1       3.533  -5.881   5.679  0.00  0.00    +0.005 A 
ATOM     15  C   UNL     1       2.881  -6.558   4.665  0.00  0.00    -0.031 A 
ATOM     16  C   UNL     1       2.246  -5.854   3.660  0.00  0.00    +0.050 A 
BRANCH  11  17
ATOM     17  O   UNL     1       1.654  -3.772   2.672  0.00  0.00    -0.492 OA
BRANCH  17  18
ATOM     18  C   UNL     1       1.723  -2.346   2.739  0.00  0.00    +0.229 C 
BRANCH  18  19
ATOM     19  C   UNL     1       0.974  -1.743   1.548  0.00  0.00    +0.041 C 
BRANCH  19  20
ATOM     20  C   UNL     1       1.048  -0.217   1.620  0.00  0.00    +0.003 C 
BRANCH  20  22
ATOM     21  C   UNL     1       0.374   1.913   0.501  0.00  0.00    +0.004 C 
ATOM     22  C   UNL     1       0.300   0.386   0.429  0.00  0.00    -0.003 C 
ENDBRANCH  20  22
ENDBRANCH  19  20
ENDBRANCH  18  19
ENDBRANCH  17  18
ENDBRANCH  11  17
ENDBRANCH   1  15
BRANCH   9  23
ATOM     23  N   UNL     1       6.175  -9.544   5.562  0.00  0.00    -0.328 N 
ATOM     24  H   UNL     1       6.635  -9.903   6.337  0.00  0.00    +0.145 HD
ATOM     25  H   UNL     1       6.625  -9.512   4.703  0.00  0.00    +0.145 HD
ENDBRANCH   9  23
BRANCH  10  26
ATOM     26  C   UNL     1       4.964  -8.554   3.342  0.00  0.00    +0.101 C 
ATOM     27  N   UNL     1       5.519  -8.530   2.351  0.00  0.00    -0.191 NA
ENDBRANCH  10  26
BRANCH   5  28
ATOM     28  O   UNL     1       0.292  -9.898   9.332  0.00  0.00    -0.422 OA
BRANCH  28  29
ATOM     29  C   UNL     1      -0.448 -11.020   9.247  0.00  0.00    +0.346 C 
ATOM     30  O   UNL     1      -0.460 -11.663   8.216  0.00  0.00    -0.244 OA
BRANCH  29  31
ATOM     31  C   UNL     1      -1.246 -11.468  10.405  0.00  0.00    +0.078 A 
ATOM     32  C   UNL     1      -1.239 -10.728  11.590  0.00  0.00    +0.018 A 
ATOM     33  C   UNL     1      -1.986 -11.152  12.668  0.00  0.00    +0.021 A 
ATOM     34  C   UNL     1      -2.742 -12.310  12.580  0.00  0.00    +0.042 A 
ATOM     35  C   UNL     1      -2.753 -13.049  11.409  0.00  0.00    +0.040 A 
ATOM     36  C   UNL     1      -2.015 -12.632  10.319  0.00  0.00    +0.056 A 
ATOM     37 CL   UNL     1      -2.036 -13.556   8.850  0.00  0.00    -0.083 Cl
ATOM     38 CL   UNL     1      -3.678 -12.836  13.944  0.00  0.00    -0.083 Cl
ENDBRANCH  29  31
ENDBRANCH  28  29
ENDBRANCH   5  28
TORSDOF 11
