REMARK  Name = ZINC33058534
REMARK  9 active torsions:
REMARK  status: ('A' for Active; 'I' for Inactive)
REMARK    1  A    between atoms: C_1  and  O_2
REMARK    2  A    between atoms: O_2  and  C_3
REMARK    3  A    between atoms: C_6  and  N_9
REMARK    4  A    between atoms: N_9  and  C_10
REMARK    5  A    between atoms: C_11  and  S_25
REMARK    6  A    between atoms: C_12  and  N_24
REMARK    7  A    between atoms: C_13  and  C_15
REMARK    8  A    between atoms: C_15  and  C_17
REMARK    9  A    between atoms: S_25  and  C_28
REMARK                            x       y       z     vdW  Elec       q    Type
REMARK                         _______ _______ _______ _____ _____    ______ ____
ROOT
ATOM      1  C   UNL     1       3.688  -1.760  -0.474  0.00  0.00    +0.098 A 
ATOM      2  C   UNL     1       2.489  -2.436  -0.597  0.00  0.00    +0.143 A 
ATOM      3  C   UNL     1       1.375  -1.928   0.021  0.00  0.00    +0.070 A 
ATOM      4  C   UNL     1       1.508  -0.740   0.752  0.00  0.00    +0.084 A 
ATOM      5  S   UNL     1       3.238  -0.359   0.536  0.00  0.00    -0.066 S 
ENDROOT
BRANCH   3   6
ATOM      6  N   UNL     1       0.147  -2.573  -0.075  0.00  0.00    -0.355 N 
ATOM      7  H   UNL     1      -0.736  -2.152   0.427  0.00  0.00    +0.142 HD
ATOM      8  H   UNL     1       0.060  -3.505  -0.653  0.00  0.00    +0.142 HD
ENDBRANCH   3   6
BRANCH   2   9
ATOM      9  S   UNL     1       2.393  -3.927  -1.532  0.00  0.00    +0.029 S 
ATOM     10  O   UNL     1       3.721  -4.416  -1.653  0.00  0.00    -0.164 OA
ATOM     11  O   UNL     1       1.346  -4.698  -0.959  0.00  0.00    -0.164 OA
BRANCH   9  12
ATOM     12  C   UNL     1       1.867  -3.490  -3.156  0.00  0.00    +0.094 A 
ATOM     13  C   UNL     1       0.518  -3.460  -3.460  0.00  0.00    +0.027 A 
ATOM     14  C   UNL     1       0.105  -3.113  -4.733  0.00  0.00    +0.002 A 
ATOM     15  C   UNL     1       1.040  -2.806  -5.704  0.00  0.00    +0.000 A 
ATOM     16  C   UNL     1       2.389  -2.841  -5.400  0.00  0.00    +0.002 A 
ATOM     17  C   UNL     1       2.802  -3.183  -4.126  0.00  0.00    +0.027 A 
ENDBRANCH   9  12
ENDBRANCH   2   9
BRANCH   1  18
ATOM     18  N   UNL     1       4.923  -2.084  -1.006  0.00  0.00    -0.307 N 
ATOM     19  H   UNL     1       5.075  -3.061  -1.488  0.00  0.00    +0.153 HD
BRANCH  18  23
ATOM     20  C   UNL     1       8.069   0.641  -0.780  0.00  0.00    +0.120 A 
ATOM     21  C   UNL     1       8.327  -0.721  -0.735  0.00  0.00    +0.047 A 
ATOM     22  C   UNL     1       7.286  -1.625  -0.809  0.00  0.00    +0.027 A 
ATOM     23  C   UNL     1       5.979  -1.169  -0.929  0.00  0.00    +0.032 A 
ATOM     24  C   UNL     1       5.722   0.195  -0.980  0.00  0.00    +0.027 A 
ATOM     25  C   UNL     1       6.764   1.097  -0.900  0.00  0.00    +0.047 A 
BRANCH  20  27
ATOM     26  C   UNL     1       8.757   2.917  -0.759  0.00  0.00    +0.277 C 
ATOM     27  O   UNL     1       9.095   1.530  -0.706  0.00  0.00    -0.495 OA
ENDBRANCH  20  27
ENDBRANCH  18  23
ENDBRANCH   1  18
BRANCH   4  28
ATOM     28  C   UNL     1       0.529  -0.028   1.467  0.00  0.00    +0.203 C 
ATOM     29  O   UNL     1      -0.634  -0.397   1.442  0.00  0.00    -0.286 OA
BRANCH  28  30
ATOM     30  C   UNL     1       0.908   1.170   2.249  0.00  0.00    +0.041 A 
ATOM     31  C   UNL     1       2.253   1.507   2.405  0.00  0.00    +0.013 A 
ATOM     32  C   UNL     1       2.601   2.625   3.135  0.00  0.00    +0.001 A 
ATOM     33  C   UNL     1       1.619   3.412   3.712  0.00  0.00    +0.001 A 
ATOM     34  C   UNL     1       0.284   3.084   3.562  0.00  0.00    +0.021 A 
ATOM     35  C   UNL     1      -0.078   1.970   2.829  0.00  0.00    +0.052 A 
ATOM     36 CL   UNL     1      -1.754   1.563   2.636  0.00  0.00    -0.083 Cl
ENDBRANCH  28  30
ENDBRANCH   4  28
TORSDOF 8
