REMARK  Name = ZINC02543690
REMARK  8 active torsions:
REMARK  status: ('A' for Active; 'I' for Inactive)
REMARK    1  A    between atoms: C_9  and  O_24
REMARK    2  A    between atoms: C_10  and  C_11
REMARK    3  A    between atoms: N_12  and  N_13
REMARK    4  A    between atoms: C_14  and  C_16
REMARK    5  A    between atoms: C_19  and  O_23
REMARK    6  A    between atoms: C_21  and  O_22
REMARK    7  A    between atoms: O_24  and  C_25
REMARK    8  A    between atoms: C_25  and  C_27
REMARK                            x       y       z     vdW  Elec       q    Type
REMARK                         _______ _______ _______ _____ _____    ______ ____
ROOT
ATOM      1  C   UNL     1      -7.229  -4.623   0.143  0.00  0.00    +0.001 A 
ATOM      2  C   UNL     1      -6.029  -5.327   0.199  0.00  0.00    +0.001 A 
ATOM      3  C   UNL     1      -4.832  -4.674   0.162  0.00  0.00    +0.009 A 
ATOM      4  C   UNL     1      -4.809  -3.277   0.068  0.00  0.00    -0.006 A 
ATOM      5  C   UNL     1      -6.028  -2.559   0.011  0.00  0.00    -0.017 A 
ATOM      6  C   UNL     1      -7.242  -3.264   0.051  0.00  0.00    +0.008 A 
ATOM      7  C   UNL     1      -6.002  -1.156  -0.083  0.00  0.00    +0.012 A 
ATOM      8  C   UNL     1      -4.821  -0.483  -0.115  0.00  0.00    +0.047 A 
ATOM      9  C   UNL     1      -3.596  -1.146  -0.067  0.00  0.00    +0.141 A 
ATOM     10  C   UNL     1      -3.549  -2.537   0.027  0.00  0.00    +0.045 A 
ENDROOT
BRANCH  10  11
ATOM     11  C   UNL     1      -2.261  -3.243   0.083  0.00  0.00    +0.142 C 
ATOM     12  N   UNL     1      -1.150  -2.576  -0.008  0.00  0.00    -0.187 NA
BRANCH  12  13
ATOM     13  N   UNL     1       0.073  -3.256  -0.070  0.00  0.00    -0.203 N 
ATOM     14  C   UNL     1       1.230  -2.565  -0.072  0.00  0.00    +0.267 C 
ATOM     15  O   UNL     1       1.217  -1.357   0.076  0.00  0.00    -0.268 OA
ATOM     16  H   UNL     1       0.089  -4.355  -0.117  0.00  0.00    +0.178 HD
BRANCH  14  17
ATOM     17  C   UNL     1       2.510  -3.271  -0.253  0.00  0.00    +0.080 A 
ATOM     18  C   UNL     1       2.528  -4.659  -0.424  0.00  0.00    +0.020 A 
ATOM     19  C   UNL     1       3.725  -5.315  -0.593  0.00  0.00    +0.046 A 
ATOM     20  C   UNL     1       4.920  -4.602  -0.597  0.00  0.00    +0.120 A 
ATOM     21  C   UNL     1       4.914  -3.225  -0.429  0.00  0.00    +0.091 A 
ATOM     22  C   UNL     1       3.715  -2.553  -0.262  0.00  0.00    +0.132 A 
BRANCH  22  23
ATOM     23  O   UNL     1       3.707  -1.206  -0.102  0.00  0.00    -0.506 OA
ATOM     24  H   UNL     1       4.653  -0.645  -0.109  0.00  0.00    +0.292 HD
ENDBRANCH  22  23
BRANCH  20  25
ATOM     25  O   UNL     1       6.097  -5.257  -0.765  0.00  0.00    -0.507 OA
ATOM     26  H   UNL     1       7.043  -4.696  -0.768  0.00  0.00    +0.292 HD
ENDBRANCH  20  25
ENDBRANCH  14  17
ENDBRANCH  12  13
ENDBRANCH  10  11
BRANCH   9  27
ATOM     27  O   UNL     1      -2.441  -0.434  -0.107  0.00  0.00    -0.422 OA
BRANCH  27  28
ATOM     28  C   UNL     1      -1.880  -0.244  -1.318  0.00  0.00    +0.346 C 
ATOM     29  O   UNL     1      -2.366  -0.768  -2.301  0.00  0.00    -0.244 OA
BRANCH  28  30
ATOM     30  C   UNL     1      -0.677   0.599  -1.450  0.00  0.00    +0.078 A 
ATOM     31  C   UNL     1      -0.171   1.280  -0.339  0.00  0.00    +0.018 A 
ATOM     32  C   UNL     1       0.957   2.061  -0.467  0.00  0.00    +0.021 A 
ATOM     33  C   UNL     1       1.587   2.178  -1.695  0.00  0.00    +0.042 A 
ATOM     34  C   UNL     1       1.089   1.511  -2.802  0.00  0.00    +0.040 A 
ATOM     35  C   UNL     1      -0.040   0.725  -2.688  0.00  0.00    +0.056 A 
ATOM     36 CL   UNL     1      -0.663  -0.111  -4.076  0.00  0.00    -0.083 Cl
ATOM     37 CL   UNL     1       3.008   3.164  -1.847  0.00  0.00    -0.083 Cl
ENDBRANCH  28  30
ENDBRANCH  27  28
ENDBRANCH   9  27
TORSDOF 8
