REMARK  Name = ZINC24705249
REMARK  4 active torsions:
REMARK  status: ('A' for Active; 'I' for Inactive)
REMARK    1  A    between atoms: N_13  and  C_17
REMARK    2  A    between atoms: C_17  and  C_18
REMARK    3  A    between atoms: N_20  and  N_21
REMARK    4  A    between atoms: C_22  and  C_24
REMARK                            x       y       z     vdW  Elec       q    Type
REMARK                         _______ _______ _______ _____ _____    ______ ____
ROOT
ATOM      1  C   UNL     1      -1.135  -2.201   0.001  0.00  0.00    +0.215 C 
ENDROOT
BRANCH   1  14
ATOM      2  C   UNL     1      -7.583  -0.757   1.989  0.00  0.00    +0.000 A 
ATOM      3  C   UNL     1      -6.369  -0.288   1.521  0.00  0.00    +0.000 A 
ATOM      4  C   UNL     1      -5.406  -1.181   1.099  0.00  0.00    +0.006 A 
ATOM      5  C   UNL     1      -5.646  -2.549   1.138  0.00  0.00    -0.012 A 
ATOM      6  C   UNL     1      -6.855  -3.015   1.607  0.00  0.00    -0.042 A 
ATOM      7  C   UNL     1      -7.823  -2.114   2.031  0.00  0.00    +0.004 A 
ATOM      8  C   UNL     1      -7.176  -4.485   1.690  0.00  0.00    +0.035 C 
ATOM      9  C   UNL     1      -6.237  -5.293   0.796  0.00  0.00    +0.008 C 
ATOM     10  C   UNL     1      -4.793  -4.900   1.129  0.00  0.00    +0.040 C 
ATOM     11  C   UNL     1      -4.559  -3.470   0.659  0.00  0.00    +0.138 C 
ATOM     12  C   UNL     1      -3.208  -2.981   1.133  0.00  0.00    +0.251 C 
ATOM     13  O   UNL     1      -2.833  -2.858   2.279  0.00  0.00    -0.272 OA
ATOM     14  N   UNL     1      -2.510  -2.708   0.011  0.00  0.00    -0.215 N 
ATOM     15  C   UNL     1      -3.226  -2.962  -1.090  0.00  0.00    +0.310 C 
ATOM     16  O   UNL     1      -2.809  -2.798  -2.220  0.00  0.00    -0.252 OA
ATOM     17  N   UNL     1      -4.459  -3.421  -0.806  0.00  0.00    -0.281 N 
ATOM     18  H   UNL     1      -5.313  -3.732  -1.426  0.00  0.00    +0.152 HD
ENDBRANCH   1  14
BRANCH   1  19
ATOM     19  C   UNL     1      -1.156  -0.694   0.009  0.00  0.00    +0.247 C 
ATOM     20  O   UNL     1      -2.214  -0.102   0.023  0.00  0.00    -0.273 OA
ATOM     21  N   UNL     1       0.002  -0.004   0.002  0.00  0.00    -0.233 N 
ATOM     22  H   UNL     1       0.962  -0.541  -0.010  0.00  0.00    +0.173 HD
BRANCH  21  23
ATOM     23  N   UNL     1      -0.017   1.397   0.010  0.00  0.00    -0.230 N 
ATOM     24  C   UNL     1       1.141   2.087   0.002  0.00  0.00    +0.267 C 
ATOM     25  O   UNL     1       2.203   1.492  -0.011  0.00  0.00    -0.268 OA
ATOM     26  H   UNL     1      -0.977   1.934   0.022  0.00  0.00    +0.173 HD
BRANCH  24  27
ATOM     27  C   UNL     1       1.121   3.552   0.010  0.00  0.00    +0.076 A 
ATOM     28  C   UNL     1       2.182   4.440   0.011  0.00  0.00    +0.024 A 
ATOM     29  C   UNL     1       1.898   5.801   0.021  0.00  0.00    -0.036 A 
ATOM     30  C   UNL     1       0.590   6.144   0.018  0.00  0.00    -0.006 A 
ATOM     31  S   UNL     1      -0.279   4.660   0.030  0.00  0.00    -0.088 S 
ATOM     32  C   UNL     1       0.029   7.548  -0.031  0.00  0.00    +0.043 C 
ATOM     33  C   UNL     1       0.384   8.226   1.303  0.00  0.00    +0.005 C 
ATOM     34  C   UNL     1       1.820   8.693   1.289  0.00  0.00    +0.001 C 
ATOM     35  C   UNL     1       2.876   7.620   1.372  0.00  0.00    +0.005 C 
ATOM     36  C   UNL     1       3.014   6.851   0.057  0.00  0.00    +0.036 C 
ENDBRANCH  24  27
ENDBRANCH  21  23
ENDBRANCH   1  19
TORSDOF 4
