REMARK  Name = ZINC39195364
REMARK  10 active torsions:
REMARK  status: ('A' for Active; 'I' for Inactive)
REMARK    1  A    between atoms: C_1  and  C_2
REMARK    2  A    between atoms: C_2  and  C_3
REMARK    3  A    between atoms: C_3  and  C_4
REMARK    4  A    between atoms: C_16  and  C_18
REMARK    5  A    between atoms: C_18  and  C_20
REMARK    6  A    between atoms: C_18  and  N_27
REMARK    7  A    between atoms: C_20  and  C_21
REMARK    8  A    between atoms: C_28  and  O_30
REMARK    9  A    between atoms: O_30  and  C_31
REMARK   10  A    between atoms: C_31  and  C_32
REMARK                            x       y       z     vdW  Elec       q    Type
REMARK                         _______ _______ _______ _____ _____    ______ ____
ROOT
ATOM      1  C   UNL     1      -1.210  -5.685  -3.808  0.00  0.00    +0.166 C 
ENDROOT
BRANCH   1  13
ATOM      2  C   UNL     1       0.739  -2.027  -1.265  0.00  0.00    +0.064 C 
ATOM      3  C   UNL     1      -0.671  -2.606  -1.522  0.00  0.00    +0.134 C 
ATOM      4  N   UNL     1      -0.514  -3.763  -2.415  0.00  0.00    -0.297 N 
ATOM      5  C   UNL     1       0.921  -3.953  -2.697  0.00  0.00    +0.122 C 
ATOM      6  C   UNL     1       1.560  -2.568  -2.453  0.00  0.00    +0.117 C 
ATOM      7  C   UNL     1       3.004  -2.717  -2.091  0.00  0.00    +0.227 C 
ATOM      8  O   UNL     1       3.841  -2.640  -2.965  0.00  0.00    -0.275 OA
ATOM      9  N   UNL     1       3.399  -2.933  -0.827  0.00  0.00    -0.240 N 
ATOM     10  C   UNL     1       2.511  -2.930   0.180  0.00  0.00    +0.306 C 
ATOM     11  O   UNL     1       2.876  -3.265   1.290  0.00  0.00    -0.252 OA
ATOM     12  N   UNL     1       1.248  -2.554  -0.003  0.00  0.00    -0.291 N 
ATOM     13  C   UNL     1      -1.517  -4.524  -2.897  0.00  0.00    +0.236 C 
ATOM     14  O   UNL     1      -2.665  -4.275  -2.598  0.00  0.00    -0.274 OA
ATOM     15  H   UNL     1       4.337  -3.093  -0.638  0.00  0.00    +0.159 HD
ATOM     16  H   UNL     1       0.634  -2.645   0.742  0.00  0.00    +0.151 HD
BRANCH   2  17
ATOM     17  C   UNL     1       0.718  -0.497  -1.257  0.00  0.00    +0.028 C 
BRANCH  17  19
ATOM     18  C   UNL     1      -0.019   1.526   0.010  0.00  0.00    +0.004 C 
ATOM     19  C   UNL     1       0.002  -0.004   0.002  0.00  0.00    -0.001 C 
ENDBRANCH  17  19
ENDBRANCH   2  17
ENDBRANCH   1  13
BRANCH   1  20
ATOM     20  N   UNL     1      -2.459  -6.348  -4.191  0.00  0.00    -0.269 N 
ATOM     21  C   UNL     1      -2.525  -7.050  -5.339  0.00  0.00    +0.401 C 
ATOM     22  O   UNL     1      -1.547  -7.134  -6.057  0.00  0.00    -0.226 OA
ATOM     23  H   UNL     1      -3.240  -6.281  -3.619  0.00  0.00    +0.153 HD
BRANCH  21  24
ATOM     24  O   UNL     1      -3.672  -7.659  -5.692  0.00  0.00    -0.446 OA
BRANCH  24  25
ATOM     25  C   UNL     1      -3.670  -8.386  -6.922  0.00  0.00    +0.269 C 
BRANCH  25  26
ATOM     26  C   UNL     1      -5.030  -8.995  -7.148  0.00  0.00    -0.010 A 
ATOM     27  C   UNL     1      -5.311 -10.258  -6.663  0.00  0.00    +0.007 A 
ATOM     28  C   UNL     1      -6.559 -10.817  -6.871  0.00  0.00    +0.000 A 
ATOM     29  C   UNL     1      -7.525 -10.111  -7.564  0.00  0.00    +0.000 A 
ATOM     30  C   UNL     1      -7.244  -8.847  -8.048  0.00  0.00    +0.000 A 
ATOM     31  C   UNL     1      -5.998  -8.287  -7.837  0.00  0.00    +0.007 A 
ENDBRANCH  25  26
ENDBRANCH  24  25
ENDBRANCH  21  24
ENDBRANCH   1  20
BRANCH   1  32
ATOM     32  C   UNL     1      -0.308  -6.681  -3.078  0.00  0.00    +0.067 C 
BRANCH  32  33
ATOM     33  C   UNL     1       0.099  -7.780  -4.026  0.00  0.00    -0.045 A 
ATOM     34  C   UNL     1      -0.680  -8.916  -4.143  0.00  0.00    +0.004 A 
ATOM     35  C   UNL     1      -0.307  -9.923  -5.013  0.00  0.00    +0.000 A 
ATOM     36  C   UNL     1       0.844  -9.794  -5.767  0.00  0.00    +0.000 A 
ATOM     37  C   UNL     1       1.622  -8.658  -5.652  0.00  0.00    +0.000 A 
ATOM     38  C   UNL     1       1.247  -7.648  -4.784  0.00  0.00    +0.004 A 
ENDBRANCH  32  33
ENDBRANCH   1  32
TORSDOF 9
