REMARK  Name = ZINC34946137
REMARK  23 active torsions:
REMARK  status: ('A' for Active; 'I' for Inactive)
REMARK    1  A    between atoms: C_1  and  C_2
REMARK    2  A    between atoms: C_2  and  C_3
REMARK    3  A    between atoms: C_3  and  C_4
REMARK    4  A    between atoms: C_4  and  N_5
REMARK    5  A    between atoms: N_5  and  C_6
REMARK    6  A    between atoms: N_5  and  S_22
REMARK    7  A    between atoms: C_6  and  C_7
REMARK    8  A    between atoms: C_7  and  C_8
REMARK    9  A    between atoms: N_10  and  C_11
REMARK   10  A    between atoms: C_11  and  C_13
REMARK   11  A    between atoms: C_11  and  C_14
REMARK   12  A    between atoms: C_14  and  C_15
REMARK   13  A    between atoms: C_15  and  C_16
REMARK   14  A    between atoms: C_16  and  N_17
REMARK   15  A    between atoms: N_17  and  C_18
REMARK   16  A    between atoms: N_17  and  C_20
REMARK   17  A    between atoms: C_18  and  C_19
REMARK   18  A    between atoms: C_20  and  C_21
REMARK   19  A    between atoms: S_22  and  C_25
REMARK   20  A    between atoms: C_28  and  C_31
REMARK   21  A    between atoms: C_31  and  C_32
REMARK   22  A    between atoms: C_31  and  C_33
REMARK   23  A    between atoms: C_31  and  C_34
REMARK                            x       y       z     vdW  Elec       q    Type
REMARK                         _______ _______ _______ _____ _____    ______ ____
ROOT
ATOM      1  N   UNL     1      -0.040  -2.643  -1.179  0.00  0.00    -0.176 NA
ENDROOT
BRANCH   1   2
ATOM      2  S   UNL     1      -1.044  -3.014  -2.442  0.00  0.00    +0.061 S 
ATOM      3  O   UNL     1      -0.241  -3.651  -3.426  0.00  0.00    -0.153 OA
ATOM      4  O   UNL     1      -2.193  -3.633  -1.879  0.00  0.00    -0.153 OA
BRANCH   2   5
ATOM      5  C   UNL     1      -1.586  -1.491  -3.143  0.00  0.00    +0.105 A 
ATOM      6  C   UNL     1      -2.733  -0.882  -2.670  0.00  0.00    +0.029 A 
ATOM      7  C   UNL     1      -3.158   0.313  -3.220  0.00  0.00    +0.006 A 
ATOM      8  C   UNL     1      -2.435   0.899  -4.242  0.00  0.00    -0.042 A 
ATOM      9  C   UNL     1      -1.287   0.290  -4.714  0.00  0.00    +0.006 A 
ATOM     10  C   UNL     1      -0.860  -0.902  -4.162  0.00  0.00    +0.029 A 
BRANCH   8  11
ATOM     11  C   UNL     1      -2.899   2.201  -4.843  0.00  0.00    -0.013 C 
ATOM     12  C   UNL     1      -2.941   3.277  -3.756  0.00  0.00    +0.015 C 
ATOM     13  C   UNL     1      -1.928   2.629  -5.945  0.00  0.00    +0.015 C 
ATOM     14  C   UNL     1      -4.297   2.020  -5.436  0.00  0.00    +0.015 C 
ENDBRANCH   8  11
ENDBRANCH   2   5
ENDBRANCH   1   2
BRANCH   1  15
ATOM     15  C   UNL     1       1.399  -2.487  -1.409  0.00  0.00    +0.118 C 
BRANCH  15  16
ATOM     16  C   UNL     1       2.109  -3.809  -1.107  0.00  0.00    +0.113 C 
BRANCH  16  17
ATOM     17  C   UNL     1       3.588  -3.649  -1.343  0.00  0.00    +0.215 C 
ATOM     18  O   UNL     1       4.032  -2.583  -1.716  0.00  0.00    -0.276 OA
ATOM     19  N   UNL     1       4.419  -4.691  -1.140  0.00  0.00    -0.313 N 
ATOM     20  H   UNL     1       4.065  -5.543  -0.842  0.00  0.00    +0.149 HD
BRANCH  19  21
ATOM     21  C   UNL     1       5.858  -4.535  -1.369  0.00  0.00    +0.070 C 
ATOM     22  C   UNL     1       6.166  -4.767  -2.850  0.00  0.00    +0.028 C 
BRANCH  21  23
ATOM     23  C   UNL     1       6.622  -5.556  -0.524  0.00  0.00    +0.020 C 
BRANCH  23  24
ATOM     24  C   UNL     1       6.413  -5.247   0.960  0.00  0.00    -0.017 C 
BRANCH  24  25
ATOM     25  C   UNL     1       7.178  -6.268   1.806  0.00  0.00    -0.079 C 
BRANCH  25  26
ATOM     26  N   UNL     1       6.977  -5.971   3.231  0.00  0.00    +0.379 N 
ATOM     27  H   UNL     1       7.243  -5.015   3.416  0.00  0.00    -0.082 HD
BRANCH  26  28
ATOM     28  C   UNL     1       7.805  -6.875   4.040  0.00  0.00    -0.082 C 
ATOM     29  C   UNL     1       9.284  -6.578   3.785  0.00  0.00    -0.017 C 
ENDBRANCH  26  28
BRANCH  26  30
ATOM     30  C   UNL     1       5.562  -6.162   3.576  0.00  0.00    -0.082 C 
ATOM     31  C   UNL     1       5.325  -5.717   5.021  0.00  0.00    -0.017 C 
ENDBRANCH  26  30
ENDBRANCH  25  26
ENDBRANCH  24  25
ENDBRANCH  23  24
ENDBRANCH  21  23
ENDBRANCH  19  21
ENDBRANCH  16  17
ENDBRANCH  15  16
ENDBRANCH   1  15
BRANCH   1  32
ATOM     32  C   UNL     1      -0.590  -2.469   0.168  0.00  0.00    +0.109 C 
BRANCH  32  33
ATOM     33  C   UNL     1      -0.858  -0.984   0.421  0.00  0.00    +0.017 C 
BRANCH  33  35
ATOM     34  C   UNL     1      -1.701   0.682   2.081  0.00  0.00    +0.004 C 
ATOM     35  C   UNL     1      -1.433  -0.803   1.828  0.00  0.00    -0.002 C 
ENDBRANCH  33  35
ENDBRANCH  32  33
ENDBRANCH   1  32
TORSDOF 16
