REMARK  Name = ZINC21607606
REMARK  9 active torsions:
REMARK  status: ('A' for Active; 'I' for Inactive)
REMARK    1  A    between atoms: C_1  and  C_2
REMARK    2  A    between atoms: C_9  and  C_16
REMARK    3  A    between atoms: C_11  and  O_12
REMARK    4  A    between atoms: C_16  and  S_17
REMARK    5  A    between atoms: S_17  and  C_18
REMARK    6  A    between atoms: C_21  and  C_24
REMARK    7  A    between atoms: N_22  and  N_23
REMARK    8  A    between atoms: C_27  and  O_30
REMARK    9  A    between atoms: O_30  and  C_31
REMARK                            x       y       z     vdW  Elec       q    Type
REMARK                         _______ _______ _______ _____ _____    ______ ____
ROOT
ATOM      1  S   UNL     1       1.302  -7.404   0.929  0.00  0.00    -0.080 S 
ENDROOT
BRANCH   1   2
ATOM      2  C   UNL     1       0.917  -8.239   2.432  0.00  0.00    +0.209 A 
ATOM      3  N   UNL     1      -0.285  -8.472   2.909  0.00  0.00    -0.121 NA
ATOM      4  N   UNL     1      -0.203  -9.104   4.025  0.00  0.00    -0.127 NA
ATOM      5  C   UNL     1       1.057  -9.313   4.330  0.00  0.00    +0.182 A 
ATOM      6  N   UNL     1       1.813  -8.771   3.316  0.00  0.00    -0.224 N 
BRANCH   5   7
ATOM      7  C   UNL     1       1.567 -10.007   5.531  0.00  0.00    +0.021 A 
ATOM      8  C   UNL     1       2.912  -9.895   5.886  0.00  0.00    +0.015 A 
ATOM      9  C   UNL     1       3.382 -10.540   7.010  0.00  0.00    +0.046 A 
ATOM     10  C   UNL     1       2.522 -11.308   7.783  0.00  0.00    +0.127 A 
ATOM     11  C   UNL     1       1.184 -11.426   7.431  0.00  0.00    +0.046 A 
ATOM     12  C   UNL     1       0.705 -10.780   6.311  0.00  0.00    +0.015 A 
BRANCH  10  13
ATOM     13  O   UNL     1       2.991 -11.947   8.887  0.00  0.00    -0.434 OA
BRANCH  13  14
ATOM     14  C   UNL     1       4.377 -11.783   9.192  0.00  0.00    +0.541 C 
ATOM     15  F   UNL     1       5.149 -12.259   8.126  0.00  0.00    -0.166 F 
ATOM     16  F   UNL     1       4.652 -10.426   9.397  0.00  0.00    -0.166 F 
ENDBRANCH  13  14
ENDBRANCH  10  13
ENDBRANCH   5   7
BRANCH   6  17
ATOM     17  N   UNL     1       3.175  -8.762   3.216  0.00  0.00    -0.295 N 
ATOM     18  H   UNL     1       3.787  -9.229   4.002  0.00  0.00    +0.163 HD
ATOM     19  H   UNL     1       3.660  -8.290   2.349  0.00  0.00    +0.163 HD
ENDBRANCH   6  17
ENDBRANCH   1   2
BRANCH   1  20
ATOM     20  C   UNL     1      -0.369  -7.024   0.344  0.00  0.00    +0.113 C 
BRANCH  20  29
ATOM     21  C   UNL     1      -0.617   1.507  -2.165  0.00  0.00    +0.109 C 
ATOM     22  C   UNL     1      -0.606  -0.000  -2.168  0.00  0.00    +0.214 C 
ATOM     23  O   UNL     1      -1.141  -0.609  -3.070  0.00  0.00    -0.276 OA
ATOM     24  N   UNL     1       0.000  -0.672  -1.169  0.00  0.00    -0.286 N 
ATOM     25  C   UNL     1      -0.071  -2.064  -1.121  0.00  0.00    +0.037 A 
ATOM     26  C   UNL     1      -0.140  -2.712   0.113  0.00  0.00    +0.024 A 
ATOM     27  C   UNL     1      -0.216  -4.072   0.175  0.00  0.00    +0.013 A 
ATOM     28  C   UNL     1      -0.211  -4.825  -1.005  0.00  0.00    +0.022 A 
ATOM     29  C   UNL     1      -0.286  -6.287  -0.967  0.00  0.00    -0.020 A 
ATOM     30  C   UNL     1      -0.279  -6.961  -2.147  0.00  0.00    +0.092 A 
ATOM     31  C   UNL     1      -0.200  -6.248  -3.361  0.00  0.00    +0.285 A 
ATOM     32  O   UNL     1      -0.132  -4.908  -3.389  0.00  0.00    -0.425 OA
ATOM     33  C   UNL     1      -0.136  -4.178  -2.253  0.00  0.00    +0.141 A 
ATOM     34  C   UNL     1      -0.065  -2.794  -2.300  0.00  0.00    +0.070 A 
ATOM     35  H   UNL     1       0.550  -0.122  -0.391  0.00  0.00    +0.155 HD
BRANCH  31  36
ATOM     36  O   UNL     1      -0.194  -6.865  -4.412  0.00  0.00    -0.480 OA
ATOM     37  H   UNL     1      -0.133  -6.323  -5.367  0.00  0.00    +0.295 HD
ENDBRANCH  31  36
ENDBRANCH  20  29
ENDBRANCH   1  20
TORSDOF 8
