REMARK  Name = ZINC14317727
REMARK  8 active torsions:
REMARK  status: ('A' for Active; 'I' for Inactive)
REMARK    1  A    between atoms: C_1  and  O_2
REMARK    2  A    between atoms: O_2  and  C_3
REMARK    3  A    between atoms: C_3  and  C_5
REMARK    4  A    between atoms: C_13  and  C_16
REMARK    5  A    between atoms: C_14  and  O_15
REMARK    6  A    between atoms: C_16  and  N_61
REMARK    7  A    between atoms: C_19  and  C_22
REMARK    8  A    between atoms: C_22  and  C_24
REMARK                            x       y       z     vdW  Elec       q    Type
REMARK                         _______ _______ _______ _____ _____    ______ ____
ROOT
ATOM      1  C   UNL     1      -7.417  -0.184  -0.504  0.00  0.00    -0.078 C 
ATOM      2  C   UNL     1      -6.075  -0.917  -0.576  0.00  0.00    -0.007 C 
ATOM      3  C   UNL     1      -4.983  -0.033   0.032  0.00  0.00    +0.057 C 
ATOM      4  C   UNL     1      -5.360   0.315   1.474  0.00  0.00    -0.007 C 
ATOM      5  C   UNL     1      -6.723   1.011   1.487  0.00  0.00    -0.078 C 
ATOM      6  N   UNL     1      -7.734   0.098   0.912  0.00  0.00    +0.383 N 
ATOM      7  H   UNL     1      -7.724  -0.783   1.438  0.00  0.00    -0.081 HD
ENDROOT
BRANCH   3   8
ATOM      8  C   UNL     1      -3.670  -0.773   0.018  0.00  0.00    +0.166 C 
ATOM      9  O   UNL     1      -3.658  -1.986   0.009  0.00  0.00    -0.292 OA
BRANCH   8  10
ATOM     10  C   UNL     1      -2.406  -0.026   0.017  0.00  0.00    +0.021 A 
ATOM     11  C   UNL     1      -2.417   1.374   0.026  0.00  0.00    +0.015 A 
ATOM     12  C   UNL     1      -1.230   2.070   0.019  0.00  0.00    +0.050 A 
ATOM     13  C   UNL     1      -0.017   1.389   0.010  0.00  0.00    +0.162 A 
ATOM     14  C   UNL     1       0.002  -0.004   0.002  0.00  0.00    +0.163 A 
ATOM     15  C   UNL     1      -1.185  -0.711   0.004  0.00  0.00    +0.060 A 
ATOM     16  O   UNL     1       1.181  -0.684  -0.007  0.00  0.00    -0.485 OA
ATOM     17  C   UNL     1       2.347   0.055  -0.387  0.00  0.00    +0.270 C 
ATOM     18  C   UNL     1       2.333   1.393   0.366  0.00  0.00    +0.270 C 
ATOM     19  O   UNL     1       1.142   2.099   0.002  0.00  0.00    -0.485 OA
ENDBRANCH   8  10
ENDBRANCH   3   8
BRANCH   6  20
ATOM     20  C   UNL     1      -9.078   0.704   1.017  0.00  0.00    -0.039 C 
BRANCH  20  29
ATOM     21  C   UNL     1     -10.480  -0.213   4.421  0.00  0.00    +0.101 A 
ATOM     22  C   UNL     1     -10.189   0.908   5.182  0.00  0.00    +0.027 A 
ATOM     23  C   UNL     1      -9.524   1.991   4.591  0.00  0.00    -0.017 A 
ATOM     24  C   UNL     1      -9.213   3.145   5.334  0.00  0.00    +0.008 A 
ATOM     25  C   UNL     1      -8.568   4.181   4.731  0.00  0.00    +0.001 A 
ATOM     26  C   UNL     1      -8.209   4.117   3.386  0.00  0.00    +0.001 A 
ATOM     27  C   UNL     1      -8.492   3.018   2.636  0.00  0.00    +0.009 A 
ATOM     28  C   UNL     1      -9.158   1.927   3.221  0.00  0.00    -0.013 A 
ATOM     29  C   UNL     1      -9.464   0.779   2.471  0.00  0.00    -0.014 A 
ATOM     30  C   UNL     1     -10.117  -0.265   3.058  0.00  0.00    +0.133 A 
BRANCH  21  31
ATOM     31  C   UNL     1     -11.180  -1.355   5.037  0.00  0.00    +0.343 C 
ATOM     32  O   UNL     1     -11.437  -2.340   4.373  0.00  0.00    -0.245 OA
BRANCH  31  34
ATOM     33  C   UNL     1     -12.219  -2.469   6.876  0.00  0.00    +0.280 C 
ATOM     34  O   UNL     1     -11.533  -1.308   6.336  0.00  0.00    -0.464 OA
ENDBRANCH  31  34
ENDBRANCH  21  31
BRANCH  30  35
ATOM     35  O   UNL     1     -10.414  -1.368   2.325  0.00  0.00    -0.506 OA
ATOM     36  H   UNL     1      -9.725  -2.046   2.338  0.00  0.00    +0.292 HD
ENDBRANCH  30  35
ENDBRANCH  20  29
ENDBRANCH   6  20
TORSDOF 7
