REMARK  Name = ZINC12711410
REMARK  11 active torsions:
REMARK  status: ('A' for Active; 'I' for Inactive)
REMARK    1  A    between atoms: C_1  and  C_2
REMARK    2  A    between atoms: C_2  and  N_60
REMARK    3  A    between atoms: C_3  and  C_4
REMARK    4  A    between atoms: C_3  and  N_60
REMARK    5  A    between atoms: C_5  and  C_6
REMARK    6  A    between atoms: C_5  and  N_60
REMARK    7  A    between atoms: C_6  and  N_7
REMARK    8  A    between atoms: N_7  and  C_8
REMARK    9  A    between atoms: C_8  and  C_9
REMARK   10  A    between atoms: C_13  and  C_21
REMARK   11  A    between atoms: N_24  and  C_25
REMARK                            x       y       z     vdW  Elec       q    Type
REMARK                         _______ _______ _______ _____ _____    ______ ____
ROOT
ATOM      1  N   UNL     1       1.011  -2.506   1.425  0.00  0.00    -0.283 N 
ATOM      2  C   UNL     1       2.143  -2.755   2.113  0.00  0.00    +0.307 C 
ATOM      3  O   UNL     1       3.213  -2.370   1.683  0.00  0.00    -0.252 OA
ATOM      4  N   UNL     1       2.088  -3.430   3.278  0.00  0.00    -0.269 N 
ATOM      5  H   UNL     1       1.245  -3.795   3.588  0.00  0.00    +0.156 HD
ENDROOT
BRANCH   4   6
ATOM      6  C   UNL     1       3.249  -3.605   4.041  0.00  0.00    +0.035 A 
ATOM      7  C   UNL     1       4.471  -3.802   3.412  0.00  0.00    +0.025 A 
ATOM      8  C   UNL     1       5.616  -3.969   4.166  0.00  0.00    +0.022 A 
ATOM      9  C   UNL     1       5.544  -3.951   5.548  0.00  0.00    +0.041 A 
ATOM     10  C   UNL     1       4.326  -3.761   6.177  0.00  0.00    +0.022 A 
ATOM     11  C   UNL     1       3.180  -3.588   5.427  0.00  0.00    +0.025 A 
ATOM     12 CL   UNL     1       6.984  -4.168   6.494  0.00  0.00    -0.084 Cl
ENDBRANCH   4   6
BRANCH   1  13
ATOM     13  C   UNL     1      -0.278  -2.970   1.943  0.00  0.00    +0.091 C 
BRANCH  13  14
ATOM     14  C   UNL     1      -0.567  -4.375   1.410  0.00  0.00    -0.060 C 
BRANCH  14  15
ATOM     15  N   UNL     1      -1.797  -4.882   2.054  0.00  0.00    +0.380 N 
ATOM     16  H   UNL     1      -1.777  -4.637   3.051  0.00  0.00    -0.082 HD
BRANCH  15  18
ATOM     17  C   UNL     1      -4.222  -4.628   2.255  0.00  0.00    -0.017 C 
ATOM     18  C   UNL     1      -2.986  -4.262   1.431  0.00  0.00    -0.082 C 
ENDBRANCH  15  18
BRANCH  15  19
ATOM     19  C   UNL     1      -1.866  -6.352   1.923  0.00  0.00    -0.082 C 
ATOM     20  C   UNL     1      -0.914  -6.981   2.942  0.00  0.00    -0.017 C 
ENDBRANCH  15  19
ENDBRANCH  14  15
ENDBRANCH  13  14
ENDBRANCH   1  13
BRANCH   1  21
ATOM     21  C   UNL     1       1.070  -1.772   0.158  0.00  0.00    +0.149 C 
BRANCH  21  22
ATOM     22  C   UNL     1       0.933  -0.295   0.426  0.00  0.00    +0.035 A 
ATOM     23  C   UNL     1       2.042   0.475   0.552  0.00  0.00    +0.020 A 
ATOM     24  C   UNL     1       1.874   1.906   0.812  0.00  0.00    -0.001 A 
ATOM     25  C   UNL     1       2.980   2.751   0.950  0.00  0.00    +0.013 A 
ATOM     26  C   UNL     1       2.789   4.082   1.192  0.00  0.00    -0.050 A 
ATOM     27  C   UNL     1       1.507   4.603   1.302  0.00  0.00    +0.005 A 
ATOM     28  C   UNL     1       0.403   3.789   1.168  0.00  0.00    +0.026 A 
ATOM     29  C   UNL     1       0.572   2.431   0.921  0.00  0.00    +0.049 A 
ATOM     30  N   UNL     1      -0.514   1.594   0.784  0.00  0.00    -0.322 N 
ATOM     31  H   UNL     1      -1.411   1.958   0.856  0.00  0.00    +0.169 HD
ATOM     32  C   UNL     1      -0.350   0.281   0.546  0.00  0.00    +0.254 A 
ATOM     33  O   UNL     1      -1.334  -0.429   0.429  0.00  0.00    -0.268 OA
ATOM     34  C   UNL     1       3.981   4.992   1.341  0.00  0.00    +0.044 C 
ENDBRANCH  21  22
ENDBRANCH   1  21
TORSDOF 8
