REMARK  Name = ZINC39672014
REMARK  6 active torsions:
REMARK  status: ('A' for Active; 'I' for Inactive)
REMARK    1  A    between atoms: C_1  and  O_2
REMARK    2  A    between atoms: O_2  and  C_3
REMARK    3  A    between atoms: C_7  and  C_9
REMARK    4  A    between atoms: C_13  and  C_22
REMARK    5  A    between atoms: N_24  and  C_25
REMARK    6  A    between atoms: C_25  and  C_26
REMARK                            x       y       z     vdW  Elec       q    Type
REMARK                         _______ _______ _______ _____ _____    ______ ____
ROOT
ATOM      1  C   UNL     1       1.231  -3.888  -2.280  0.00  0.00    +0.248 C 
ATOM      2  O   UNL     1       1.761  -4.384  -3.255  0.00  0.00    -0.270 OA
ATOM      3  N   UNL     1       0.832  -4.672  -1.258  0.00  0.00    -0.296 N 
ATOM      4  C   UNL     1       0.082  -4.270  -0.045  0.00  0.00    +0.121 C 
ATOM      5  C   UNL     1      -0.911  -5.428   0.201  0.00  0.00    +0.100 C 
ATOM      6  C   UNL     1      -0.274  -6.645  -0.489  0.00  0.00    -0.004 C 
ATOM      7  C   UNL     1       1.039  -6.131  -1.098  0.00  0.00    +0.115 C 
ATOM      8  C   UNL     1      -1.190  -7.168  -1.591  0.00  0.00    -0.010 C 
ATOM      9  C   UNL     1      -0.561  -8.413  -2.224  0.00  0.00    -0.082 C 
ATOM     10  N   UNL     1      -0.364  -9.441  -1.195  0.00  0.00    +0.379 N 
ATOM     11  C   UNL     1       0.591  -8.964  -0.187  0.00  0.00    -0.082 C 
ATOM     12  C   UNL     1       0.011  -7.743   0.532  0.00  0.00    -0.010 C 
ATOM     13  H   UNL     1      -1.246  -9.643  -0.750  0.00  0.00    -0.086 HD
ATOM     14  H   UNL     1      -0.006 -10.281  -1.624  0.00  0.00    -0.086 HD
ENDROOT
BRANCH   1  19
ATOM     15  C   UNL     1       0.964  -0.384  -0.945  0.00  0.00    +0.121 A 
ATOM     16  C   UNL     1       0.634   0.317  -2.097  0.00  0.00    +0.047 A 
ATOM     17  C   UNL     1       0.500  -0.346  -3.302  0.00  0.00    +0.019 A 
ATOM     18  C   UNL     1       0.693  -1.713  -3.368  0.00  0.00    +0.030 A 
ATOM     19  C   UNL     1       1.024  -2.426  -2.214  0.00  0.00    +0.054 A 
ATOM     20  C   UNL     1       1.165  -1.753  -1.000  0.00  0.00    +0.059 A 
ATOM     21 BR   UNL     1       0.507  -2.616  -5.019  0.00  0.00    -0.050 Br
BRANCH  15  23
ATOM     22  C   UNL     1       0.872   1.686   0.221  0.00  0.00    +0.277 C 
ATOM     23  O   UNL     1       1.094   0.274   0.237  0.00  0.00    -0.495 OA
ENDBRANCH  15  23
ENDBRANCH   1  19
BRANCH   5  24
ATOM     24  C   UNL     1      -1.067  -5.681   1.678  0.00  0.00    +0.219 C 
ATOM     25  O   UNL     1      -0.140  -5.470   2.431  0.00  0.00    -0.275 OA
ATOM     26  N   UNL     1      -2.237  -6.142   2.163  0.00  0.00    -0.309 N 
ATOM     27  H   UNL     1      -2.979  -6.311   1.561  0.00  0.00    +0.149 HD
BRANCH  26  28
ATOM     28  C   UNL     1      -2.389  -6.388   3.599  0.00  0.00    +0.161 C 
BRANCH  28  29
ATOM     29  C   UNL     1      -3.780  -6.896   3.877  0.00  0.00    +0.077 A 
ATOM     30  C   UNL     1      -4.139  -8.194   3.982  0.00  0.00    +0.117 A 
ATOM     31  N   UNL     1      -5.483  -8.223   4.239  0.00  0.00    -0.306 N 
ATOM     32  C   UNL     1      -6.364  -9.246   4.436  0.00  0.00    +0.092 A 
ATOM     33  C   UNL     1      -7.667  -8.994   4.678  0.00  0.00    +0.018 A 
ATOM     34  C   UNL     1      -8.136  -7.671   4.729  0.00  0.00    +0.005 A 
ATOM     35  C   UNL     1      -7.268  -6.641   4.535  0.00  0.00    +0.047 A 
ATOM     36  C   UNL     1      -5.910  -6.921   4.284  0.00  0.00    +0.138 A 
ATOM     37  N   UNL     1      -4.863  -6.138   4.067  0.00  0.00    -0.231 NA
ENDBRANCH  28  29
ENDBRANCH  26  28
ENDBRANCH   5  24
TORSDOF 5
