REMARK  Name = ZINC39711265
REMARK  14 active torsions:
REMARK  status: ('A' for Active; 'I' for Inactive)
REMARK    1  A    between atoms: C_1  and  C_2
REMARK    2  A    between atoms: C_6  and  C_15
REMARK    3  A    between atoms: C_13  and  C_14
REMARK    4  A    between atoms: C_15  and  C_17
REMARK    5  A    between atoms: C_15  and  N_26
REMARK    6  A    between atoms: N_21  and  C_22
REMARK    7  A    between atoms: C_22  and  C_23
REMARK    8  A    between atoms: C_23  and  O_24
REMARK    9  A    between atoms: O_24  and  C_25
REMARK   10  A    between atoms: N_26  and  C_27
REMARK   11  A    between atoms: N_26  and  C_35
REMARK   12  A    between atoms: C_27  and  C_28
REMARK   13  A    between atoms: C_28  and  C_29
REMARK   14  A    between atoms: C_35  and  C_36
REMARK                            x       y       z     vdW  Elec       q    Type
REMARK                         _______ _______ _______ _____ _____    ______ ____
ROOT
ATOM      1  C   UNL     1      -0.966  -5.416  -3.059  0.00  0.00    +0.142 C 
ENDROOT
BRANCH   1   7
ATOM      2  C   UNL     1       4.706  -5.911  -7.371  0.00  0.00    +0.044 C 
ATOM      3  C   UNL     1       3.857  -5.216  -6.338  0.00  0.00    -0.047 A 
ATOM      4  C   UNL     1       3.009  -5.950  -5.572  0.00  0.00    +0.013 A 
ATOM      5  C   UNL     1       2.190  -5.264  -4.572  0.00  0.00    -0.007 A 
ATOM      6  C   UNL     1       1.324  -5.960  -3.781  0.00  0.00    -0.003 C 
ATOM      7  C   UNL     1       0.516  -5.168  -2.772  0.00  0.00    +0.123 C 
ATOM      8  C   UNL     1       0.735  -3.672  -2.725  0.00  0.00    +0.226 C 
ATOM      9  O   UNL     1       0.113  -2.989  -1.935  0.00  0.00    -0.275 OA
ATOM     10  N   UNL     1       1.605  -3.111  -3.548  0.00  0.00    -0.284 N 
ATOM     11  C   UNL     1       2.318  -3.803  -4.436  0.00  0.00    +0.041 A 
ATOM     12  C   UNL     1       3.227  -3.138  -5.280  0.00  0.00    +0.027 A 
ATOM     13  C   UNL     1       3.963  -3.834  -6.185  0.00  0.00    -0.046 A 
ATOM     14  C   UNL     1       4.929  -3.081  -7.063  0.00  0.00    +0.044 C 
ATOM     15  H   UNL     1       1.731  -2.150  -3.502  0.00  0.00    +0.155 HD
ENDBRANCH   1   7
BRANCH   1  16
ATOM     16  C   UNL     1      -1.277  -5.014  -4.478  0.00  0.00    +0.170 A 
ATOM     17  N   UNL     1      -0.797  -5.561  -5.569  0.00  0.00    -0.112 NA
ATOM     18  N   UNL     1      -1.300  -4.940  -6.580  0.00  0.00    -0.023 NA
ATOM     19  N   UNL     1      -2.089  -4.012  -6.162  0.00  0.00    -0.044 NA
ATOM     20  N   UNL     1      -2.105  -4.030  -4.872  0.00  0.00    -0.225 N 
BRANCH  20  21
ATOM     21  C   UNL     1      -2.878  -3.142  -3.999  0.00  0.00    +0.175 C 
BRANCH  21  22
ATOM     22  C   UNL     1      -2.103  -1.841  -3.780  0.00  0.00    +0.183 C 
BRANCH  22  23
ATOM     23  O   UNL     1      -2.828  -1.001  -2.880  0.00  0.00    -0.381 OA
ATOM     24  C   UNL     1      -2.187   0.247  -2.606  0.00  0.00    +0.194 C 
ENDBRANCH  22  23
ENDBRANCH  21  22
ENDBRANCH  20  21
ENDBRANCH   1  16
BRANCH   1  25
ATOM     25  N   UNL     1      -1.268  -6.842  -2.876  0.00  0.00    -0.287 NA
BRANCH  25  26
ATOM     26  C   UNL     1      -2.622  -7.158  -3.353  0.00  0.00    +0.090 C 
BRANCH  26  27
ATOM     27  C   UNL     1      -2.799  -8.677  -3.413  0.00  0.00    +0.050 C 
BRANCH  27  28
ATOM     28  C   UNL     1      -4.177  -9.002  -3.930  0.00  0.00    -0.046 A 
ATOM     29  C   UNL     1      -5.231  -9.140  -3.047  0.00  0.00    +0.003 A 
ATOM     30  C   UNL     1      -6.495  -9.438  -3.521  0.00  0.00    +0.000 A 
ATOM     31  C   UNL     1      -6.704  -9.597  -4.878  0.00  0.00    +0.000 A 
ATOM     32  C   UNL     1      -5.650  -9.457  -5.761  0.00  0.00    +0.000 A 
ATOM     33  C   UNL     1      -4.387  -9.155  -5.288  0.00  0.00    +0.003 A 
ENDBRANCH  27  28
ENDBRANCH  26  27
ENDBRANCH  25  26
BRANCH  25  34
ATOM     34  C   UNL     1      -1.098  -7.240  -1.473  0.00  0.00    +0.127 C 
BRANCH  34  35
ATOM     35  C   UNL     1      -2.054  -6.459  -0.609  0.00  0.00    +0.004 A 
ATOM     36  C   UNL     1      -3.300  -6.795  -0.195  0.00  0.00    +0.012 A 
ATOM     37  C   UNL     1      -4.002  -5.912   0.604  0.00  0.00    +0.008 A 
ATOM     38  C   UNL     1      -3.424  -4.736   0.949  0.00  0.00    +0.045 A 
ATOM     39  S   UNL     1      -1.836  -4.854   0.141  0.00  0.00    -0.100 S 
ENDBRANCH  34  35
ENDBRANCH  25  34
ENDBRANCH   1  25
TORSDOF 11
