REMARK  Name = ZINC08970222
REMARK  3 active torsions:
REMARK  status: ('A' for Active; 'I' for Inactive)
REMARK    1  A    between atoms: C_1  and  O_2
REMARK    2  A    between atoms: O_2  and  C_3
REMARK    3  A    between atoms: N_21  and  C_24
REMARK                            x       y       z     vdW  Elec       q    Type
REMARK                         _______ _______ _______ _____ _____    ______ ____
ROOT
ATOM      1  C   UNL     1       0.154   0.018   0.192  0.00  0.00    +0.120 A 
ATOM      2  C   UNL     1       1.391  -0.609   0.234  0.00  0.00    +0.047 A 
ATOM      3  C   UNL     1       2.550   0.139   0.228  0.00  0.00    +0.027 A 
ATOM      4  C   UNL     1       2.487   1.530   0.177  0.00  0.00    +0.036 A 
ATOM      5  C   UNL     1       1.242   2.149   0.133  0.00  0.00    -0.024 A 
ATOM      6  C   UNL     1       0.085   1.403   0.141  0.00  0.00    +0.050 A 
ATOM      7  C   UNL     1       1.518   3.626   0.082  0.00  0.00    +0.053 C 
ATOM      8  C   UNL     1       0.932   4.260  -1.185  0.00  0.00    +0.089 C 
ATOM      9  C   UNL     1       0.449   5.665  -0.734  0.00  0.00    +0.074 C 
ATOM     10  C   UNL     1       0.789   5.748   0.765  0.00  0.00    -0.054 C 
ATOM     11  C   UNL     1      -0.500   3.877   1.390  0.00  0.00    -0.076 C 
ATOM     12  C   UNL     1      -1.253   5.097   1.957  0.00  0.00    -0.020 C 
ATOM     13  C   UNL     1      -0.417   6.320   1.531  0.00  0.00    -0.016 C 
ATOM     14  C   UNL     1       1.334   6.619  -1.504  0.00  0.00    +0.228 C 
ATOM     15  O   UNL     1       1.280   7.829  -1.443  0.00  0.00    -0.275 OA
ATOM     16  N   UNL     1       2.189   5.898  -2.263  0.00  0.00    -0.209 N 
ATOM     17  C   UNL     1       2.046   4.571  -2.160  0.00  0.00    +0.229 C 
ATOM     18  O   UNL     1       2.705   3.747  -2.756  0.00  0.00    -0.275 OA
ATOM     19  C   UNL     1       3.018   3.744   0.110  0.00  0.00    +0.212 C 
ATOM     20  O   UNL     1       3.664   4.770   0.089  0.00  0.00    -0.277 OA
ATOM     21  N   UNL     1       3.505   2.489   0.163  0.00  0.00    -0.286 N 
ATOM     22  H   UNL     1       4.451   2.276   0.189  0.00  0.00    +0.155 HD
ATOM     23  N   UNL     1       0.873   4.365   1.178  0.00  0.00    +0.395 N 
ATOM     24  H   UNL     1       1.421   4.273   2.042  0.00  0.00    -0.079 HD
ENDROOT
BRANCH  16  25
ATOM     25  C   UNL     1       3.146   6.495  -3.096  0.00  0.00    +0.064 A 
ATOM     26  C   UNL     1       4.405   6.803  -2.600  0.00  0.00    +0.045 A 
ATOM     27  C   UNL     1       5.346   7.392  -3.424  0.00  0.00    +0.043 A 
ATOM     28  C   UNL     1       5.034   7.674  -4.742  0.00  0.00    +0.021 A 
ATOM     29  C   UNL     1       3.781   7.368  -5.239  0.00  0.00    +0.023 A 
ATOM     30  C   UNL     1       2.837   6.773  -4.422  0.00  0.00    +0.063 A 
ATOM     31 CL   UNL     1       1.267   6.383  -5.049  0.00  0.00    -0.082 Cl
ATOM     32 CL   UNL     1       6.921   7.778  -2.804  0.00  0.00    -0.083 Cl
ENDBRANCH  16  25
BRANCH   1  34
ATOM     33  C   UNL     1      -0.838  -2.143   0.254  0.00  0.00    +0.277 C 
ATOM     34  O   UNL     1      -0.987  -0.723   0.200  0.00  0.00    -0.495 OA
ENDBRANCH   1  34
TORSDOF 2
