REMARK  Name = ZINC39683996
REMARK  8 active torsions:
REMARK  status: ('A' for Active; 'I' for Inactive)
REMARK    1  A    between atoms: C_1  and  C_2
REMARK    2  A    between atoms: C_2  and  C_4
REMARK    3  A    between atoms: C_2  and  N_8
REMARK    4  A    between atoms: N_6  and  C_7
REMARK    5  A    between atoms: C_9  and  C_11
REMARK    6  A    between atoms: C_22  and  C_24
REMARK    7  A    between atoms: C_27  and  O_31
REMARK    8  A    between atoms: O_31  and  C_32
REMARK                            x       y       z     vdW  Elec       q    Type
REMARK                         _______ _______ _______ _____ _____    ______ ____
ROOT
ATOM      1  C   UNL     1       1.300  -1.377   3.949  0.00  0.00    +0.100 C 
ATOM      2  C   UNL     1       2.313  -0.217   4.077  0.00  0.00    +0.121 C 
ATOM      3  N   UNL     1       1.697   0.712   5.053  0.00  0.00    -0.296 N 
ATOM      4  C   UNL     1       1.085  -0.175   6.072  0.00  0.00    +0.115 C 
ATOM      5  C   UNL     1       0.498  -1.348   5.261  0.00  0.00    -0.004 C 
ATOM      6  C   UNL     1      -0.979  -1.101   4.972  0.00  0.00    -0.010 C 
ATOM      7  C   UNL     1      -1.764  -1.133   6.287  0.00  0.00    -0.082 C 
ATOM      8  N   UNL     1      -1.583  -2.438   6.935  0.00  0.00    +0.379 N 
ATOM      9  C   UNL     1      -0.172  -2.628   7.293  0.00  0.00    -0.082 C 
ATOM     10  C   UNL     1       0.680  -2.658   6.021  0.00  0.00    -0.010 C 
ATOM     11  C   UNL     1       1.694   2.059   5.023  0.00  0.00    +0.247 C 
ATOM     12  O   UNL     1       2.131   2.646   4.052  0.00  0.00    -0.270 OA
ATOM     13  H   UNL     1      -2.148  -2.478   7.769  0.00  0.00    -0.086 HD
ATOM     14  H   UNL     1      -1.869  -3.169   6.301  0.00  0.00    -0.086 HD
ENDROOT
BRANCH  11  15
ATOM     15  C   UNL     1       1.159   2.822   6.167  0.00  0.00    +0.040 A 
ATOM     16  C   UNL     1       1.067   2.224   7.426  0.00  0.00    +0.036 A 
ATOM     17  C   UNL     1       0.567   2.939   8.493  0.00  0.00    +0.085 A 
ATOM     18  C   UNL     1       0.155   4.255   8.317  0.00  0.00    +0.157 A 
ATOM     19  C   UNL     1       0.245   4.854   7.066  0.00  0.00    +0.085 A 
ATOM     20  C   UNL     1       0.749   4.147   5.996  0.00  0.00    +0.036 A 
ATOM     21 CL   UNL     1      -0.273   6.498   6.852  0.00  0.00    -0.080 Cl
ATOM     22 CL   UNL     1       0.452   2.196  10.058  0.00  0.00    -0.080 Cl
BRANCH  18  23
ATOM     23  O   UNL     1      -0.338   4.957   9.370  0.00  0.00    -0.492 OA
ATOM     24  C   UNL     1       0.601   5.697  10.152  0.00  0.00    +0.277 C 
ENDBRANCH  18  23
ENDBRANCH  11  15
BRANCH   1  26
ATOM     25  N   UNL     1      -0.227  -2.193   2.183  0.00  0.00    -0.304 N 
ATOM     26  C   UNL     1       0.388  -1.148   2.771  0.00  0.00    +0.219 C 
ATOM     27  O   UNL     1       0.207  -0.024   2.354  0.00  0.00    -0.275 OA
ATOM     28  H   UNL     1      -0.083  -3.092   2.517  0.00  0.00    +0.149 HD
BRANCH  25  30
ATOM     29  C   UNL     1      -0.286  -1.923  -0.247  0.00  0.00    +0.038 C 
ATOM     30  C   UNL     1      -1.114  -1.971   1.038  0.00  0.00    +0.156 C 
BRANCH  30  31
ATOM     31  C   UNL     1      -2.113  -3.096   0.950  0.00  0.00    +0.233 C 
ATOM     32  O   UNL     1      -2.086  -3.995   1.763  0.00  0.00    -0.274 OA
ATOM     33  N   UNL     1      -3.035  -3.103  -0.033  0.00  0.00    -0.317 N 
ATOM     34  C   UNL     1      -4.006  -4.198  -0.118  0.00  0.00    +0.128 C 
ATOM     35  H   UNL     1      -3.057  -2.384  -0.683  0.00  0.00    +0.148 HD
ENDBRANCH  30  31
ENDBRANCH  25  30
ENDBRANCH   1  26
TORSDOF 5
