REMARK  Name = ZINC39469632
REMARK  7 active torsions:
REMARK  status: ('A' for Active; 'I' for Inactive)
REMARK    1  A    between atoms: C_1  and  O_2
REMARK    2  A    between atoms: O_2  and  C_3
REMARK    3  A    between atoms: P_12  and  S_28
REMARK    4  A    between atoms: C_20  and  C_21
REMARK    5  A    between atoms: C_26  and  O_27
REMARK    6  A    between atoms: S_28  and  O_31
REMARK    7  A    between atoms: O_31  and  C_32
REMARK                            x       y       z     vdW  Elec       q    Type
REMARK                         _______ _______ _______ _____ _____    ______ ____
ROOT
ATOM      1  C   UNL     1       0.626  -0.618   1.041  0.00  0.00    +0.124 C 
ATOM      2  C   UNL     1       1.180   0.106   2.013  0.00  0.00    +0.023 C 
ATOM      3  C   UNL     1       1.861  -0.589   3.168  0.00  0.00    +0.019 C 
ATOM      4  C   UNL     1       3.268  -1.002   2.732  0.00  0.00    -0.002 C 
ATOM      5  C   UNL     1       3.951  -1.826   3.829  0.00  0.00    -0.020 C 
ATOM      6  C   UNL     1       5.345  -2.201   3.309  0.00  0.00    +0.158 C 
ATOM      7  O   UNL     1       6.056  -2.935   4.322  0.00  0.00    -0.301 OA
ATOM      8  P   UNL     1       5.298  -4.199   5.011  0.00  0.00    +0.431 P 
ATOM      9  O   UNL     1       5.888  -4.490   6.337  0.00  0.00    -0.246 OA
ATOM     10  N   UNL     1       3.726  -3.723   5.176  0.00  0.00    -0.271 NA
ATOM     11  N   UNL     1       3.159  -3.020   4.134  0.00  0.00    +0.398 N 
ATOM     12  C   UNL     1       1.813  -2.638   4.592  0.00  0.00    -0.046 C 
ATOM     13  C   UNL     1       1.060  -1.843   3.532  0.00  0.00    +0.005 C 
ATOM     14  C   UNL     1       0.873  -2.692   2.303  0.00  0.00    -0.013 C 
ATOM     15  C   UNL     1       0.688  -2.098   1.104  0.00  0.00    +0.023 C 
ATOM     16  H   UNL     1       3.220  -3.933   5.977  0.00  0.00    +0.113 HD
ATOM     17  H   UNL     1       3.099  -3.607   3.316  0.00  0.00    -0.055 HD
ENDROOT
BRANCH  15  18
ATOM     18  C   UNL     1       0.524  -2.908  -0.127  0.00  0.00    +0.027 A 
ATOM     19  C   UNL     1      -0.670  -3.588  -0.363  0.00  0.00    +0.012 A 
ATOM     20  C   UNL     1      -0.817  -4.340  -1.510  0.00  0.00    +0.001 A 
ATOM     21  C   UNL     1       0.216  -4.424  -2.427  0.00  0.00    +0.004 A 
ATOM     22  C   UNL     1       1.404  -3.755  -2.202  0.00  0.00    +0.046 A 
ATOM     23  C   UNL     1       1.564  -2.990  -1.058  0.00  0.00    +0.125 A 
BRANCH  23  24
ATOM     24  O   UNL     1       2.729  -2.327  -0.838  0.00  0.00    -0.506 OA
ATOM     25  H   UNL     1       3.389  -2.841  -0.353  0.00  0.00    +0.292 HD
ENDBRANCH  23  24
ENDBRANCH  15  18
BRANCH   8  26
ATOM     26  S   UNL     1       5.426  -5.905   3.760  0.00  0.00    +0.209 S 
ATOM     27  O   UNL     1       4.872  -6.989   4.492  0.00  0.00    -0.126 OA
ATOM     28  O   UNL     1       4.931  -5.513   2.487  0.00  0.00    -0.126 OA
BRANCH  26  29
ATOM     29  O   UNL     1       6.905  -6.216   3.574  0.00  0.00    -0.339 OA
BRANCH  29  30
ATOM     30  C   UNL     1       7.490  -6.789   4.658  0.00  0.00    +0.157 A 
ATOM     31  C   UNL     1       8.066  -5.994   5.638  0.00  0.00    +0.048 A 
ATOM     32  C   UNL     1       8.659  -6.579   6.740  0.00  0.00    +0.004 A 
ATOM     33  C   UNL     1       8.680  -7.956   6.866  0.00  0.00    +0.000 A 
ATOM     34  C   UNL     1       8.107  -8.751   5.891  0.00  0.00    +0.004 A 
ATOM     35  C   UNL     1       7.506  -8.170   4.790  0.00  0.00    +0.048 A 
ENDBRANCH  29  30
ENDBRANCH  26  29
ENDBRANCH   8  26
BRANCH   1  37
ATOM     36  C   UNL     1      -0.017   1.425   0.010  0.00  0.00    +0.277 C 
ATOM     37  O   UNL     1       0.002  -0.004   0.002  0.00  0.00    -0.495 OA
ENDBRANCH   1  37
TORSDOF 6
