REMARK  Name = ZINC11898830
REMARK  8 active torsions:
REMARK  status: ('A' for Active; 'I' for Inactive)
REMARK    1  A    between atoms: C_1  and  N_2
REMARK    2  A    between atoms: C_6  and  C_7
REMARK    3  A    between atoms: C_7  and  C_9
REMARK    4  A    between atoms: C_7  and  N_57
REMARK    5  A    between atoms: C_9  and  N_10
REMARK    6  A    between atoms: C_11  and  C_13
REMARK    7  A    between atoms: N_15  and  C_16
REMARK    8  A    between atoms: C_21  and  N_22
REMARK                            x       y       z     vdW  Elec       q    Type
REMARK                         _______ _______ _______ _____ _____    ______ ____
ROOT
ATOM      1  N   UNL     1       1.860   2.360  -1.352  0.00  0.00    -0.309 N 
ATOM      2  C   UNL     1       2.881   3.199  -1.619  0.00  0.00    +0.299 C 
ATOM      3  O   UNL     1       3.269   3.973  -0.768  0.00  0.00    -0.265 OA
ATOM      4  H   UNL     1       1.550   1.742  -2.032  0.00  0.00    +0.149 HD
ENDROOT
BRANCH   2   5
ATOM      5  C   UNL     1       3.535   3.177  -2.961  0.00  0.00    +0.303 C 
ATOM      6  O   UNL     1       3.147   2.403  -3.812  0.00  0.00    -0.265 OA
ATOM      7  N   UNL     1       4.556   4.016  -3.228  0.00  0.00    -0.276 N 
ATOM      8  H   UNL     1       4.912   4.584  -2.527  0.00  0.00    +0.155 HD
BRANCH   7   9
ATOM      9  C   UNL     1       5.101   4.066  -4.513  0.00  0.00    +0.064 A 
ATOM     10  C   UNL     1       4.295   3.833  -5.621  0.00  0.00    +0.025 A 
ATOM     11  C   UNL     1       4.836   3.889  -6.890  0.00  0.00    +0.002 A 
ATOM     12  C   UNL     1       6.180   4.166  -7.059  0.00  0.00    +0.002 A 
ATOM     13  C   UNL     1       6.986   4.394  -5.959  0.00  0.00    +0.034 A 
ATOM     14  C   UNL     1       6.451   4.345  -4.686  0.00  0.00    +0.147 A 
BRANCH  14  15
ATOM     15  N   UNL     1       7.314   4.588  -3.509  0.00  0.00    +0.058 N 
ATOM     16  O   UNL     1       8.473   4.929  -3.664  0.00  0.00    -0.126 OA
ATOM     17  O   UNL     1       6.866   4.446  -2.385  0.00  0.00    -0.126 OA
ENDBRANCH  14  15
ENDBRANCH   7   9
ENDBRANCH   2   5
BRANCH   1  18
ATOM     18  C   UNL     1       1.219   2.382  -0.035  0.00  0.00    +0.095 C 
BRANCH  18  19
ATOM     19  C   UNL     1       0.018   1.434  -0.037  0.00  0.00    -0.003 C 
BRANCH  19  26
ATOM     20  C   UNL     1      -2.271   1.165  -0.809  0.00  0.00    -0.078 C 
ATOM     21  C   UNL     1      -3.362   1.705  -1.692  0.00  0.00    -0.019 C 
ATOM     22  C   UNL     1      -3.132   1.187  -3.127  0.00  0.00    -0.002 C 
ATOM     23  C   UNL     1      -2.091   1.935  -3.822  0.00  0.00    -0.002 C 
ATOM     24  C   UNL     1      -0.724   1.827  -3.113  0.00  0.00    -0.019 C 
ATOM     25  C   UNL     1      -0.723   2.760  -1.933  0.00  0.00    -0.078 C 
ATOM     26  N   UNL     1      -1.133   2.131  -0.632  0.00  0.00    +0.386 N 
ATOM     27  H   UNL     1      -1.436   2.875   0.006  0.00  0.00    -0.081 HD
ENDBRANCH  19  26
BRANCH  19  33
ATOM     28  C   UNL     1       1.819  -0.079   1.984  0.00  0.00    +0.148 C 
ATOM     29  N   UNL     1       0.464   0.406   2.262  0.00  0.00    -0.355 N 
ATOM     30  C   UNL     1      -0.203   0.265   3.442  0.00  0.00    +0.085 A 
ATOM     31  C   UNL     1      -1.417   0.836   3.311  0.00  0.00    +0.019 A 
ATOM     32  C   UNL     1      -1.500   1.354   2.003  0.00  0.00    +0.021 A 
ATOM     33  C   UNL     1      -0.337   1.071   1.382  0.00  0.00    +0.006 A 
ENDBRANCH  19  33
ENDBRANCH  18  19
ENDBRANCH   1  18
TORSDOF 7
