REMARK  Name = ZINC00661027
REMARK  10 active torsions:
REMARK  status: ('A' for Active; 'I' for Inactive)
REMARK    1  A    between atoms: C_1  and  C_2
REMARK    2  A    between atoms: C_2  and  O_3
REMARK    3  A    between atoms: O_3  and  C_4
REMARK    4  A    between atoms: C_6  and  C_22
REMARK    5  A    between atoms: C_9  and  O_10
REMARK    6  A    between atoms: O_10  and  C_11
REMARK    7  A    between atoms: C_11  and  C_12
REMARK    8  A    between atoms: C_25  and  C_36
REMARK    9  A    between atoms: C_31  and  N_35
REMARK   10  A    between atoms: C_32  and  C_33
REMARK                            x       y       z     vdW  Elec       q    Type
REMARK                         _______ _______ _______ _____ _____    ______ ____
ROOT
ATOM      1  C   UNL     1      -1.255   6.793   2.767  0.00  0.00    +0.162 A 
ATOM      2  C   UNL     1      -1.269   6.188   1.520  0.00  0.00    +0.054 A 
ATOM      3  C   UNL     1      -1.633   4.859   1.401  0.00  0.00    -0.031 A 
ATOM      4  C   UNL     1      -1.974   4.129   2.524  0.00  0.00    +0.008 A 
ATOM      5  C   UNL     1      -1.958   4.726   3.771  0.00  0.00    +0.050 A 
ATOM      6  C   UNL     1      -1.599   6.058   3.897  0.00  0.00    +0.162 A 
ENDROOT
BRANCH   3   7
ATOM      7  C   UNL     1      -1.652   4.204   0.044  0.00  0.00    +0.101 C 
ATOM      8  C   UNL     1      -0.691   3.044   0.026  0.00  0.00    +0.049 A 
ATOM      9  C   UNL     1       0.697   3.052   0.012  0.00  0.00    +0.068 A 
ATOM     10  N   UNL     1       1.112   1.808   0.001  0.00  0.00    -0.176 NA
ATOM     11  N   UNL     1      -0.011   0.966   0.007  0.00  0.00    -0.246 N 
ATOM     12  H   UNL     1       0.003  -0.034   0.006  0.00  0.00    +0.192 HD
ATOM     13  C   UNL     1      -1.107   1.742   0.016  0.00  0.00    +0.222 A 
ATOM     14  O   UNL     1      -2.417   1.391   0.017  0.00  0.00    -0.423 OA
ATOM     15  C   UNL     1      -3.321   2.355  -0.252  0.00  0.00    +0.200 C 
ATOM     16  C   UNL     1      -3.033   3.675  -0.261  0.00  0.00    +0.098 C 
ATOM     17  C   UNL     1       1.575   4.278   0.012  0.00  0.00    +0.068 C 
BRANCH  15  18
ATOM     18  N   UNL     1      -4.610   1.972  -0.531  0.00  0.00    -0.328 N 
ATOM     19  H   UNL     1      -4.847   1.032  -0.531  0.00  0.00    +0.145 HD
ATOM     20  H   UNL     1      -5.283   2.643  -0.728  0.00  0.00    +0.145 HD
ENDBRANCH  15  18
BRANCH  16  21
ATOM     21  C   UNL     1      -4.078   4.607  -0.565  0.00  0.00    +0.101 C 
ATOM     22  N   UNL     1      -4.907   5.345  -0.806  0.00  0.00    -0.191 NA
ENDBRANCH  16  21
ENDBRANCH   3   7
BRANCH   1  23
ATOM     23  O   UNL     1      -0.902   8.101   2.885  0.00  0.00    -0.489 OA
BRANCH  23  25
ATOM     24  C   UNL     1      -0.195  10.241   2.013  0.00  0.00    +0.048 C 
ATOM     25  C   UNL     1      -0.562   8.793   1.682  0.00  0.00    +0.226 C 
ENDBRANCH  23  25
ENDBRANCH   1  23
BRANCH   6  26
ATOM     26  O   UNL     1      -1.583   6.647   5.123  0.00  0.00    -0.484 OA
BRANCH  26  27
ATOM     27  C   UNL     1      -1.948   5.832   6.239  0.00  0.00    +0.264 C 
BRANCH  27  28
ATOM     28  C   UNL     1      -1.872   6.648   7.503  0.00  0.00    -0.010 A 
ATOM     29  C   UNL     1      -0.680   6.689   8.224  0.00  0.00    +0.007 A 
ATOM     30  C   UNL     1      -0.576   7.421   9.367  0.00  0.00    +0.009 A 
ATOM     31  C   UNL     1      -1.690   8.137   9.836  0.00  0.00    -0.018 A 
ATOM     32  C   UNL     1      -1.624   8.899  11.016  0.00  0.00    +0.008 A 
ATOM     33  C   UNL     1      -2.723   9.580  11.441  0.00  0.00    +0.001 A 
ATOM     34  C   UNL     1      -3.917   9.534  10.723  0.00  0.00    +0.001 A 
ATOM     35  C   UNL     1      -4.019   8.807   9.577  0.00  0.00    +0.008 A 
ATOM     36  C   UNL     1      -2.905   8.091   9.107  0.00  0.00    -0.018 A 
ATOM     37  C   UNL     1      -2.971   7.329   7.928  0.00  0.00    +0.015 A 
ENDBRANCH  27  28
ENDBRANCH  26  27
ENDBRANCH   6  26
TORSDOF 8
