REMARK  Name = ZINC02437331
REMARK  13 active torsions:
REMARK  status: ('A' for Active; 'I' for Inactive)
REMARK    1  A    between atoms: C_1  and  C_2
REMARK    2  A    between atoms: C_7  and  N_32
REMARK    3  A    between atoms: C_8  and  C_30
REMARK    4  A    between atoms: C_9  and  C_18
REMARK    5  A    between atoms: C_11  and  C_14
REMARK    6  A    between atoms: C_14  and  O_16
REMARK    7  A    between atoms: O_16  and  C_17
REMARK    8  A    between atoms: C_20  and  O_28
REMARK    9  A    between atoms: C_21  and  O_26
REMARK   10  A    between atoms: C_22  and  O_24
REMARK   11  A    between atoms: O_24  and  C_25
REMARK   12  A    between atoms: O_26  and  C_27
REMARK   13  A    between atoms: O_28  and  C_29
REMARK                            x       y       z     vdW  Elec       q    Type
REMARK                         _______ _______ _______ _____ _____    ______ ____
ROOT
ATOM      1  C   UNL     1      -0.019   1.526   0.010  0.00  0.00    +0.029 C 
ATOM      2  C   UNL     1       0.002  -0.004   0.002  0.00  0.00    +0.136 C 
ATOM      3  C   UNL     1      -1.403  -0.578   0.113  0.00  0.00    +0.239 C 
ATOM      4  O   UNL     1      -2.279  -0.275  -0.669  0.00  0.00    -0.274 OA
ATOM      5  N   UNL     1      -1.621  -1.430   1.114  0.00  0.00    -0.220 N 
ATOM      6  C   UNL     1      -2.895  -1.921   1.457  0.00  0.00    +0.110 C 
ATOM      7  C   UNL     1      -2.982  -3.024   2.241  0.00  0.00    +0.077 C 
ATOM      8  C   UNL     1      -1.786  -3.797   2.719  0.00  0.00    +0.102 C 
ATOM      9  C   UNL     1      -0.551  -2.921   2.721  0.00  0.00    +0.077 C 
ATOM     10  C   UNL     1      -0.545  -1.849   1.901  0.00  0.00    +0.088 C 
ATOM     11  S   UNL     1       0.739  -0.674   1.555  0.00  0.00    -0.096 S 
ENDROOT
BRANCH   8  12
ATOM     12  C   UNL     1      -1.558  -4.974   1.807  0.00  0.00    -0.027 A 
ATOM     13  C   UNL     1      -1.306  -4.767   0.464  0.00  0.00    +0.054 A 
ATOM     14  C   UNL     1      -1.096  -5.847  -0.379  0.00  0.00    +0.165 A 
ATOM     15  C   UNL     1      -1.140  -7.141   0.128  0.00  0.00    +0.204 A 
ATOM     16  C   UNL     1      -1.393  -7.345   1.479  0.00  0.00    +0.165 A 
ATOM     17  C   UNL     1      -1.597  -6.259   2.316  0.00  0.00    +0.054 A 
BRANCH  16  18
ATOM     18  O   UNL     1      -1.437  -8.608   1.980  0.00  0.00    -0.491 OA
ATOM     19  C   UNL     1      -1.702  -8.743   3.378  0.00  0.00    +0.277 C 
ENDBRANCH  16  18
BRANCH  15  20
ATOM     20  O   UNL     1      -0.935  -8.204  -0.697  0.00  0.00    -0.488 OA
ATOM     21  C   UNL     1       0.412  -8.658  -0.847  0.00  0.00    +0.277 C 
ENDBRANCH  15  20
BRANCH  14  22
ATOM     22  O   UNL     1      -0.849  -5.642  -1.701  0.00  0.00    -0.491 OA
ATOM     23  C   UNL     1      -0.820  -4.287  -2.152  0.00  0.00    +0.277 C 
ENDBRANCH  14  22
ENDBRANCH   8  12
BRANCH   6  24
ATOM     24  N   UNL     1      -4.031  -1.294   1.005  0.00  0.00    -0.345 N 
ATOM     25  H   UNL     1      -3.959  -0.505   0.445  0.00  0.00    +0.144 HD
ATOM     26  H   UNL     1      -4.904  -1.639   1.246  0.00  0.00    +0.144 HD
ENDBRANCH   6  24
BRANCH   9  27
ATOM     27  C   UNL     1       0.546  -3.213   3.545  0.00  0.00    +0.338 C 
ATOM     28  O   UNL     1       1.528  -2.493   3.528  0.00  0.00    -0.245 OA
BRANCH  27  29
ATOM     29  O   UNL     1       0.513  -4.292   4.357  0.00  0.00    -0.465 OA
ATOM     30  C   UNL     1       1.665  -4.528   5.168  0.00  0.00    +0.280 C 
ENDBRANCH  27  29
ENDBRANCH   9  27
BRANCH   7  31
ATOM     31  C   UNL     1      -4.282  -3.476   2.635  0.00  0.00    +0.099 C 
ATOM     32  N   UNL     1      -5.314  -3.834   2.947  0.00  0.00    -0.191 NA
ENDBRANCH   7  31
TORSDOF 8
