REMARK  Name = ZINC39654021
REMARK  10 active torsions:
REMARK  status: ('A' for Active; 'I' for Inactive)
REMARK    1  A    between atoms: C_1  and  C_2
REMARK    2  A    between atoms: C_2  and  O_3
REMARK    3  A    between atoms: O_3  and  C_4
REMARK    4  A    between atoms: C_7  and  C_10
REMARK    5  A    between atoms: C_10  and  C_11
REMARK    6  A    between atoms: C_11  and  N_12
REMARK    7  A    between atoms: C_13  and  C_15
REMARK    8  A    between atoms: C_26  and  C_28
REMARK    9  A    between atoms: C_31  and  O_34
REMARK   10  A    between atoms: O_34  and  C_35
REMARK                            x       y       z     vdW  Elec       q    Type
REMARK                         _______ _______ _______ _____ _____    ______ ____
ROOT
ATOM      1  C   UNL     1      -0.344 -11.041  -3.314  0.00  0.00    +0.100 C 
ATOM      2  C   UNL     1      -0.446 -11.463  -1.831  0.00  0.00    +0.121 C 
ATOM      3  N   UNL     1      -1.886 -11.735  -1.617  0.00  0.00    -0.296 N 
ATOM      4  C   UNL     1      -2.322 -12.411  -2.863  0.00  0.00    +0.115 C 
ATOM      5  C   UNL     1      -1.575 -11.668  -3.988  0.00  0.00    -0.004 C 
ATOM      6  C   UNL     1      -2.465 -10.580  -4.581  0.00  0.00    -0.010 C 
ATOM      7  C   UNL     1      -3.653 -11.231  -5.295  0.00  0.00    -0.082 C 
ATOM      8  N   UNL     1      -3.162 -12.121  -6.354  0.00  0.00    +0.379 N 
ATOM      9  C   UNL     1      -2.383 -13.218  -5.766  0.00  0.00    -0.082 C 
ATOM     10  C   UNL     1      -1.142 -12.650  -5.072  0.00  0.00    -0.010 C 
ATOM     11  C   UNL     1      -2.632 -11.437  -0.535  0.00  0.00    +0.248 C 
ATOM     12  O   UNL     1      -2.161 -10.762   0.360  0.00  0.00    -0.270 OA
ATOM     13  H   UNL     1      -3.946 -12.501  -6.863  0.00  0.00    -0.086 HD
ATOM     14  H   UNL     1      -2.576 -11.597  -6.987  0.00  0.00    -0.086 HD
ENDROOT
BRANCH  11  15
ATOM     15  C   UNL     1      -4.020 -11.929  -0.436  0.00  0.00    +0.055 A 
ATOM     16  C   UNL     1      -4.448 -13.014  -1.216  0.00  0.00    +0.020 A 
ATOM     17  C   UNL     1      -5.755 -13.438  -1.089  0.00  0.00    +0.068 A 
ATOM     18  C   UNL     1      -6.599 -12.780  -0.199  0.00  0.00    +0.220 A 
ATOM     19  N   UNL     1      -6.166 -11.758   0.523  0.00  0.00    -0.220 NA
ATOM     20  C   UNL     1      -4.925 -11.325   0.437  0.00  0.00    +0.127 A 
BRANCH  18  21
ATOM     21  O   UNL     1      -7.884 -13.192  -0.070  0.00  0.00    -0.438 OA
BRANCH  21  22
ATOM     22  C   UNL     1      -8.654 -12.592   0.876  0.00  0.00    +0.130 A 
ATOM     23  C   UNL     1      -9.204 -11.342   0.633  0.00  0.00    +0.046 A 
ATOM     24  C   UNL     1      -9.987 -10.735   1.597  0.00  0.00    +0.004 A 
ATOM     25  C   UNL     1     -10.221 -11.372   2.801  0.00  0.00    +0.000 A 
ATOM     26  C   UNL     1      -9.673 -12.617   3.045  0.00  0.00    +0.004 A 
ATOM     27  C   UNL     1      -8.895 -13.232   2.083  0.00  0.00    +0.046 A 
ENDBRANCH  21  22
ENDBRANCH  18  21
ENDBRANCH  11  15
BRANCH   1  29
ATOM     28  N   UNL     1       0.209  -8.932  -4.482  0.00  0.00    -0.315 N 
ATOM     29  C   UNL     1      -0.386  -9.540  -3.437  0.00  0.00    +0.218 C 
ATOM     30  O   UNL     1      -0.955  -8.878  -2.594  0.00  0.00    -0.275 OA
ATOM     31  H   UNL     1       0.664  -9.461  -5.156  0.00  0.00    +0.149 HD
BRANCH  28  32
ATOM     32  C   UNL     1       0.168  -7.472  -4.602  0.00  0.00    +0.109 C 
BRANCH  32  33
ATOM     33  C   UNL     1       0.912  -7.043  -5.868  0.00  0.00    +0.054 C 
BRANCH  33  37
ATOM     34  C   UNL     1       0.792  -2.785  -6.216  0.00  0.00    +0.121 A 
ATOM     35  C   UNL     1       1.832  -3.398  -5.532  0.00  0.00    +0.046 A 
ATOM     36  C   UNL     1       1.869  -4.774  -5.421  0.00  0.00    +0.007 A 
ATOM     37  C   UNL     1       0.869  -5.542  -5.990  0.00  0.00    -0.046 A 
ATOM     38  C   UNL     1      -0.168  -4.934  -6.673  0.00  0.00    +0.007 A 
ATOM     39  C   UNL     1      -0.212  -3.557  -6.782  0.00  0.00    +0.046 A 
BRANCH  34  40
ATOM     40  O   UNL     1       0.754  -1.431  -6.327  0.00  0.00    -0.492 OA
BRANCH  40  42
ATOM     41  C   UNL     1       1.608   0.797  -5.947  0.00  0.00    +0.048 C 
ATOM     42  C   UNL     1       1.821  -0.701  -5.720  0.00  0.00    +0.225 C 
ENDBRANCH  40  42
ENDBRANCH  34  40
ENDBRANCH  33  37
ENDBRANCH  32  33
ENDBRANCH  28  32
ENDBRANCH   1  29
TORSDOF 9
