REMARK  Name = ZINC09634348
REMARK  8 active torsions:
REMARK  status: ('A' for Active; 'I' for Inactive)
REMARK    1  A    between atoms: C_4  and  C_7
REMARK    2  A    between atoms: C_7  and  C_8
REMARK    3  A    between atoms: C_13  and  N_14
REMARK    4  A    between atoms: C_15  and  C_17
REMARK    5  A    between atoms: C_17  and  C_19
REMARK    6  A    between atoms: C_17  and  N_23
REMARK    7  A    between atoms: C_19  and  C_20
REMARK    8  A    between atoms: C_24  and  C_26
REMARK                            x       y       z     vdW  Elec       q    Type
REMARK                         _______ _______ _______ _____ _____    ______ ____
ROOT
ATOM      1  C   UNL     1      -2.425  -1.297   0.676  0.00  0.00    +0.168 C 
ENDROOT
BRANCH   1   3
ATOM      2  N   UNL     1      -0.462   0.209   0.660  0.00  0.00    -0.284 N 
ATOM      3  C   UNL     1      -1.748   0.008   1.010  0.00  0.00    +0.238 C 
ATOM      4  O   UNL     1      -2.361   0.876   1.593  0.00  0.00    -0.273 OA
ATOM      5  H   UNL     1       0.045  -0.506   0.244  0.00  0.00    +0.155 HD
BRANCH   2  11
ATOM      6  C   UNL     1       1.176   1.886   0.080  0.00  0.00    -0.022 A 
ATOM      7  C   UNL     1       1.766   3.114   0.312  0.00  0.00    +0.006 A 
ATOM      8  C   UNL     1       1.330   3.904   1.360  0.00  0.00    +0.000 A 
ATOM      9  C   UNL     1       0.303   3.470   2.177  0.00  0.00    +0.002 A 
ATOM     10  C   UNL     1      -0.291   2.244   1.950  0.00  0.00    +0.023 A 
ATOM     11  C   UNL     1       0.141   1.449   0.896  0.00  0.00    +0.037 A 
BRANCH   6  12
ATOM     12  C   UNL     1       1.651   1.025  -1.062  0.00  0.00    +0.072 C 
BRANCH  12  16
ATOM     13  C   UNL     1      -0.645   1.900  -4.556  0.00  0.00    +0.000 A 
ATOM     14  C   UNL     1       0.463   2.667  -4.248  0.00  0.00    +0.000 A 
ATOM     15  C   UNL     1       1.206   2.384  -3.117  0.00  0.00    +0.004 A 
ATOM     16  C   UNL     1       0.841   1.334  -2.295  0.00  0.00    -0.043 A 
ATOM     17  C   UNL     1      -0.264   0.564  -2.607  0.00  0.00    +0.004 A 
ATOM     18  C   UNL     1      -1.010   0.850  -3.735  0.00  0.00    +0.000 A 
ENDBRANCH  12  16
ENDBRANCH   6  12
ENDBRANCH   2  11
ENDBRANCH   1   3
BRANCH   1  19
ATOM     19  N   UNL     1      -3.731  -1.353   1.337  0.00  0.00    -0.300 N 
ATOM     20  C   UNL     1      -4.287  -2.545   1.630  0.00  0.00    +0.245 C 
ATOM     21  O   UNL     1      -3.665  -3.571   1.432  0.00  0.00    -0.270 OA
ATOM     22  H   UNL     1      -4.195  -0.532   1.563  0.00  0.00    +0.150 HD
BRANCH  20  23
ATOM     23  C   UNL     1      -5.652  -2.606   2.192  0.00  0.00    +0.037 A 
ATOM     24  C   UNL     1      -6.366  -1.429   2.426  0.00  0.00    +0.014 A 
ATOM     25  C   UNL     1      -7.643  -1.492   2.944  0.00  0.00    +0.021 A 
ATOM     26  C   UNL     1      -8.211  -2.718   3.245  0.00  0.00    +0.041 A 
ATOM     27  C   UNL     1      -7.506  -3.889   3.021  0.00  0.00    +0.021 A 
ATOM     28  C   UNL     1      -6.231  -3.839   2.497  0.00  0.00    +0.014 A 
ATOM     29 CL   UNL     1      -9.816  -2.789   3.905  0.00  0.00    -0.084 Cl
ENDBRANCH  20  23
ENDBRANCH   1  19
BRANCH   1  30
ATOM     30  C   UNL     1      -2.615  -1.400  -0.839  0.00  0.00    +0.127 C 
BRANCH  30  31
ATOM     31  C   UNL     1      -3.449  -0.241  -1.321  0.00  0.00    +0.213 C 
ATOM     32  O   UNL     1      -3.826   0.602  -0.535  0.00  0.00    -0.276 OA
ATOM     33  N   UNL     1      -3.775  -0.141  -2.624  0.00  0.00    -0.329 N 
ATOM     34  H   UNL     1      -3.538  -0.853  -3.239  0.00  0.00    +0.145 HD
ATOM     35  H   UNL     1      -4.247   0.642  -2.948  0.00  0.00    +0.145 HD
ENDBRANCH  30  31
ENDBRANCH   1  30
TORSDOF 8
