REMARK  Name = ZINC38626806
REMARK  8 active torsions:
REMARK  status: ('A' for Active; 'I' for Inactive)
REMARK    1  A    between atoms: C_1  and  C_2
REMARK    2  A    between atoms: C_3  and  C_14
REMARK    3  A    between atoms: C_4  and  C_8
REMARK    4  A    between atoms: N_16  and  C_17
REMARK    5  A    between atoms: C_17  and  N_19
REMARK    6  A    between atoms: N_19  and  N_20
REMARK    7  A    between atoms: C_21  and  C_23
REMARK    8  A    between atoms: C_26  and  C_29
REMARK                            x       y       z     vdW  Elec       q    Type
REMARK                         _______ _______ _______ _____ _____    ______ ____
ROOT
ATOM      1  C   UNL     1      -4.732  -0.765   0.037  0.00  0.00    +0.153 C 
ATOM      2  S   UNL     1      -5.063   0.915   0.059  0.00  0.00    -0.017 S 
ENDROOT
BRANCH   1   5
ATOM      3  C   UNL     1      -2.442  -0.314   0.021  0.00  0.00    +0.251 C 
ATOM      4  O   UNL     1      -2.677   0.880   0.036  0.00  0.00    -0.270 OA
ATOM      5  N   UNL     1      -3.457  -1.200   0.020  0.00  0.00    -0.263 N 
ATOM      6  H   UNL     1      -3.270  -2.152   0.008  0.00  0.00    +0.157 HD
BRANCH   3   9
ATOM      7  C   UNL     1      -0.018   1.503   0.010  0.00  0.00    +0.089 C 
ATOM      8  C   UNL     1       0.002  -0.004   0.002  0.00  0.00    +0.132 C 
ATOM      9  C   UNL     1      -1.102  -0.772   0.003  0.00  0.00    +0.078 C 
ATOM     10  C   UNL     1      -0.648  -2.220  -0.018  0.00  0.00    +0.161 C 
ATOM     11  N   UNL     1       0.774  -2.108  -0.433  0.00  0.00    -0.144 NA
ATOM     12  O   UNL     1       1.127  -0.743  -0.013  0.00  0.00    -0.410 OA
ATOM     13  H   UNL     1       0.868  -2.211  -1.433  0.00  0.00    +0.168 HD
BRANCH  10  14
ATOM     14  C   UNL     1      -0.762  -2.836   1.353  0.00  0.00    -0.023 A 
ATOM     15  C   UNL     1       0.212  -2.593   2.303  0.00  0.00    +0.005 A 
ATOM     16  C   UNL     1       0.107  -3.158   3.560  0.00  0.00    +0.000 A 
ATOM     17  C   UNL     1      -0.971  -3.966   3.867  0.00  0.00    +0.000 A 
ATOM     18  C   UNL     1      -1.945  -4.209   2.917  0.00  0.00    +0.000 A 
ATOM     19  C   UNL     1      -1.843  -3.640   1.661  0.00  0.00    +0.005 A 
ENDBRANCH  10  14
ENDBRANCH   3   9
ENDBRANCH   1   5
BRANCH   1  20
ATOM     20  N   UNL     1      -5.748  -1.651   0.036  0.00  0.00    -0.245 N 
ATOM     21  H   UNL     1      -6.665  -1.337   0.049  0.00  0.00    +0.172 HD
BRANCH  20  22
ATOM     22  N   UNL     1      -5.478  -3.026   0.018  0.00  0.00    -0.233 N 
ATOM     23  C   UNL     1      -6.493  -3.912   0.018  0.00  0.00    +0.259 C 
ATOM     24  O   UNL     1      -7.640  -3.520   0.033  0.00  0.00    -0.272 OA
ATOM     25  H   UNL     1      -4.560  -3.339   0.006  0.00  0.00    +0.173 HD
BRANCH  23  26
ATOM     26  C   UNL     1      -6.202  -5.391  -0.002  0.00  0.00    +0.240 C 
ATOM     27  C   UNL     1      -5.900  -5.896   1.398  0.00  0.00    +0.041 C 
ATOM     28  C   UNL     1      -6.871  -6.800   1.631  0.00  0.00    +0.092 C 
ATOM     29  N   UNL     1      -7.701  -6.892   0.559  0.00  0.00    -0.153 NA
ATOM     30  N   UNL     1      -7.403  -6.151  -0.385  0.00  0.00    -0.170 NA
BRANCH  28  31
ATOM     31  C   UNL     1      -7.014  -7.584   2.883  0.00  0.00    +0.002 A 
ATOM     32  C   UNL     1      -6.107  -7.407   3.926  0.00  0.00    +0.013 A 
ATOM     33  C   UNL     1      -6.244  -8.138   5.088  0.00  0.00    +0.039 A 
ATOM     34  C   UNL     1      -7.282  -9.047   5.219  0.00  0.00    +0.123 A 
ATOM     35  C   UNL     1      -8.185  -9.227   4.184  0.00  0.00    +0.039 A 
ATOM     36  C   UNL     1      -8.059  -8.495   3.021  0.00  0.00    +0.013 A 
ATOM     37  F   UNL     1      -7.412  -9.761   6.358  0.00  0.00    -0.205 F 
ENDBRANCH  28  31
ENDBRANCH  23  26
ENDBRANCH  20  22
ENDBRANCH   1  20
TORSDOF 7
