REMARK  Name = ZINC39668208
REMARK  5 active torsions:
REMARK  status: ('A' for Active; 'I' for Inactive)
REMARK    1  A    between atoms: C_6  and  C_7
REMARK    2  A    between atoms: C_7  and  N_8
REMARK    3  A    between atoms: C_9  and  C_11
REMARK    4  A    between atoms: C_22  and  C_24
REMARK    5  A    between atoms: C_26  and  C_31
REMARK                            x       y       z     vdW  Elec       q    Type
REMARK                         _______ _______ _______ _____ _____    ______ ____
ROOT
ATOM      1  C   UNL     1      -3.625  -1.462  -2.637  0.00  0.00    +0.100 C 
ATOM      2  C   UNL     1      -3.884  -0.282  -3.601  0.00  0.00    +0.121 C 
ATOM      3  N   UNL     1      -5.018  -0.729  -4.444  0.00  0.00    -0.296 N 
ATOM      4  C   UNL     1      -5.914  -1.447  -3.506  0.00  0.00    +0.115 C 
ATOM      5  C   UNL     1      -4.960  -2.223  -2.577  0.00  0.00    -0.004 C 
ATOM      6  C   UNL     1      -5.501  -2.229  -1.151  0.00  0.00    -0.010 C 
ATOM      7  C   UNL     1      -6.798  -3.041  -1.105  0.00  0.00    -0.082 C 
ATOM      8  N   UNL     1      -6.535  -4.413  -1.555  0.00  0.00    +0.379 N 
ATOM      9  C   UNL     1      -6.104  -4.406  -2.958  0.00  0.00    -0.082 C 
ATOM     10  C   UNL     1      -4.777  -3.651  -3.082  0.00  0.00    -0.010 C 
ATOM     11  C   UNL     1      -5.194  -0.529  -5.765  0.00  0.00    +0.247 C 
ATOM     12  O   UNL     1      -4.306  -0.031  -6.428  0.00  0.00    -0.270 OA
ATOM     13  H   UNL     1      -5.810  -4.820  -0.984  0.00  0.00    -0.086 HD
ATOM     14  H   UNL     1      -7.377  -4.962  -1.466  0.00  0.00    -0.086 HD
ENDROOT
BRANCH  11  15
ATOM     15  C   UNL     1      -6.468  -0.916  -6.407  0.00  0.00    +0.040 A 
ATOM     16  C   UNL     1      -6.522  -1.129  -7.786  0.00  0.00    +0.025 A 
ATOM     17  C   UNL     1      -7.713  -1.490  -8.380  0.00  0.00    +0.058 A 
ATOM     18  C   UNL     1      -8.855  -1.641  -7.614  0.00  0.00    +0.050 A 
ATOM     19  C   UNL     1      -8.810  -1.431  -6.246  0.00  0.00    +0.125 A 
ATOM     20  C   UNL     1      -7.621  -1.074  -5.638  0.00  0.00    +0.051 A 
ATOM     21  F   UNL     1      -9.930  -1.579  -5.504  0.00  0.00    -0.205 F 
BRANCH  17  22
ATOM     22  C   UNL     1      -7.770  -1.721  -9.869  0.00  0.00    +0.418 C 
ATOM     23  F   UNL     1      -7.495  -3.064 -10.144  0.00  0.00    -0.166 F 
ATOM     24  F   UNL     1      -9.048  -1.400 -10.341  0.00  0.00    -0.166 F 
ATOM     25  F   UNL     1      -6.822  -0.911 -10.503  0.00  0.00    -0.166 F 
ENDBRANCH  17  22
ENDBRANCH  11  15
BRANCH   1  27
ATOM     26  N   UNL     1      -2.432  -1.675  -0.481  0.00  0.00    -0.311 N 
ATOM     27  C   UNL     1      -3.250  -0.951  -1.270  0.00  0.00    +0.218 C 
ATOM     28  O   UNL     1      -3.684   0.113  -0.880  0.00  0.00    -0.275 OA
ATOM     29  H   UNL     1      -2.085  -2.525  -0.792  0.00  0.00    +0.149 HD
BRANCH  26  30
ATOM     30  C   UNL     1      -2.068  -1.178   0.848  0.00  0.00    +0.139 C 
BRANCH  30  36
ATOM     31  C   UNL     1       0.218  -2.063   1.362  0.00  0.00    +0.009 A 
ATOM     32  C   UNL     1       1.061  -2.964   1.979  0.00  0.00    +0.046 A 
ATOM     33  C   UNL     1       0.540  -3.986   2.767  0.00  0.00    +0.124 A 
ATOM     34  C   UNL     1      -0.838  -4.085   2.913  0.00  0.00    -0.002 A 
ATOM     35  C   UNL     1      -1.678  -3.182   2.301  0.00  0.00    +0.012 A 
ATOM     36  C   UNL     1      -1.152  -2.167   1.521  0.00  0.00    -0.030 A 
ATOM     37  C   UNL     1      -1.106  -5.291   3.793  0.00  0.00    +0.080 C 
ATOM     38  C   UNL     1       0.255  -6.024   3.754  0.00  0.00    +0.234 C 
ATOM     39  O   UNL     1       1.181  -4.963   3.467  0.00  0.00    -0.491 OA
ENDBRANCH  30  36
ENDBRANCH  26  30
ENDBRANCH   1  27
TORSDOF 5
