REMARK  Name = ZINC38651781
REMARK  11 active torsions:
REMARK  status: ('A' for Active; 'I' for Inactive)
REMARK    1  A    between atoms: C_1  and  C_2
REMARK    2  A    between atoms: C_2  and  C_3
REMARK    3  A    between atoms: C_2  and  C_4
REMARK    4  A    between atoms: C_7  and  O_10
REMARK    5  A    between atoms: O_10  and  C_11
REMARK    6  A    between atoms: C_11  and  C_12
REMARK    7  A    between atoms: C_12  and  O_14
REMARK    8  A    between atoms: O_14  and  C_15
REMARK    9  A    between atoms: C_22  and  N_35
REMARK   10  A    between atoms: C_23  and  C_33
REMARK   11  A    between atoms: C_24  and  C_26
REMARK                            x       y       z     vdW  Elec       q    Type
REMARK                         _______ _______ _______ _____ _____    ______ ____
ROOT
ATOM      1  C   UNL     1       3.167  -4.312   8.628  0.00  0.00    +0.135 A 
ATOM      2  C   UNL     1       4.472  -3.856   8.753  0.00  0.00    +0.047 A 
ATOM      3  C   UNL     1       5.252  -4.277   9.812  0.00  0.00    +0.012 A 
ATOM      4  C   UNL     1       4.738  -5.155  10.750  0.00  0.00    +0.008 A 
ATOM      5  C   UNL     1       3.435  -5.614  10.630  0.00  0.00    +0.138 A 
ATOM      6  C   UNL     1       2.648  -5.186   9.569  0.00  0.00    +0.093 A 
ATOM      7  O   UNL     1       2.914  -6.474  11.539  0.00  0.00    -0.441 OA
ATOM      8  C   UNL     1       3.731  -7.187  12.332  0.00  0.00    +0.199 C 
ATOM      9  C   UNL     1       5.019  -6.827  12.543  0.00  0.00    +0.098 C 
ATOM     10  C   UNL     1       5.604  -5.603  11.897  0.00  0.00    +0.098 C 
ENDROOT
BRANCH  10  11
ATOM     11  C   UNL     1       5.695  -4.496  12.916  0.00  0.00    -0.035 A 
ATOM     12  C   UNL     1       4.549  -4.027  13.530  0.00  0.00    +0.005 A 
ATOM     13  C   UNL     1       4.633  -3.012  14.465  0.00  0.00    +0.015 A 
ATOM     14  C   UNL     1       5.862  -2.466  14.786  0.00  0.00    +0.018 A 
ATOM     15  C   UNL     1       7.009  -2.937  14.171  0.00  0.00    +0.015 A 
ATOM     16  C   UNL     1       6.925  -3.955  13.240  0.00  0.00    +0.005 A 
ATOM     17 BR   UNL     1       5.977  -1.078  16.064  0.00  0.00    -0.050 Br
ENDBRANCH  10  11
BRANCH   8  18
ATOM     18  N   UNL     1       3.245  -8.314  12.947  0.00  0.00    -0.328 N 
ATOM     19  H   UNL     1       2.325  -8.585  12.806  0.00  0.00    +0.145 HD
ATOM     20  H   UNL     1       3.823  -8.840  13.522  0.00  0.00    +0.145 HD
ENDBRANCH   8  18
BRANCH   9  21
ATOM     21  C   UNL     1       5.841  -7.630  13.399  0.00  0.00    +0.101 C 
ATOM     22  N   UNL     1       6.492  -8.266  14.078  0.00  0.00    -0.191 NA
ENDBRANCH   9  21
BRANCH   1  23
ATOM     23  O   UNL     1       2.398  -3.897   7.587  0.00  0.00    -0.423 OA
BRANCH  23  24
ATOM     24  C   UNL     1       2.614  -4.453   6.383  0.00  0.00    +0.350 C 
ATOM     25  O   UNL     1       3.528  -5.228   6.231  0.00  0.00    -0.247 OA
BRANCH  24  26
ATOM     26  C   UNL     1       1.716  -4.110   5.223  0.00  0.00    +0.349 C 
BRANCH  26  27
ATOM     27  O   UNL     1       2.145  -4.822   4.061  0.00  0.00    -0.481 OA
BRANCH  27  31
ATOM     28  C   UNL     1      -0.007  -4.222   0.593  0.00  0.00    -0.045 A 
ATOM     29  C   UNL     1       1.077  -5.081   0.593  0.00  0.00    +0.007 A 
ATOM     30  C   UNL     1       1.799  -5.284   1.753  0.00  0.00    +0.046 A 
ATOM     31  C   UNL     1       1.437  -4.624   2.919  0.00  0.00    +0.121 A 
ATOM     32  C   UNL     1       0.350  -3.762   2.916  0.00  0.00    +0.046 A 
ATOM     33  C   UNL     1      -0.366  -3.559   1.752  0.00  0.00    +0.007 A 
BRANCH  28  35
ATOM     34  C   UNL     1       0.131  -3.443  -1.757  0.00  0.00    +0.012 C 
ATOM     35  C   UNL     1      -0.793  -4.003  -0.674  0.00  0.00    +0.013 C 
ATOM     36  C   UNL     1      -1.383  -5.334  -1.144  0.00  0.00    +0.012 C 
ENDBRANCH  28  35
ENDBRANCH  27  31
ENDBRANCH  26  27
ENDBRANCH  24  26
ENDBRANCH  23  24
ENDBRANCH   1  23
TORSDOF 9
