REMARK  Name = ZINC63253305
REMARK  9 active torsions:
REMARK  status: ('A' for Active; 'I' for Inactive)
REMARK    1  A    between atoms: C_4  and  C_7
REMARK    2  A    between atoms: C_9  and  C_17
REMARK    3  A    between atoms: C_17  and  C_19
REMARK    4  A    between atoms: C_17  and  C_30
REMARK    5  A    between atoms: C_19  and  N_20
REMARK    6  A    between atoms: N_20  and  C_21
REMARK    7  A    between atoms: C_21  and  N_23
REMARK    8  A    between atoms: N_23  and  C_24
REMARK    9  A    between atoms: C_24  and  C_25
REMARK                            x       y       z     vdW  Elec       q    Type
REMARK                         _______ _______ _______ _____ _____    ______ ____
ROOT
ATOM      1  C   UNL     1       4.260  -0.370   2.586  0.00  0.00    +0.065 C 
ENDROOT
BRANCH   1   3
ATOM      2  C   UNL     1       4.096  -0.640  -0.097  0.00  0.00    +0.137 C 
ATOM      3  C   UNL     1       4.205  -1.175   1.313  0.00  0.00    -0.025 C 
ATOM      4  C   UNL     1       4.245  -2.522   1.201  0.00  0.00    +0.000 A 
ATOM      5  C   UNL     1       4.347  -3.600   2.192  0.00  0.00    +0.010 A 
ATOM      6  C   UNL     1       4.364  -4.883   1.766  0.00  0.00    +0.001 A 
ATOM      7  C   UNL     1       4.288  -5.209   0.405  0.00  0.00    +0.002 A 
ATOM      8  C   UNL     1       4.192  -4.275  -0.564  0.00  0.00    +0.026 A 
ATOM      9  C   UNL     1       4.165  -2.893  -0.230  0.00  0.00    +0.043 A 
ATOM     10  N   UNL     1       4.081  -1.815  -0.975  0.00  0.00    -0.374 N 
ATOM     11  H   UNL     1       4.019  -1.798  -1.942  0.00  0.00    +0.161 HD
BRANCH   2  15
ATOM     12  C   UNL     1       0.477   1.583  -0.553  0.00  0.00    +0.000 A 
ATOM     13  C   UNL     1       1.676   2.245  -0.369  0.00  0.00    +0.000 A 
ATOM     14  C   UNL     1       2.847   1.526  -0.221  0.00  0.00    +0.006 A 
ATOM     15  C   UNL     1       2.819   0.144  -0.257  0.00  0.00    -0.021 A 
ATOM     16  C   UNL     1       1.619  -0.518  -0.441  0.00  0.00    +0.006 A 
ATOM     17  C   UNL     1       0.449   0.201  -0.590  0.00  0.00    +0.000 A 
ENDBRANCH   2  15
ENDBRANCH   1   3
BRANCH   1  18
ATOM     18  C   UNL     1       2.893   0.193   2.884  0.00  0.00    -0.039 A 
ATOM     19  C   UNL     1       1.823  -0.660   3.078  0.00  0.00    +0.004 A 
ATOM     20  C   UNL     1       0.570  -0.144   3.351  0.00  0.00    +0.000 A 
ATOM     21  C   UNL     1       0.387   1.224   3.429  0.00  0.00    +0.000 A 
ATOM     22  C   UNL     1       1.458   2.076   3.235  0.00  0.00    +0.000 A 
ATOM     23  C   UNL     1       2.712   1.560   2.967  0.00  0.00    +0.004 A 
ENDBRANCH   1  18
BRANCH   1  24
ATOM     24  C   UNL     1       4.703  -1.270   3.741  0.00  0.00    +0.115 C 
BRANCH  24  25
ATOM     25  N   UNL     1       4.909  -0.458   4.943  0.00  0.00    -0.326 N 
ATOM     26  H   UNL     1       4.760   0.500   4.912  0.00  0.00    +0.148 HD
BRANCH  25  27
ATOM     27  C   UNL     1       5.304  -1.042   6.091  0.00  0.00    +0.131 C 
ATOM     28  S   UNL     1       5.566  -2.733   6.146  0.00  0.00    -0.019 S 
BRANCH  27  29
ATOM     29  N   UNL     1       5.493  -0.295   7.197  0.00  0.00    -0.322 N 
ATOM     30  H   UNL     1       5.345   0.663   7.166  0.00  0.00    +0.148 HD
BRANCH  29  31
ATOM     31  C   UNL     1       5.923  -0.929   8.445  0.00  0.00    +0.145 C 
BRANCH  31  32
ATOM     32  C   UNL     1       6.059   0.118   9.520  0.00  0.00    +0.007 A 
ATOM     33  C   UNL     1       5.132   0.560  10.404  0.00  0.00    +0.013 A 
ATOM     34  C   UNL     1       5.486   1.540  11.312  0.00  0.00    +0.008 A 
ATOM     35  C   UNL     1       6.749   2.030  11.292  0.00  0.00    +0.045 A 
ATOM     36  S   UNL     1       7.488   1.093   9.964  0.00  0.00    -0.100 S 
ENDBRANCH  31  32
ENDBRANCH  29  31
ENDBRANCH  27  29
ENDBRANCH  25  27
ENDBRANCH  24  25
ENDBRANCH   1  24
TORSDOF 9
