REMARK  Name = ZINC39610424
REMARK  4 active torsions:
REMARK  status: ('A' for Active; 'I' for Inactive)
REMARK    1  A    between atoms: C_6  and  C_7
REMARK    2  A    between atoms: C_7  and  N_8
REMARK    3  A    between atoms: C_9  and  C_11
REMARK    4  A    between atoms: C_22  and  C_24
REMARK                            x       y       z     vdW  Elec       q    Type
REMARK                         _______ _______ _______ _____ _____    ______ ____
ROOT
ATOM      1  C   UNL     1      -3.307  -1.938  -3.026  0.00  0.00    +0.100 C 
ATOM      2  C   UNL     1      -3.722  -0.611  -3.700  0.00  0.00    +0.121 C 
ATOM      3  N   UNL     1      -4.882  -0.969  -4.550  0.00  0.00    -0.296 N 
ATOM      4  C   UNL     1      -5.651  -1.939  -3.733  0.00  0.00    +0.115 C 
ATOM      5  C   UNL     1      -4.576  -2.806  -3.049  0.00  0.00    -0.004 C 
ATOM      6  C   UNL     1      -5.005  -3.153  -1.627  0.00  0.00    -0.010 C 
ATOM      7  C   UNL     1      -6.234  -4.065  -1.677  0.00  0.00    -0.082 C 
ATOM      8  N   UNL     1      -5.909  -5.287  -2.423  0.00  0.00    +0.379 N 
ATOM      9  C   UNL     1      -5.588  -4.952  -3.816  0.00  0.00    -0.082 C 
ATOM     10  C   UNL     1      -4.331  -4.078  -3.856  0.00  0.00    -0.010 C 
ATOM     11  C   UNL     1      -5.173  -0.516  -5.785  0.00  0.00    +0.248 C 
ATOM     12  O   UNL     1      -4.389   0.208  -6.367  0.00  0.00    -0.270 OA
ATOM     13  H   UNL     1      -5.115  -5.739  -1.995  0.00  0.00    -0.086 HD
ATOM     14  H   UNL     1      -6.700  -5.912  -2.402  0.00  0.00    -0.086 HD
ENDROOT
BRANCH  11  15
ATOM     15  C   UNL     1      -6.444  -0.899  -6.432  0.00  0.00    +0.055 A 
ATOM     16  C   UNL     1      -7.602  -1.054  -5.666  0.00  0.00    +0.016 A 
ATOM     17  C   UNL     1      -8.785  -1.412  -6.276  0.00  0.00    +0.021 A 
ATOM     18  C   UNL     1      -8.829  -1.618  -7.646  0.00  0.00    +0.042 A 
ATOM     19  C   UNL     1      -7.686  -1.466  -8.411  0.00  0.00    +0.040 A 
ATOM     20  C   UNL     1      -6.495  -1.101  -7.814  0.00  0.00    +0.054 A 
ATOM     21 CL   UNL     1      -5.064  -0.903  -8.776  0.00  0.00    -0.083 Cl
ATOM     22 CL   UNL     1     -10.324  -2.068  -8.404  0.00  0.00    -0.083 Cl
ENDBRANCH  11  15
BRANCH   1  24
ATOM     23  N   UNL     1      -2.088  -2.591  -0.976  0.00  0.00    -0.311 N 
ATOM     24  C   UNL     1      -2.866  -1.690  -1.607  0.00  0.00    +0.218 C 
ATOM     25  O   UNL     1      -3.211  -0.679  -1.032  0.00  0.00    -0.275 OA
ATOM     26  H   UNL     1      -1.812  -3.400  -1.435  0.00  0.00    +0.149 HD
BRANCH  23  27
ATOM     27  C   UNL     1      -1.659  -2.351   0.404  0.00  0.00    +0.139 C 
BRANCH  27  33
ATOM     28  C   UNL     1       0.564  -3.465   0.686  0.00  0.00    +0.008 A 
ATOM     29  C   UNL     1       1.349  -4.519   1.115  0.00  0.00    +0.040 A 
ATOM     30  C   UNL     1       0.764  -5.610   1.733  0.00  0.00    +0.142 A 
ATOM     31  C   UNL     1      -0.609  -5.645   1.920  0.00  0.00    +0.076 A 
ATOM     32  C   UNL     1      -1.392  -4.590   1.490  0.00  0.00    +0.028 A 
ATOM     33  C   UNL     1      -0.805  -3.500   0.873  0.00  0.00    -0.029 A 
ATOM     34 CL   UNL     1      -1.345  -7.014   2.694  0.00  0.00    -0.081 Cl
ATOM     35  F   UNL     1       1.530  -6.641   2.152  0.00  0.00    -0.204 F 
ENDBRANCH  27  33
ENDBRANCH  23  27
ENDBRANCH   1  24
TORSDOF 4
