REMARK  Name = ZINC48733614
REMARK  8 active torsions:
REMARK  status: ('A' for Active; 'I' for Inactive)
REMARK    1  A    between atoms: C_1  and  N_2
REMARK    2  A    between atoms: N_2  and  C_3
REMARK    3  A    between atoms: N_2  and  C_4
REMARK    4  A    between atoms: C_4  and  C_6
REMARK    5  A    between atoms: C_4  and  C_26
REMARK    6  A    between atoms: C_6  and  N_7
REMARK    7  A    between atoms: C_8  and  C_10
REMARK    8  A    between atoms: N_12  and  C_13
REMARK                            x       y       z     vdW  Elec       q    Type
REMARK                         _______ _______ _______ _____ _____    ______ ____
ROOT
ATOM      1  C   UNL     1      -1.748  -4.538  -2.237  0.00  0.00    +0.303 C 
ATOM      2  O   UNL     1      -2.771  -3.910  -2.053  0.00  0.00    -0.265 OA
ATOM      3  N   UNL     1      -1.810  -5.840  -2.578  0.00  0.00    -0.278 N 
ATOM      4  H   UNL     1      -0.994  -6.361  -2.653  0.00  0.00    +0.155 HD
ENDROOT
BRANCH   3   5
ATOM      5  C   UNL     1      -3.048  -6.442  -2.823  0.00  0.00    +0.038 A 
ATOM      6  C   UNL     1      -3.258  -7.769  -2.470  0.00  0.00    +0.027 A 
ATOM      7  C   UNL     1      -4.480  -8.366  -2.713  0.00  0.00    +0.051 A 
ATOM      8  C   UNL     1      -5.499  -7.642  -3.308  0.00  0.00    +0.167 A 
ATOM      9  C   UNL     1      -5.292  -6.308  -3.662  0.00  0.00    +0.169 A 
ATOM     10  C   UNL     1      -4.070  -5.710  -3.414  0.00  0.00    +0.073 A 
ATOM     11  O   UNL     1      -6.447  -5.828  -4.223  0.00  0.00    -0.447 OA
ATOM     12  C   UNL     1      -7.141  -7.011  -4.645  0.00  0.00    +0.254 C 
ATOM     13  O   UNL     1      -6.781  -7.985  -3.654  0.00  0.00    -0.448 OA
ATOM     14  C   UNL     1      -6.694  -7.449  -6.043  0.00  0.00    +0.093 C 
ATOM     15  C   UNL     1      -7.983  -8.028  -6.683  0.00  0.00    +0.008 C 
ATOM     16  C   UNL     1      -9.091  -7.091  -6.139  0.00  0.00    +0.008 C 
ATOM     17  C   UNL     1      -8.652  -6.788  -4.688  0.00  0.00    +0.093 C 
ENDBRANCH   3   5
BRANCH   1  19
ATOM     18  N   UNL     1      -0.362  -2.564  -1.746  0.00  0.00    -0.309 N 
ATOM     19  C   UNL     1      -0.423  -3.867  -2.086  0.00  0.00    +0.299 C 
ATOM     20  O   UNL     1       0.599  -4.494  -2.271  0.00  0.00    -0.265 OA
ATOM     21  H   UNL     1      -1.179  -2.063  -1.598  0.00  0.00    +0.149 HD
BRANCH  18  22
ATOM     22  C   UNL     1       0.938  -1.906  -1.598  0.00  0.00    +0.097 C 
BRANCH  22  23
ATOM     23  C   UNL     1       0.727  -0.414  -1.334  0.00  0.00    +0.016 C 
BRANCH  23  24
ATOM     24  C   UNL     1       0.050  -0.230   0.000  0.00  0.00    +0.093 A 
ATOM     25  C   UNL     1       0.659   0.109   1.151  0.00  0.00    +0.043 A 
ATOM     26  C   UNL     1      -0.347   0.169   2.143  0.00  0.00    +0.041 A 
ATOM     27  C   UNL     1      -1.509  -0.137   1.539  0.00  0.00    +0.195 A 
ATOM     28  O   UNL     1      -1.263  -0.372   0.240  0.00  0.00    -0.469 OA
ENDBRANCH  23  24
BRANCH  23  30
ATOM     29  C   UNL     1      -0.229   1.609  -2.200  0.00  0.00    -0.096 C 
ATOM     30  N   UNL     1      -0.115   0.157  -2.393  0.00  0.00    +0.384 N 
ATOM     31  C   UNL     1       0.492  -0.117  -3.703  0.00  0.00    -0.096 C 
ATOM     32  H   UNL     1      -1.033  -0.261  -2.354  0.00  0.00    -0.082 HD
ENDBRANCH  23  30
ENDBRANCH  22  23
ENDBRANCH  18  22
ENDBRANCH   1  19
TORSDOF 6
