REMARK  Name = ZINC12469499
REMARK  5 active torsions:
REMARK  status: ('A' for Active; 'I' for Inactive)
REMARK    1  A    between atoms: C_3  and  C_6
REMARK    2  A    between atoms: C_9  and  C_31
REMARK    3  A    between atoms: C_14  and  C_16
REMARK    4  A    between atoms: N_18  and  C_19
REMARK    5  A    between atoms: C_19  and  C_20
REMARK                            x       y       z     vdW  Elec       q    Type
REMARK                         _______ _______ _______ _____ _____    ______ ____
ROOT
ATOM      1  C   UNL     1       3.599   0.625  -0.029  0.00  0.00    +0.140 C 
ATOM      2  C   UNL     1       4.093   0.360  -1.456  0.00  0.00    +0.066 C 
ATOM      3  C   UNL     1       3.487  -0.944  -1.985  0.00  0.00    +0.215 C 
ATOM      4  N   UNL     1       3.692  -2.001  -0.990  0.00  0.00    -0.238 N 
ATOM      5  C   UNL     1       3.970  -1.759   0.326  0.00  0.00    +0.119 A 
ATOM      6  C   UNL     1       4.100  -2.945   0.952  0.00  0.00    +0.078 A 
ATOM      7  C   UNL     1       3.893  -3.960  -0.009  0.00  0.00    +0.149 A 
ATOM      8  N   UNL     1       3.649  -3.382  -1.172  0.00  0.00    -0.164 NA
ATOM      9  N   UNL     1       4.078  -0.462   0.847  0.00  0.00    -0.319 N 
ATOM     10  H   UNL     1       4.447  -0.287   1.727  0.00  0.00    +0.148 HD
ENDROOT
BRANCH   1  13
ATOM     11  C   UNL     1      -0.016   1.341   0.009  0.00  0.00    +0.041 A 
ATOM     12  C   UNL     1       1.331   1.769  -0.001  0.00  0.00    +0.046 A 
ATOM     13  C   UNL     1       2.092   0.660  -0.014  0.00  0.00    +0.125 A 
ATOM     14  O   UNL     1       1.282  -0.411  -0.012  0.00  0.00    -0.466 OA
ATOM     15  C   UNL     1       0.002  -0.004   0.002  0.00  0.00    +0.195 A 
ENDBRANCH   1  13
BRANCH   7  16
ATOM     16  C   UNL     1       3.942  -5.415   0.243  0.00  0.00    +0.264 C 
ATOM     17  O   UNL     1       4.177  -5.831   1.361  0.00  0.00    -0.268 OA
ATOM     18  N   UNL     1       3.726  -6.281  -0.767  0.00  0.00    -0.310 N 
ATOM     19  H   UNL     1       3.538  -5.949  -1.659  0.00  0.00    +0.149 HD
BRANCH  18  20
ATOM     20  C   UNL     1       3.774  -7.724  -0.517  0.00  0.00    +0.111 C 
BRANCH  20  21
ATOM     21  C   UNL     1       3.497  -8.476  -1.820  0.00  0.00    -0.013 C 
ATOM     22  C   UNL     1       4.555  -8.103  -2.860  0.00  0.00    +0.012 C 
ATOM     23  C   UNL     1       4.277  -8.856  -4.163  0.00  0.00    -0.010 C 
ATOM     24  C   UNL     1       4.327 -10.363  -3.902  0.00  0.00    +0.007 C 
ATOM     25  C   UNL     1       3.269 -10.736  -2.862  0.00  0.00    -0.010 C 
ATOM     26  C   UNL     1       3.547  -9.983  -1.559  0.00  0.00    +0.012 C 
ATOM     27  C   UNL     1       1.883 -10.355  -3.385  0.00  0.00    +0.007 C 
ATOM     28  C   UNL     1       1.832  -8.848  -3.646  0.00  0.00    -0.010 C 
ATOM     29  C   UNL     1       2.890  -8.475  -4.686  0.00  0.00    +0.007 C 
ATOM     30  C   UNL     1       2.110  -8.096  -2.343  0.00  0.00    +0.012 C 
ENDBRANCH  20  21
ENDBRANCH  18  20
ENDBRANCH   7  16
BRANCH   3  31
ATOM     31  C   UNL     1       4.172  -1.333  -3.297  0.00  0.00    +0.412 C 
ATOM     32  F   UNL     1       5.541  -1.513  -3.072  0.00  0.00    -0.168 F 
ATOM     33  F   UNL     1       3.618  -2.523  -3.778  0.00  0.00    -0.168 F 
ATOM     34  F   UNL     1       3.985  -0.316  -4.240  0.00  0.00    -0.168 F 
ENDBRANCH   3  31
TORSDOF 5
