REMARK  Name = ZINC36039561
REMARK  9 active torsions:
REMARK  status: ('A' for Active; 'I' for Inactive)
REMARK    1  A    between atoms: C_1  and  O_2
REMARK    2  A    between atoms: O_2  and  C_3
REMARK    3  A    between atoms: C_7  and  N_9
REMARK    4  A    between atoms: C_11  and  C_26
REMARK    5  A    between atoms: N_14  and  C_15
REMARK    6  A    between atoms: C_15  and  C_17
REMARK    7  A    between atoms: C_17  and  N_18
REMARK    8  A    between atoms: N_18  and  C_19
REMARK    9  A    between atoms: C_19  and  C_20
REMARK                            x       y       z     vdW  Elec       q    Type
REMARK                         _______ _______ _______ _____ _____    ______ ____
ROOT
ATOM      1  N   UNL     1       1.388  -4.024   2.213  0.00  0.00    -0.287 N 
ATOM      2  C   UNL     1       0.866  -4.897   1.280  0.00  0.00    +0.120 A 
ATOM      3  C   UNL     1       1.131  -6.151   1.687  0.00  0.00    +0.066 A 
ATOM      4  N   UNL     1       1.826  -6.071   2.888  0.00  0.00    -0.326 N 
ATOM      5  C   UNL     1       1.980  -4.757   3.194  0.00  0.00    +0.205 A 
ATOM      6  N   UNL     1       2.600  -4.271   4.269  0.00  0.00    -0.148 NA
ATOM      7  H   UNL     1       2.147  -6.821   3.413  0.00  0.00    +0.169 HD
ENDROOT
BRANCH   3   8
ATOM      8  C   UNL     1       0.749  -7.394   0.983  0.00  0.00    -0.000 A 
ATOM      9  C   UNL     1       0.053  -7.329  -0.225  0.00  0.00    +0.011 A 
ATOM     10  C   UNL     1      -0.300  -8.492  -0.877  0.00  0.00    +0.020 A 
ATOM     11  C   UNL     1       0.035  -9.722  -0.337  0.00  0.00    +0.041 A 
ATOM     12  C   UNL     1       0.726  -9.793   0.861  0.00  0.00    +0.020 A 
ATOM     13  C   UNL     1       1.089  -8.636   1.520  0.00  0.00    +0.011 A 
ATOM     14 CL   UNL     1      -0.412 -11.181  -1.164  0.00  0.00    -0.084 Cl
ENDBRANCH   3   8
BRANCH   1  19
ATOM     15  C   UNL     1       0.626  -0.618   1.042  0.00  0.00    +0.122 A 
ATOM     16  C   UNL     1       1.202   0.140   2.051  0.00  0.00    +0.046 A 
ATOM     17  C   UNL     1       1.837  -0.484   3.109  0.00  0.00    +0.006 A 
ATOM     18  C   UNL     1       1.900  -1.863   3.164  0.00  0.00    +0.026 A 
ATOM     19  C   UNL     1       1.325  -2.626   2.157  0.00  0.00    +0.053 A 
ATOM     20  C   UNL     1       0.682  -2.002   1.097  0.00  0.00    +0.071 A 
BRANCH  15  22
ATOM     21  C   UNL     1      -0.017   1.425   0.010  0.00  0.00    +0.277 C 
ATOM     22  O   UNL     1       0.002  -0.004   0.002  0.00  0.00    -0.495 OA
ENDBRANCH  15  22
ENDBRANCH   1  19
BRANCH   6  23
ATOM     23  C   UNL     1       3.139  -5.099   5.156  0.00  0.00    +0.222 C 
ATOM     24  O   UNL     1       3.067  -6.301   4.987  0.00  0.00    -0.276 OA
BRANCH  23  25
ATOM     25  C   UNL     1       3.840  -4.549   6.372  0.00  0.00    +0.017 C 
BRANCH  25  26
ATOM     26  N   UNL     1       4.345  -5.660   7.190  0.00  0.00    +0.387 N 
ATOM     27  H   UNL     1       3.573  -6.241   7.481  0.00  0.00    -0.085 HD
ATOM     28  H   UNL     1       4.994  -6.210   6.647  0.00  0.00    -0.085 HD
BRANCH  26  29
ATOM     29  C   UNL     1       5.028  -5.124   8.375  0.00  0.00    -0.046 C 
BRANCH  29  30
ATOM     30  C   UNL     1       5.546  -6.263   9.214  0.00  0.00    -0.064 A 
ATOM     31  C   UNL     1       4.750  -6.813  10.201  0.00  0.00    +0.002 A 
ATOM     32  C   UNL     1       5.225  -7.858  10.971  0.00  0.00    +0.000 A 
ATOM     33  C   UNL     1       6.497  -8.354  10.754  0.00  0.00    +0.000 A 
ATOM     34  C   UNL     1       7.293  -7.805   9.766  0.00  0.00    +0.000 A 
ATOM     35  C   UNL     1       6.816  -6.763   8.993  0.00  0.00    +0.002 A 
ENDBRANCH  29  30
ENDBRANCH  26  29
ENDBRANCH  25  26
ENDBRANCH  23  25
ENDBRANCH   6  23
TORSDOF 8
