REMARK  Name = ZINC35752916
REMARK  12 active torsions:
REMARK  status: ('A' for Active; 'I' for Inactive)
REMARK    1  A    between atoms: C_1  and  C_2
REMARK    2  A    between atoms: C_2  and  O_3
REMARK    3  A    between atoms: O_3  and  C_4
REMARK    4  A    between atoms: C_4  and  C_6
REMARK    5  A    between atoms: C_9  and  N_12
REMARK    6  A    between atoms: N_15  and  C_16
REMARK    7  A    between atoms: C_16  and  C_18
REMARK    8  A    between atoms: C_16  and  C_21
REMARK    9  A    between atoms: C_18  and  C_19
REMARK   10  A    between atoms: C_18  and  C_20
REMARK   11  A    between atoms: C_27  and  C_29
REMARK   12  A    between atoms: C_32  and  C_35
REMARK                            x       y       z     vdW  Elec       q    Type
REMARK                         _______ _______ _______ _____ _____    ______ ____
ROOT
ATOM      1  C   UNL     1       4.023  -7.524   7.341  0.00  0.00    +0.163 C 
ENDROOT
BRANCH   1   2
ATOM      2  C   UNL     1       5.102  -7.760   8.366  0.00  0.00    +0.239 C 
ATOM      3  O   UNL     1       5.957  -6.919   8.552  0.00  0.00    -0.273 OA
ATOM      4  N   UNL     1       5.117  -8.904   9.078  0.00  0.00    -0.262 N 
ATOM      5  C   UNL     1       6.047  -9.077  10.096  0.00  0.00    +0.188 A 
ATOM      6  N   UNL     1       6.982  -8.247  10.517  0.00  0.00    -0.125 NA
ATOM      7  N   UNL     1       7.763  -8.544  11.465  0.00  0.00    -0.140 NA
ATOM      8  C   UNL     1       7.636  -9.728  12.051  0.00  0.00    +0.134 A 
ATOM      9  S   UNL     1       6.268 -10.399  11.118  0.00  0.00    -0.030 S 
ATOM     10  H   UNL     1       4.479  -9.607   8.880  0.00  0.00    +0.157 HD
BRANCH   8  11
ATOM     11  C   UNL     1       8.406 -10.321  13.165  0.00  0.00    +0.009 A 
ATOM     12  C   UNL     1       8.099 -11.603  13.624  0.00  0.00    +0.011 A 
ATOM     13  C   UNL     1       8.821 -12.151  14.665  0.00  0.00    +0.004 A 
ATOM     14  C   UNL     1       9.848 -11.433  15.252  0.00  0.00    -0.050 A 
ATOM     15  C   UNL     1      10.156 -10.162  14.802  0.00  0.00    +0.004 A 
ATOM     16  C   UNL     1       9.446  -9.604  13.759  0.00  0.00    +0.011 A 
ATOM     17  C   UNL     1      10.632 -12.038  16.388  0.00  0.00    +0.044 C 
ENDBRANCH   8  11
ENDBRANCH   1   2
BRANCH   1  21
ATOM     18  N   UNL     1       4.343  -5.481   4.301  0.00  0.00    -0.269 N 
ATOM     19  C   UNL     1       3.944  -6.439   5.161  0.00  0.00    +0.304 C 
ATOM     20  O   UNL     1       3.121  -7.263   4.813  0.00  0.00    -0.252 OA
ATOM     21  N   UNL     1       4.457  -6.483   6.406  0.00  0.00    -0.288 N 
ATOM     22  H   UNL     1       5.050  -4.866   4.553  0.00  0.00    +0.156 HD
ATOM     23  H   UNL     1       5.114  -5.825   6.684  0.00  0.00    +0.151 HD
BRANCH  18  27
ATOM     24  C   UNL     1       2.543  -5.160   0.558  0.00  0.00    +0.059 A 
ATOM     25  C   UNL     1       2.780  -6.420   1.116  0.00  0.00    +0.017 A 
ATOM     26  C   UNL     1       3.375  -6.522   2.353  0.00  0.00    +0.024 A 
ATOM     27  C   UNL     1       3.741  -5.373   3.048  0.00  0.00    +0.035 A 
ATOM     28  C   UNL     1       3.506  -4.118   2.496  0.00  0.00    +0.024 A 
ATOM     29  C   UNL     1       2.916  -4.008   1.258  0.00  0.00    +0.017 A 
BRANCH  24  30
ATOM     30  C   UNL     1       1.906  -5.046  -0.767  0.00  0.00    +0.339 C 
ATOM     31  O   UNL     1       1.705  -3.950  -1.252  0.00  0.00    -0.245 OA
BRANCH  30  32
ATOM     32  O   UNL     1       1.547  -6.157  -1.439  0.00  0.00    -0.461 OA
BRANCH  32  34
ATOM     33  C   UNL     1       0.600  -7.337  -3.324  0.00  0.00    +0.048 C 
ATOM     34  C   UNL     1       0.935  -5.973  -2.717  0.00  0.00    +0.229 C 
ENDBRANCH  32  34
ENDBRANCH  30  32
ENDBRANCH  24  30
ENDBRANCH  18  27
ENDBRANCH   1  21
BRANCH   1  35
ATOM     35  C   UNL     1       2.740  -7.076   8.043  0.00  0.00    +0.012 C 
ATOM     36  C   UNL     1       2.974  -5.724   8.719  0.00  0.00    +0.009 C 
ATOM     37  C   UNL     1       1.615  -6.945   7.015  0.00  0.00    +0.009 C 
ENDBRANCH   1  35
TORSDOF 8
