REMARK  Name = ZINC36604412
REMARK  14 active torsions:
REMARK  status: ('A' for Active; 'I' for Inactive)
REMARK    1  A    between atoms: C_1  and  C_2
REMARK    2  A    between atoms: C_2  and  C_3
REMARK    3  A    between atoms: C_3  and  C_4
REMARK    4  A    between atoms: C_4  and  N_5
REMARK    5  A    between atoms: C_6  and  C_8
REMARK    6  A    between atoms: C_8  and  C_10
REMARK    7  A    between atoms: C_8  and  N_19
REMARK    8  A    between atoms: C_11  and  O_18
REMARK    9  A    between atoms: C_13  and  O_17
REMARK   10  A    between atoms: C_15  and  O_16
REMARK   11  A    between atoms: N_19  and  C_20
REMARK   12  A    between atoms: C_26  and  C_28
REMARK   13  A    between atoms: C_33  and  O_34
REMARK   14  A    between atoms: O_34  and  C_35
REMARK                            x       y       z     vdW  Elec       q    Type
REMARK                         _______ _______ _______ _____ _____    ______ ____
ROOT
ATOM      1  C   UNL     1       0.533  -4.602   4.521  0.00  0.00    +0.204 C 
ENDROOT
BRANCH   1   2
ATOM      2  C   UNL     1       0.689  -4.929   5.983  0.00  0.00    +0.065 A 
ATOM      3  C   UNL     1       0.883  -6.243   6.383  0.00  0.00    +0.129 A 
ATOM      4  C   UNL     1       1.026  -6.543   7.730  0.00  0.00    +0.091 A 
ATOM      5  C   UNL     1       0.976  -5.530   8.676  0.00  0.00    +0.124 A 
ATOM      6  C   UNL     1       0.783  -4.217   8.275  0.00  0.00    +0.091 A 
ATOM      7  C   UNL     1       0.644  -3.916   6.929  0.00  0.00    +0.129 A 
BRANCH   7   8
ATOM      8  O   UNL     1       0.460  -2.628   6.536  0.00  0.00    -0.506 OA
ATOM      9  H   UNL     1      -0.468  -2.359   6.492  0.00  0.00    +0.292 HD
ENDBRANCH   7   8
BRANCH   5  10
ATOM     10  O   UNL     1       1.116  -5.825   9.995  0.00  0.00    -0.507 OA
ATOM     11  H   UNL     1       2.031  -5.803  10.308  0.00  0.00    +0.292 HD
ENDBRANCH   5  10
BRANCH   3  12
ATOM     12  O   UNL     1       0.932  -7.235   5.457  0.00  0.00    -0.506 OA
ATOM     13  H   UNL     1       1.829  -7.487   5.197  0.00  0.00    +0.292 HD
ENDBRANCH   3  12
ENDBRANCH   1   2
BRANCH   1  15
ATOM     14  N   UNL     1      -1.690  -3.555   4.242  0.00  0.00    -0.313 N 
ATOM     15  C   UNL     1      -0.925  -4.660   4.146  0.00  0.00    +0.239 C 
ATOM     16  O   UNL     1      -1.411  -5.701   3.757  0.00  0.00    -0.273 OA
ATOM     17  H   UNL     1      -1.302  -2.722   4.553  0.00  0.00    +0.149 HD
BRANCH  14  18
ATOM     18  C   UNL     1      -3.108  -3.611   3.878  0.00  0.00    +0.104 C 
BRANCH  18  19
ATOM     19  C   UNL     1      -3.741  -2.232   4.077  0.00  0.00    +0.018 C 
BRANCH  19  21
ATOM     20  C   UNL     1      -5.855  -0.912   3.896  0.00  0.00    +0.004 C 
ATOM     21  C   UNL     1      -5.222  -2.291   3.697  0.00  0.00    -0.002 C 
ENDBRANCH  19  21
ENDBRANCH  18  19
ENDBRANCH  14  18
ENDBRANCH   1  15
BRANCH   1  22
ATOM     22  N   UNL     1       1.282  -5.575   3.720  0.00  0.00    -0.251 N 
ATOM     23  C   UNL     1       2.570  -5.841   4.015  0.00  0.00    +0.255 C 
ATOM     24  O   UNL     1       3.239  -6.519   3.260  0.00  0.00    -0.269 OA
BRANCH  22  25
ATOM     25  C   UNL     1       0.660  -6.227   2.651  0.00  0.00    +0.038 A 
ATOM     26  C   UNL     1       0.624  -5.629   1.397  0.00  0.00    +0.023 A 
ATOM     27  C   UNL     1       0.010  -6.276   0.343  0.00  0.00    +0.002 A 
ATOM     28  C   UNL     1      -0.569  -7.517   0.534  0.00  0.00    +0.000 A 
ATOM     29  C   UNL     1      -0.534  -8.115   1.781  0.00  0.00    +0.002 A 
ATOM     30  C   UNL     1       0.083  -7.476   2.838  0.00  0.00    +0.023 A 
ENDBRANCH  22  25
BRANCH  23  31
ATOM     31  C   UNL     1       3.168  -5.309   5.254  0.00  0.00    +0.079 A 
ATOM     32  C   UNL     1       2.671  -4.135   5.827  0.00  0.00    +0.017 A 
ATOM     33  C   UNL     1       3.234  -3.644   6.984  0.00  0.00    +0.001 A 
ATOM     34  C   UNL     1       4.291  -4.309   7.584  0.00  0.00    +0.004 A 
ATOM     35  C   UNL     1       4.792  -5.470   7.030  0.00  0.00    +0.046 A 
ATOM     36  C   UNL     1       4.233  -5.982   5.868  0.00  0.00    +0.132 A 
BRANCH  36  37
ATOM     37  O   UNL     1       4.720  -7.125   5.325  0.00  0.00    -0.494 OA
ATOM     38  C   UNL     1       5.807  -7.756   6.005  0.00  0.00    +0.277 C 
ENDBRANCH  36  37
ENDBRANCH  23  31
ENDBRANCH   1  22
TORSDOF 12
