REMARK  Name = ZINC15954761
REMARK  8 active torsions:
REMARK  status: ('A' for Active; 'I' for Inactive)
REMARK    1  A    between atoms: C_6  and  O_7
REMARK    2  A    between atoms: O_7  and  C_8
REMARK    3  A    between atoms: C_8  and  C_9
REMARK    4  A    between atoms: N_11  and  C_12
REMARK    5  A    between atoms: C_12  and  C_13
REMARK    6  A    between atoms: N_15  and  C_16
REMARK    7  A    between atoms: C_16  and  C_17
REMARK    8  A    between atoms: C_22  and  O_30
REMARK                            x       y       z     vdW  Elec       q    Type
REMARK                         _______ _______ _______ _____ _____    ______ ____
ROOT
ATOM      1  C   UNL     1      -3.560  -0.854   0.032  0.00  0.00    +0.251 C 
ATOM      2  O   UNL     1      -3.390  -2.055   0.024  0.00  0.00    -0.272 OA
ATOM      3  N   UNL     1      -4.809  -0.350   0.047  0.00  0.00    -0.304 N 
ATOM      4  H   UNL     1      -4.945   0.611   0.053  0.00  0.00    +0.149 HD
ENDROOT
BRANCH   1   5
ATOM      5  C   UNL     1      -2.373   0.074   0.026  0.00  0.00    +0.324 C 
BRANCH   5   6
ATOM      6  O   UNL     1      -1.167  -0.693   0.010  0.00  0.00    -0.483 OA
BRANCH   6  12
ATOM      7  C   UNL     1      -0.017   1.389   0.010  0.00  0.00    +0.046 A 
ATOM      8  C   UNL     1       1.150   2.097   0.002  0.00  0.00    +0.015 A 
ATOM      9  C   UNL     1       2.374   1.418  -0.013  0.00  0.00    +0.021 A 
ATOM     10  C   UNL     1       2.399   0.012  -0.021  0.00  0.00    +0.143 A 
ATOM     11  C   UNL     1       1.205  -0.692  -0.013  0.00  0.00    +0.092 A 
ATOM     12  C   UNL     1       0.002  -0.004   0.002  0.00  0.00    +0.125 A 
ATOM     13  O   UNL     1       3.584  -0.634  -0.038  0.00  0.00    -0.422 OA
ATOM     14  C   UNL     1       4.744   0.037  -0.034  0.00  0.00    +0.341 A 
ATOM     15  O   UNL     1       5.788  -0.590  -0.037  0.00  0.00    -0.245 OA
ATOM     16  C   UNL     1       4.795   1.453  -0.027  0.00  0.00    +0.041 A 
ATOM     17  C   UNL     1       3.643   2.158  -0.022  0.00  0.00    -0.027 A 
ATOM     18  C   UNL     1       3.597   3.661  -0.034  0.00  0.00    +0.036 C 
ATOM     19  C   UNL     1       4.945   4.244   0.386  0.00  0.00    +0.005 C 
ATOM     20  C   UNL     1       6.041   3.572  -0.450  0.00  0.00    +0.005 C 
ATOM     21  C   UNL     1       6.149   2.112  -0.018  0.00  0.00    +0.042 C 
ENDBRANCH   6  12
ENDBRANCH   5   6
ENDBRANCH   1   5
BRANCH   3  22
ATOM     22  C   UNL     1      -5.963  -1.252   0.053  0.00  0.00    +0.200 C 
BRANCH  22  23
ATOM     23  C   UNL     1      -7.234  -0.443   0.070  0.00  0.00    +0.231 C 
ATOM     24  O   UNL     1      -7.181   0.769   0.076  0.00  0.00    -0.274 OA
ATOM     25  N   UNL     1      -8.430  -1.065   0.078  0.00  0.00    -0.305 N 
ATOM     26  H   UNL     1      -8.472  -2.034   0.074  0.00  0.00    +0.149 HD
BRANCH  25  27
ATOM     27  C   UNL     1      -9.665  -0.278   0.095  0.00  0.00    +0.200 C 
BRANCH  27  28
ATOM     28  C   UNL     1     -10.852  -1.207   0.101  0.00  0.00    +0.233 C 
ATOM     29  O   UNL     1     -10.683  -2.408   0.093  0.00  0.00    -0.274 OA
ATOM     30  N   UNL     1     -12.102  -0.703   0.116  0.00  0.00    -0.300 N 
ATOM     31  C   UNL     1     -12.324   0.750   0.120  0.00  0.00    +0.110 C 
ATOM     32  C   UNL     1     -13.233   1.105   1.301  0.00  0.00    +0.054 C 
ATOM     33  C   UNL     1     -14.517   0.275   1.221  0.00  0.00    +0.072 C 
ATOM     34  C   UNL     1     -15.435   0.655   2.385  0.00  0.00    +0.035 C 
ATOM     35  C   UNL     1     -16.719  -0.174   2.317  0.00  0.00    +0.003 C 
ATOM     36  C   UNL     1     -16.370  -1.661   2.409  0.00  0.00    +0.001 C 
ATOM     37  C   UNL     1     -15.456  -2.042   1.243  0.00  0.00    +0.008 C 
ATOM     38  C   UNL     1     -14.171  -1.214   1.308  0.00  0.00    +0.038 C 
ATOM     39  C   UNL     1     -13.270  -1.594   0.123  0.00  0.00    +0.114 C 
BRANCH  33  40
ATOM     40  O   UNL     1     -15.180   0.539  -0.017  0.00  0.00    -0.388 OA
ATOM     41  H   UNL     1     -15.431   1.465  -0.139  0.00  0.00    +0.210 HD
ENDBRANCH  33  40
ENDBRANCH  27  28
ENDBRANCH  25  27
ENDBRANCH  22  23
ENDBRANCH   3  22
TORSDOF 8
