REMARK  Name = ZINC39694227
REMARK  5 active torsions:
REMARK  status: ('A' for Active; 'I' for Inactive)
REMARK    1  A    between atoms: N_4  and  C_6
REMARK    2  A    between atoms: C_10  and  C_12
REMARK    3  A    between atoms: C_12  and  N_13
REMARK    4  A    between atoms: C_14  and  C_16
REMARK    5  A    between atoms: C_27  and  C_29
REMARK                            x       y       z     vdW  Elec       q    Type
REMARK                         _______ _______ _______ _____ _____    ______ ____
ROOT
ATOM      1  C   UNL     1      -1.270  -6.970   3.002  0.00  0.00    +0.100 C 
ATOM      2  C   UNL     1      -1.821  -5.752   3.776  0.00  0.00    +0.121 C 
ATOM      3  N   UNL     1      -3.294  -5.875   3.668  0.00  0.00    -0.296 N 
ATOM      4  C   UNL     1      -3.554  -7.327   3.807  0.00  0.00    +0.115 C 
ATOM      5  C   UNL     1      -2.409  -8.003   3.027  0.00  0.00    -0.004 C 
ATOM      6  C   UNL     1      -1.956  -9.271   3.745  0.00  0.00    -0.010 C 
ATOM      7  C   UNL     1      -3.085 -10.305   3.707  0.00  0.00    -0.082 C 
ATOM      8  N   UNL     1      -3.429 -10.605   2.312  0.00  0.00    +0.379 N 
ATOM      9  C   UNL     1      -3.951  -9.400   1.655  0.00  0.00    -0.082 C 
ATOM     10  C   UNL     1      -2.859  -8.328   1.606  0.00  0.00    -0.010 C 
ATOM     11  C   UNL     1      -4.193  -4.888   3.484  0.00  0.00    +0.252 C 
ATOM     12  O   UNL     1      -5.378  -5.151   3.415  0.00  0.00    -0.270 OA
ATOM     13  H   UNL     1      -2.604 -10.921   1.824  0.00  0.00    -0.086 HD
ATOM     14  H   UNL     1      -4.130 -11.330   2.288  0.00  0.00    -0.086 HD
ENDROOT
BRANCH  11  15
ATOM     15  C   UNL     1      -3.740  -3.489   3.366  0.00  0.00    +0.108 A 
ATOM     16  C   UNL     1      -3.430  -2.953   2.112  0.00  0.00    +0.138 A 
ATOM     17  C   UNL     1      -3.007  -1.641   2.010  0.00  0.00    +0.041 A 
ATOM     18  C   UNL     1      -2.888  -0.858   3.144  0.00  0.00    +0.026 A 
ATOM     19  C   UNL     1      -3.192  -1.380   4.389  0.00  0.00    +0.077 A 
ATOM     20  C   UNL     1      -3.623  -2.689   4.508  0.00  0.00    +0.156 A 
ATOM     21  F   UNL     1      -3.925  -3.196   5.724  0.00  0.00    -0.203 F 
ATOM     22 CL   UNL     1      -3.039  -0.387   5.805  0.00  0.00    -0.081 Cl
ATOM     23  F   UNL     1      -3.545  -3.716   1.002  0.00  0.00    -0.205 F 
ENDBRANCH  11  15
BRANCH   1  25
ATOM     24  N   UNL     1       0.025  -7.240   0.911  0.00  0.00    -0.311 N 
ATOM     25  C   UNL     1      -0.943  -6.585   1.582  0.00  0.00    +0.218 C 
ATOM     26  O   UNL     1      -1.550  -5.684   1.043  0.00  0.00    -0.275 OA
ATOM     27  H   UNL     1       0.511  -7.961   1.342  0.00  0.00    +0.149 HD
BRANCH  24  28
ATOM     28  C   UNL     1       0.343  -6.866  -0.469  0.00  0.00    +0.139 C 
BRANCH  28  33
ATOM     29  C   UNL     1       3.790  -8.174  -1.299  0.00  0.00    +0.046 A 
ATOM     30  C   UNL     1       3.484  -9.367  -1.939  0.00  0.00    +0.026 A 
ATOM     31  C   UNL     1       2.165  -9.745  -2.099  0.00  0.00    +0.002 A 
ATOM     32  C   UNL     1       1.150  -8.935  -1.623  0.00  0.00    +0.005 A 
ATOM     33  C   UNL     1       1.452  -7.745  -0.986  0.00  0.00    -0.028 A 
ATOM     34  C   UNL     1       2.769  -7.366  -0.817  0.00  0.00    +0.031 A 
BRANCH  29  38
ATOM     35  C   UNL     1       6.906  -6.628  -0.562  0.00  0.00    +0.019 A 
ATOM     36  C   UNL     1       7.325  -7.801  -1.222  0.00  0.00    +0.019 A 
ATOM     37  C   UNL     1       6.218  -8.492  -1.562  0.00  0.00    +0.091 A 
ATOM     38  N   UNL     1       5.128  -7.788  -1.135  0.00  0.00    -0.323 N 
ATOM     39  C   UNL     1       5.558  -6.646  -0.522  0.00  0.00    +0.091 A 
ENDBRANCH  29  38
ENDBRANCH  28  33
ENDBRANCH  24  28
ENDBRANCH   1  25
TORSDOF 5
