REMARK  Name = ZINC41517615
REMARK  8 active torsions:
REMARK  status: ('A' for Active; 'I' for Inactive)
REMARK    1  A    between atoms: C_1  and  C_2
REMARK    2  A    between atoms: C_12  and  C_15
REMARK    3  A    between atoms: C_15  and  N_16
REMARK    4  A    between atoms: C_17  and  C_19
REMARK    5  A    between atoms: N_21  and  C_22
REMARK    6  A    between atoms: C_25  and  C_28
REMARK    7  A    between atoms: C_28  and  C_29
REMARK    8  A    between atoms: C_28  and  C_30
REMARK                            x       y       z     vdW  Elec       q    Type
REMARK                         _______ _______ _______ _____ _____    ______ ____
ROOT
ATOM      1  N   UNL     1      -3.362  -5.812  -4.359  0.00  0.00    -0.303 N 
ATOM      2  C   UNL     1      -3.821  -6.657  -5.303  0.00  0.00    +0.300 C 
ATOM      3  O   UNL     1      -4.908  -7.182  -5.171  0.00  0.00    -0.265 OA
ATOM      4  H   UNL     1      -2.494  -5.393  -4.464  0.00  0.00    +0.149 HD
ENDROOT
BRANCH   2   5
ATOM      5  C   UNL     1      -2.994  -6.948  -6.512  0.00  0.00    +0.303 C 
ATOM      6  O   UNL     1      -1.907  -6.423  -6.644  0.00  0.00    -0.265 OA
ATOM      7  N   UNL     1      -3.454  -7.792  -7.456  0.00  0.00    -0.278 N 
ATOM      8  H   UNL     1      -4.353  -8.150  -7.390  0.00  0.00    +0.155 HD
BRANCH   7   9
ATOM      9  C   UNL     1      -2.635  -8.153  -8.529  0.00  0.00    +0.034 A 
ATOM     10  C   UNL     1      -3.188  -8.363  -9.787  0.00  0.00    +0.023 A 
ATOM     11  C   UNL     1      -2.376  -8.720 -10.845  0.00  0.00    +0.006 A 
ATOM     12  C   UNL     1      -1.014  -8.867 -10.655  0.00  0.00    -0.045 A 
ATOM     13  C   UNL     1      -0.461  -8.659  -9.405  0.00  0.00    +0.006 A 
ATOM     14  C   UNL     1      -1.266  -8.297  -8.343  0.00  0.00    +0.023 A 
BRANCH  12  15
ATOM     15  C   UNL     1      -0.131  -9.256 -11.812  0.00  0.00    +0.013 C 
ATOM     16  C   UNL     1       0.914  -8.163 -12.047  0.00  0.00    +0.012 C 
ATOM     17  C   UNL     1       0.575 -10.576 -11.495  0.00  0.00    +0.012 C 
ENDBRANCH  12  15
ENDBRANCH   7   9
ENDBRANCH   2   5
BRANCH   1  18
ATOM     18  C   UNL     1      -4.173  -5.527  -3.173  0.00  0.00    +0.141 C 
BRANCH  18  29
ATOM     19  C   UNL     1       0.007   1.485   0.043  0.00  0.00    +0.039 C 
ATOM     20  C   UNL     1       0.024  -0.045   0.031  0.00  0.00    +0.132 C 
ATOM     21  C   UNL     1      -1.415  -0.573   0.043  0.00  0.00    +0.137 C 
ATOM     22  N   UNL     1      -1.371  -2.034   0.220  0.00  0.00    -0.312 N 
ATOM     23  C   UNL     1      -0.562  -2.572   1.325  0.00  0.00    +0.134 C 
ATOM     24  C   UNL     1       0.835  -1.947   1.250  0.00  0.00    +0.179 C 
ATOM     25  O   UNL     1       0.712  -0.524   1.189  0.00  0.00    -0.374 OA
ATOM     26  C   UNL     1      -2.074  -2.879  -0.630  0.00  0.00    +0.099 A 
ATOM     27  C   UNL     1      -2.915  -2.339  -1.599  0.00  0.00    +0.042 A 
ATOM     28  C   UNL     1      -3.609  -3.192  -2.438  0.00  0.00    +0.010 A 
ATOM     29  C   UNL     1      -3.438  -4.561  -2.281  0.00  0.00    -0.014 A 
ATOM     30  C   UNL     1      -2.587  -5.027  -1.299  0.00  0.00    +0.089 A 
ATOM     31  N   UNL     1      -1.934  -4.190  -0.516  0.00  0.00    -0.349 N 
ATOM     32  H   UNL     1      -1.339  -4.545   0.164  0.00  0.00    +0.167 HD
ENDBRANCH  18  29
ENDBRANCH   1  18
TORSDOF 5
