REMARK  Name = ZINC46658244
REMARK  9 active torsions:
REMARK  status: ('A' for Active; 'I' for Inactive)
REMARK    1  A    between atoms: C_1  and  C_2
REMARK    2  A    between atoms: C_2  and  C_4
REMARK    3  A    between atoms: C_2  and  N_14
REMARK    4  A    between atoms: C_15  and  C_17
REMARK    5  A    between atoms: C_17  and  O_18
REMARK    6  A    between atoms: O_18  and  C_19
REMARK    7  A    between atoms: C_19  and  C_21
REMARK    8  A    between atoms: C_24  and  S_26
REMARK    9  A    between atoms: S_26  and  N_29
REMARK                            x       y       z     vdW  Elec       q    Type
REMARK                         _______ _______ _______ _____ _____    ______ ____
ROOT
ATOM      1  N   UNL     1       0.764  -0.483  -1.154  0.00  0.00    -0.306 N 
ATOM      2  C   UNL     1       2.096  -0.661  -1.056  0.00  0.00    +0.251 C 
ATOM      3  O   UNL     1       2.665  -0.424  -0.011  0.00  0.00    -0.272 OA
ATOM      4  H   UNL     1       0.309  -0.673  -1.990  0.00  0.00    +0.149 HD
ENDROOT
BRANCH   1   6
ATOM      5  C   UNL     1       0.007   1.526   0.017  0.00  0.00    +0.033 C 
ATOM      6  C   UNL     1       0.002  -0.004   0.002  0.00  0.00    +0.101 C 
BRANCH   6   7
ATOM      7  C   UNL     1      -1.418  -0.500  -0.091  0.00  0.00    -0.020 A 
ATOM      8  C   UNL     1      -1.970  -0.769  -1.306  0.00  0.00    +0.006 A 
ATOM      9  C   UNL     1      -3.281  -1.229  -1.412  0.00  0.00    +0.001 A 
ATOM     10  C   UNL     1      -4.048  -1.422  -0.304  0.00  0.00    +0.008 A 
ATOM     11  C   UNL     1      -3.512  -1.155   0.967  0.00  0.00    -0.018 A 
ATOM     12  C   UNL     1      -2.176  -0.694   1.075  0.00  0.00    -0.013 A 
ATOM     13  C   UNL     1      -1.639  -0.432   2.348  0.00  0.00    +0.009 A 
ATOM     14  C   UNL     1      -2.404  -0.631   3.455  0.00  0.00    +0.001 A 
ATOM     15  C   UNL     1      -3.715  -1.091   3.349  0.00  0.00    +0.001 A 
ATOM     16  C   UNL     1      -4.273  -1.342   2.134  0.00  0.00    +0.008 A 
ENDBRANCH   6   7
ENDBRANCH   1   6
BRANCH   2  17
ATOM     17  C   UNL     1       2.880  -1.154  -2.245  0.00  0.00    +0.328 C 
BRANCH  17  18
ATOM     18  O   UNL     1       4.261  -1.260  -1.894  0.00  0.00    -0.450 OA
BRANCH  18  19
ATOM     19  C   UNL     1       5.106  -1.691  -2.854  0.00  0.00    +0.375 C 
ATOM     20  O   UNL     1       4.679  -1.969  -3.959  0.00  0.00    -0.241 OA
BRANCH  19  21
ATOM     21  C   UNL     1       6.535  -1.825  -2.566  0.00  0.00    +0.214 A 
ATOM     22  C   UNL     1       7.496  -2.242  -3.443  0.00  0.00    +0.059 A 
ATOM     23  C   UNL     1       8.715  -2.217  -2.749  0.00  0.00    +0.072 A 
ATOM     24  C   UNL     1       8.449  -1.791  -1.494  0.00  0.00    +0.258 A 
ATOM     25  O   UNL     1       7.136  -1.551  -1.389  0.00  0.00    -0.430 OA
BRANCH  24  26
ATOM     26  S   UNL     1       9.636  -1.581  -0.209  0.00  0.00    +0.089 S 
ATOM     27  O   UNL     1       8.928  -1.677   1.019  0.00  0.00    -0.150 OA
ATOM     28  O   UNL     1      10.731  -2.430  -0.525  0.00  0.00    -0.150 OA
BRANCH  26  29
ATOM     29  N   UNL     1      10.198  -0.027  -0.311  0.00  0.00    -0.201 NA
ATOM     30  H   UNL     1      10.496   0.435   0.489  0.00  0.00    +0.144 HD
ATOM     31  H   UNL     1      10.230   0.422  -1.170  0.00  0.00    +0.144 HD
ENDBRANCH  26  29
ENDBRANCH  24  26
ENDBRANCH  19  21
ENDBRANCH  18  19
ENDBRANCH  17  18
ENDBRANCH   2  17
TORSDOF 8
