REMARK  Name = ZINC13064149
REMARK  13 active torsions:
REMARK  status: ('A' for Active; 'I' for Inactive)
REMARK    1  A    between atoms: C_1  and  C_2
REMARK    2  A    between atoms: C_2  and  C_3
REMARK    3  A    between atoms: C_3  and  C_5
REMARK    4  A    between atoms: C_3  and  N_70
REMARK    5  A    between atoms: N_9  and  C_10
REMARK    6  A    between atoms: C_10  and  C_11
REMARK    7  A    between atoms: C_18  and  C_19
REMARK    8  A    between atoms: C_18  and  N_70
REMARK    9  A    between atoms: C_22  and  C_25
REMARK   10  A    between atoms: C_26  and  C_27
REMARK   11  A    between atoms: C_26  and  N_70
REMARK   12  A    between atoms: C_31  and  O_39
REMARK   13  A    between atoms: O_39  and  C_40
REMARK                            x       y       z     vdW  Elec       q    Type
REMARK                         _______ _______ _______ _____ _____    ______ ____
ROOT
ATOM      1  N   UNL     1       0.861   4.147  -1.166  0.00  0.00    +0.392 N 
ATOM      2  H   UNL     1      -0.044   4.578  -0.946  0.00  0.00    -0.080 HD
ENDROOT
BRANCH   1   3
ATOM      3  C   UNL     1       1.108   3.039  -0.218  0.00  0.00    +0.003 C 
BRANCH   3   4
ATOM      4  C   UNL     1       0.139   1.921  -0.503  0.00  0.00    +0.138 A 
ATOM      5  N   UNL     1      -1.144   2.041  -0.747  0.00  0.00    -0.115 NA
ATOM      6  N   UNL     1      -1.623   0.861  -0.941  0.00  0.00    -0.023 NA
ATOM      7  N   UNL     1      -0.680  -0.008  -0.828  0.00  0.00    -0.044 NA
ATOM      8  N   UNL     1       0.422   0.607  -0.558  0.00  0.00    -0.226 N 
BRANCH   8   9
ATOM      9  C   UNL     1       1.734  -0.010  -0.350  0.00  0.00    +0.182 C 
BRANCH   9  10
ATOM     10  C   UNL     1       2.459  -0.105  -1.668  0.00  0.00    -0.026 A 
ATOM     11  C   UNL     1       2.316  -1.232  -2.456  0.00  0.00    +0.008 A 
ATOM     12  C   UNL     1       2.977  -1.318  -3.667  0.00  0.00    +0.038 A 
ATOM     13  C   UNL     1       3.789  -0.278  -4.087  0.00  0.00    +0.123 A 
ATOM     14  C   UNL     1       3.935   0.848  -3.295  0.00  0.00    +0.038 A 
ATOM     15  C   UNL     1       3.270   0.934  -2.087  0.00  0.00    +0.008 A 
ATOM     16  F   UNL     1       4.439  -0.363  -5.268  0.00  0.00    -0.205 F 
ENDBRANCH   9  10
ENDBRANCH   8   9
ENDBRANCH   3   4
BRANCH   3  18
ATOM     17  C   UNL     1       1.251   2.451   2.206  0.00  0.00    +0.002 C 
ATOM     18  C   UNL     1       0.890   3.552   1.207  0.00  0.00    -0.011 C 
ENDBRANCH   3  18
ENDBRANCH   1   3
BRANCH   1  19
ATOM     19  C   UNL     1       0.823   3.628  -2.549  0.00  0.00    -0.042 C 
BRANCH  19  20
ATOM     20  C   UNL     1       0.150   4.650  -3.429  0.00  0.00    -0.064 A 
ATOM     21  C   UNL     1      -1.230   4.700  -3.498  0.00  0.00    +0.002 A 
ATOM     22  C   UNL     1      -1.848   5.639  -4.302  0.00  0.00    +0.003 A 
ATOM     23  C   UNL     1      -1.087   6.522  -5.044  0.00  0.00    -0.050 A 
ATOM     24  C   UNL     1       0.293   6.469  -4.979  0.00  0.00    +0.003 A 
ATOM     25  C   UNL     1       0.911   5.532  -4.172  0.00  0.00    +0.002 A 
ATOM     26  C   UNL     1      -1.760   7.543  -5.924  0.00  0.00    +0.044 C 
ENDBRANCH  19  20
ENDBRANCH   1  19
BRANCH   1  27
ATOM     27  C   UNL     1       1.923   5.167  -1.037  0.00  0.00    -0.036 C 
BRANCH  27  28
ATOM     28  C   UNL     1       3.279   4.551  -1.267  0.00  0.00    +0.001 A 
ATOM     29  C   UNL     1       3.834   4.582  -2.503  0.00  0.00    +0.017 A 
ATOM     30  C   UNL     1       5.153   3.975  -2.694  0.00  0.00    +0.002 A 
ATOM     31  C   UNL     1       5.775   3.978  -3.947  0.00  0.00    +0.055 A 
ATOM     32  C   UNL     1       7.019   3.397  -4.091  0.00  0.00    +0.121 A 
ATOM     33  C   UNL     1       7.652   2.810  -2.998  0.00  0.00    +0.047 A 
ATOM     34  C   UNL     1       7.050   2.802  -1.759  0.00  0.00    +0.030 A 
ATOM     35  C   UNL     1       5.797   3.382  -1.592  0.00  0.00    +0.049 A 
ATOM     36  N   UNL     1       5.177   3.383  -0.359  0.00  0.00    -0.322 N 
ATOM     37  H   UNL     1       5.621   2.974   0.400  0.00  0.00    +0.169 HD
ATOM     38  C   UNL     1       3.968   3.949  -0.193  0.00  0.00    +0.251 A 
ATOM     39  O   UNL     1       3.453   3.936   0.912  0.00  0.00    -0.268 OA
BRANCH  32  40
ATOM     40  O   UNL     1       7.628   3.396  -5.306  0.00  0.00    -0.495 OA
ATOM     41  C   UNL     1       8.914   2.778  -5.387  0.00  0.00    +0.277 C 
ENDBRANCH  32  40
ENDBRANCH  27  28
ENDBRANCH   1  27
TORSDOF 10
