REMARK  Name = ZINC45681509
REMARK  16 active torsions:
REMARK  status: ('A' for Active; 'I' for Inactive)
REMARK    1  A    between atoms: C_1  and  C_2
REMARK    2  A    between atoms: C_2  and  C_3
REMARK    3  A    between atoms: C_3  and  C_4
REMARK    4  A    between atoms: C_4  and  N_5
REMARK    5  A    between atoms: N_5  and  C_6
REMARK    6  A    between atoms: C_7  and  N_19
REMARK    7  A    between atoms: N_8  and  C_15
REMARK    8  A    between atoms: C_15  and  C_16
REMARK    9  A    between atoms: C_16  and  C_17
REMARK   10  A    between atoms: C_16  and  C_18
REMARK   11  A    between atoms: C_20  and  C_22
REMARK   12  A    between atoms: C_22  and  N_23
REMARK   13  A    between atoms: N_26  and  C_29
REMARK   14  A    between atoms: C_29  and  C_31
REMARK   15  A    between atoms: C_29  and  C_32
REMARK   16  A    between atoms: N_34  and  C_35
REMARK                            x       y       z     vdW  Elec       q    Type
REMARK                         _______ _______ _______ _____ _____    ______ ____
ROOT
ATOM      1  N   UNL     1      -2.373  -4.679   0.611  0.00  0.00    -0.263 N 
ATOM      2  C   UNL     1      -2.992  -4.541   1.802  0.00  0.00    +0.234 C 
ATOM      3  O   UNL     1      -4.178  -4.777   1.900  0.00  0.00    -0.274 OA
ENDROOT
BRANCH   1   4
ATOM      4  C   UNL     1      -3.123  -4.993  -0.542  0.00  0.00    +0.140 A 
ATOM      5  C   UNL     1      -3.005  -6.230  -1.142  0.00  0.00    +0.127 A 
ATOM      6  N   UNL     1      -3.749  -6.506  -2.265  0.00  0.00    -0.280 N 
ATOM      7  C   UNL     1      -4.583  -5.580  -2.773  0.00  0.00    +0.331 A 
ATOM      8  O   UNL     1      -5.232  -5.844  -3.768  0.00  0.00    -0.246 OA
ATOM      9  N   UNL     1      -4.711  -4.370  -2.203  0.00  0.00    -0.273 N 
ATOM     10  H   UNL     1      -5.319  -3.720  -2.588  0.00  0.00    +0.173 HD
ATOM     11  C   UNL     1      -4.009  -4.051  -1.098  0.00  0.00    +0.277 A 
ATOM     12  O   UNL     1      -4.137  -2.952  -0.585  0.00  0.00    -0.266 OA
BRANCH   5  13
ATOM     13  N   UNL     1      -2.152  -7.175  -0.623  0.00  0.00    -0.343 N 
ATOM     14  H   UNL     1      -1.629  -6.974   0.169  0.00  0.00    +0.144 HD
ATOM     15  H   UNL     1      -2.074  -8.043  -1.048  0.00  0.00    +0.144 HD
ENDBRANCH   5  13
BRANCH   6  16
ATOM     16  C   UNL     1      -3.633  -7.815  -2.912  0.00  0.00    +0.131 C 
BRANCH  16  17
ATOM     17  C   UNL     1      -4.659  -8.776  -2.306  0.00  0.00    +0.003 C 
ATOM     18  C   UNL     1      -4.624 -10.104  -3.065  0.00  0.00    +0.009 C 
ATOM     19  C   UNL     1      -4.322  -9.020  -0.834  0.00  0.00    +0.009 C 
ENDBRANCH  16  17
ENDBRANCH   6  16
ENDBRANCH   1   4
BRANCH   1  20
ATOM     20  C   UNL     1      -0.922  -4.504   0.515  0.00  0.00    +0.114 C 
BRANCH  20  21
ATOM     21  C   UNL     1      -0.606  -3.051   0.154  0.00  0.00    +0.019 C 
BRANCH  21  23
ATOM     22  C   UNL     1       1.225  -1.415  -0.307  0.00  0.00    +0.004 C 
ATOM     23  C   UNL     1       0.910  -2.868   0.054  0.00  0.00    -0.002 C 
ENDBRANCH  21  23
ENDBRANCH  20  21
ENDBRANCH   1  20
BRANCH   2  24
ATOM     24  C   UNL     1      -2.211  -4.094   3.010  0.00  0.00    +0.181 C 
BRANCH  24  25
ATOM     25  N   UNL     1      -3.106  -4.022   4.173  0.00  0.00    -0.298 NA
ATOM     26  C   UNL     1      -4.109  -2.962   4.000  0.00  0.00    +0.066 C 
ATOM     27  C   UNL     1      -5.056  -2.960   5.203  0.00  0.00    -0.062 C 
ATOM     28  N   UNL     1      -4.285  -2.732   6.432  0.00  0.00    +0.389 N 
ATOM     29  C   UNL     1      -3.304  -3.811   6.604  0.00  0.00    -0.062 C 
ATOM     30  C   UNL     1      -2.342  -3.821   5.413  0.00  0.00    +0.066 C 
ATOM     31  H   UNL     1      -3.804  -1.847   6.369  0.00  0.00    -0.081 HD
BRANCH  28  32
ATOM     32  C   UNL     1      -5.196  -2.712   7.584  0.00  0.00    +0.016 C 
ATOM     33  C   UNL     1      -6.269  -1.642   7.367  0.00  0.00    -0.004 C 
BRANCH  32  34
ATOM     34  C   UNL     1      -4.418  -2.396   8.835  0.00  0.00    +0.199 C 
ATOM     35  O   UNL     1      -3.403  -1.735   8.767  0.00  0.00    -0.278 OA
ATOM     36  N   UNL     1      -4.849  -2.847  10.030  0.00  0.00    -0.314 N 
ATOM     37  H   UNL     1      -5.661  -3.375  10.084  0.00  0.00    +0.149 HD
BRANCH  36  38
ATOM     38  C   UNL     1      -4.092  -2.540  11.246  0.00  0.00    +0.073 C 
ATOM     39  C   UNL     1      -3.882  -3.672  12.252  0.00  0.00    +0.024 C 
ATOM     40  C   UNL     1      -4.856  -2.536  12.571  0.00  0.00    +0.024 C 
ENDBRANCH  36  38
ENDBRANCH  32  34
ENDBRANCH  28  32
ENDBRANCH  24  25
ENDBRANCH   2  24
TORSDOF 12
