REMARK  Name = ZINC36146362
REMARK  14 active torsions:
REMARK  status: ('A' for Active; 'I' for Inactive)
REMARK    1  A    between atoms: C_1  and  C_2
REMARK    2  A    between atoms: C_2  and  C_3
REMARK    3  A    between atoms: C_2  and  C_4
REMARK    4  A    between atoms: C_4  and  O_5
REMARK    5  A    between atoms: O_5  and  C_6
REMARK    6  A    between atoms: C_6  and  C_7
REMARK    7  A    between atoms: C_7  and  C_9
REMARK    8  A    between atoms: C_7  and  O_33
REMARK    9  A    between atoms: C_9  and  N_10
REMARK   10  A    between atoms: N_10  and  C_11
REMARK   11  A    between atoms: N_10  and  C_19
REMARK   12  A    between atoms: C_11  and  C_12
REMARK   13  A    between atoms: C_19  and  C_20
REMARK   14  A    between atoms: C_23  and  C_26
REMARK                            x       y       z     vdW  Elec       q    Type
REMARK                         _______ _______ _______ _____ _____    ______ ____
ROOT
ATOM      1  N   UNL     1      -5.648  -0.225  -4.029  0.00  0.00    +0.387 N 
ATOM      2  H   UNL     1      -5.598   0.750  -4.283  0.00  0.00    -0.081 HD
ENDROOT
BRANCH   1   3
ATOM      3  C   UNL     1      -4.884  -0.448  -2.794  0.00  0.00    -0.044 C 
BRANCH   3   4
ATOM      4  C   UNL     1      -3.453   0.061  -2.980  0.00  0.00    +0.124 C 
BRANCH   4   5
ATOM      5  O   UNL     1      -3.472   1.478  -3.161  0.00  0.00    -0.391 OA
ATOM      6  H   UNL     1      -3.854   1.965  -2.418  0.00  0.00    +0.210 HD
ENDBRANCH   4   5
BRANCH   4   7
ATOM      7  C   UNL     1      -2.624  -0.283  -1.741  0.00  0.00    +0.189 C 
BRANCH   7   8
ATOM      8  O   UNL     1      -1.262   0.088  -1.961  0.00  0.00    -0.377 OA
BRANCH   8   9
ATOM      9  C   UNL     1      -0.398  -0.193  -0.859  0.00  0.00    +0.163 C 
BRANCH   9  11
ATOM     10  C   UNL     1       1.069   1.763  -1.374  0.00  0.00    +0.009 C 
ATOM     11  C   UNL     1       1.028   0.243  -1.204  0.00  0.00    +0.009 C 
ATOM     12  C   UNL     1       1.975  -0.170  -0.075  0.00  0.00    +0.009 C 
ENDBRANCH   9  11
ENDBRANCH   8   9
ENDBRANCH   7   8
ENDBRANCH   4   7
ENDBRANCH   3   4
ENDBRANCH   1   3
BRANCH   1  13
ATOM     13  C   UNL     1      -5.081  -1.043  -5.110  0.00  0.00    -0.041 C 
BRANCH  13  14
ATOM     14  C   UNL     1      -5.784  -0.721  -6.404  0.00  0.00    -0.046 A 
ATOM     15  C   UNL     1      -6.742  -1.584  -6.903  0.00  0.00    +0.003 A 
ATOM     16  C   UNL     1      -7.386  -1.290  -8.090  0.00  0.00    +0.000 A 
ATOM     17  C   UNL     1      -7.073  -0.132  -8.778  0.00  0.00    +0.001 A 
ATOM     18  C   UNL     1      -6.116   0.731  -8.280  0.00  0.00    +0.020 A 
ATOM     19  C   UNL     1      -5.475   0.440  -7.089  0.00  0.00    +0.042 A 
ATOM     20 CL   UNL     1      -4.277   1.527  -6.459  0.00  0.00    -0.083 Cl
ENDBRANCH  13  14
ENDBRANCH   1  13
BRANCH   1  21
ATOM     21  C   UNL     1      -7.051  -0.603  -3.812  0.00  0.00    -0.030 C 
BRANCH  21  22
ATOM     22  C   UNL     1      -7.682   0.344  -2.789  0.00  0.00    +0.194 C 
ATOM     23  C   UNL     1      -9.188   0.040  -2.610  0.00  0.00    +0.104 C 
ATOM     24  C   UNL     1      -9.787   1.424  -2.447  0.00  0.00    +0.092 C 
ATOM     25  N   UNL     1      -8.914   2.291  -2.838  0.00  0.00    -0.089 NA
ATOM     26  O   UNL     1      -7.712   1.696  -3.288  0.00  0.00    -0.392 OA
BRANCH  24  27
ATOM     27  C   UNL     1     -11.136   1.728  -1.930  0.00  0.00    +0.018 A 
ATOM     28  C   UNL     1     -11.946   0.703  -1.438  0.00  0.00    +0.011 A 
ATOM     29  C   UNL     1     -13.206   0.993  -0.957  0.00  0.00    +0.001 A 
ATOM     30  C   UNL     1     -13.668   2.298  -0.962  0.00  0.00    +0.001 A 
ATOM     31  C   UNL     1     -12.872   3.319  -1.447  0.00  0.00    +0.020 A 
ATOM     32  C   UNL     1     -11.606   3.044  -1.926  0.00  0.00    +0.050 A 
ATOM     33 CL   UNL     1     -10.604   4.328  -2.528  0.00  0.00    -0.083 Cl
ENDBRANCH  24  27
ENDBRANCH  21  22
ENDBRANCH   1  21
TORSDOF 12
