REMARK  Name = ZINC01153701
REMARK  10 active torsions:
REMARK  status: ('A' for Active; 'I' for Inactive)
REMARK    1  A    between atoms: C_1  and  C_2
REMARK    2  A    between atoms: C_4  and  C_31
REMARK    3  A    between atoms: C_6  and  N_8
REMARK    4  A    between atoms: C_12  and  C_13
REMARK    5  A    between atoms: C_15  and  O_24
REMARK    6  A    between atoms: C_16  and  O_20
REMARK    7  A    between atoms: O_20  and  C_21
REMARK    8  A    between atoms: C_21  and  C_22
REMARK    9  A    between atoms: C_21  and  C_23
REMARK   10  A    between atoms: O_24  and  C_25
REMARK                            x       y       z     vdW  Elec       q    Type
REMARK                         _______ _______ _______ _____ _____    ______ ____
ROOT
ATOM      1  N   UNL     1      -0.131   5.219  -0.545  0.00  0.00    -0.190 N 
ATOM      2  C   UNL     1      -1.245   5.890  -0.188  0.00  0.00    +0.263 C 
ATOM      3  O   UNL     1      -2.173   5.318   0.352  0.00  0.00    -0.269 OA
ATOM      4  C   UNL     1      -1.308   7.337  -0.471  0.00  0.00    +0.100 C 
ATOM      5  C   UNL     1      -2.416   8.091  -0.134  0.00  0.00    +0.026 C 
ATOM      6  C   UNL     1      -0.134   7.943  -1.129  0.00  0.00    +0.257 C 
ATOM      7  O   UNL     1      -0.110   9.130  -1.396  0.00  0.00    -0.270 OA
ATOM      8  N   UNL     1       0.912   7.145  -1.428  0.00  0.00    -0.235 N 
ATOM      9  C   UNL     1       0.901   5.837  -1.136  0.00  0.00    +0.320 C 
ATOM     10  O   UNL     1       1.877   5.175  -1.428  0.00  0.00    -0.251 OA
ATOM     11  H   UNL     1       1.691   7.527  -1.861  0.00  0.00    +0.159 HD
ENDROOT
BRANCH   1  17
ATOM     12  C   UNL     1       0.109   0.602  -2.222  0.00  0.00    +0.044 C 
ATOM     13  C   UNL     1       0.070   1.585  -1.080  0.00  0.00    -0.048 A 
ATOM     14  C   UNL     1       0.119   1.130   0.225  0.00  0.00    +0.006 A 
ATOM     15  C   UNL     1       0.079   2.028   1.275  0.00  0.00    -0.048 A 
ATOM     16  C   UNL     1       0.002   3.384   1.023  0.00  0.00    +0.027 A 
ATOM     17  C   UNL     1      -0.047   3.844  -0.286  0.00  0.00    +0.046 A 
ATOM     18  C   UNL     1      -0.012   2.939  -1.338  0.00  0.00    +0.027 A 
ATOM     19  C   UNL     1       0.126   1.528   2.696  0.00  0.00    +0.044 C 
ENDBRANCH   1  17
BRANCH   5  20
ATOM     20  C   UNL     1      -2.365   9.549  -0.231  0.00  0.00    -0.019 A 
ATOM     21  C   UNL     1      -1.260  10.251   0.277  0.00  0.00    +0.057 A 
ATOM     22  C   UNL     1      -1.216  11.626   0.178  0.00  0.00    +0.163 A 
ATOM     23  C   UNL     1      -2.273  12.318  -0.416  0.00  0.00    +0.176 A 
ATOM     24  C   UNL     1      -3.371  11.626  -0.915  0.00  0.00    +0.064 A 
ATOM     25  C   UNL     1      -3.423  10.253  -0.826  0.00  0.00    +0.027 A 
ATOM     26 BR   UNL     1      -4.798  12.573  -1.717  0.00  0.00    -0.046 Br
BRANCH  22  27
ATOM     27  O   UNL     1      -0.145  12.308   0.664  0.00  0.00    -0.491 OA
ATOM     28  C   UNL     1       0.900  11.536   1.258  0.00  0.00    +0.277 C 
ENDBRANCH  22  27
BRANCH  23  29
ATOM     29  O   UNL     1      -2.229  13.671  -0.506  0.00  0.00    -0.485 OA
BRANCH  29  30
ATOM     30  C   UNL     1      -2.782  14.413   0.583  0.00  0.00    +0.168 C 
ATOM     31  C   UNL     1      -2.044  15.746   0.719  0.00  0.00    +0.051 C 
ATOM     32  C   UNL     1      -4.266  14.676   0.319  0.00  0.00    +0.051 C 
ENDBRANCH  29  30
ENDBRANCH  23  29
ENDBRANCH   5  20
TORSDOF 5
