REMARK  Name = ZINC08733651
REMARK  9 active torsions:
REMARK  status: ('A' for Active; 'I' for Inactive)
REMARK    1  A    between atoms: C_2  and  C_25
REMARK    2  A    between atoms: N_7  and  C_8
REMARK    3  A    between atoms: C_8  and  C_9
REMARK    4  A    between atoms: C_9  and  N_10
REMARK    5  A    between atoms: C_11  and  C_13
REMARK    6  A    between atoms: C_13  and  O_14
REMARK    7  A    between atoms: O_14  and  N_15
REMARK    8  A    between atoms: C_16  and  C_17
REMARK    9  A    between atoms: C_18  and  O_24
REMARK                            x       y       z     vdW  Elec       q    Type
REMARK                         _______ _______ _______ _____ _____    ______ ____
ROOT
ATOM      1  N   UNL     1      -2.256  -2.882   0.006  0.00  0.00    -0.311 N 
ATOM      2  C   UNL     1      -1.156  -2.103   0.000  0.00  0.00    +0.253 C 
ATOM      3  O   UNL     1      -0.054  -2.610  -0.012  0.00  0.00    -0.272 OA
ATOM      4  H   UNL     1      -3.137  -2.477   0.015  0.00  0.00    +0.149 HD
ENDROOT
BRANCH   1   5
ATOM      5  C   UNL     1      -2.120  -4.341  -0.003  0.00  0.00    +0.123 C 
BRANCH   5   6
ATOM      6  C   UNL     1      -3.510  -4.982   0.005  0.00  0.00    +0.121 C 
BRANCH   6  13
ATOM      7  C   UNL     1      -5.511  -9.418  -0.001  0.00  0.00    +0.037 A 
ATOM      8  C   UNL     1      -6.751  -8.791   0.013  0.00  0.00    +0.072 A 
ATOM      9  C   UNL     1      -6.811  -7.412   0.021  0.00  0.00    +0.096 A 
ATOM     10  C   UNL     1      -4.509  -7.245   0.002  0.00  0.00    +0.115 A 
ATOM     11  C   UNL     1      -4.373  -8.631  -0.012  0.00  0.00    +0.079 A 
ATOM     12 CL   UNL     1      -2.798  -9.361  -0.037  0.00  0.00    -0.080 Cl
ATOM     13  N   UNL     1      -3.374  -6.441  -0.004  0.00  0.00    -0.328 N 
ATOM     14  H   UNL     1      -2.493  -6.846  -0.013  0.00  0.00    +0.147 HD
ATOM     15  N   UNL     1      -5.715  -6.607   0.016  0.00  0.00    -0.348 N 
ATOM     16  H   UNL     1      -5.790  -5.583   0.022  0.00  0.00    +0.167 HD
BRANCH   8  17
ATOM     17  C   UNL     1      -8.017  -9.608   0.020  0.00  0.00    +0.419 C 
ATOM     18  F   UNL     1      -9.124  -8.753   0.035  0.00  0.00    -0.166 F 
ATOM     19  F   UNL     1      -8.061 -10.409  -1.126  0.00  0.00    -0.166 F 
ATOM     20  F   UNL     1      -8.041 -10.421   1.159  0.00  0.00    -0.166 F 
ENDBRANCH   8  17
ENDBRANCH   6  13
ENDBRANCH   5   6
ENDBRANCH   1   5
BRANCH   2  21
ATOM     21  C   UNL     1      -1.295  -0.603   0.009  0.00  0.00    +0.358 C 
BRANCH  21  22
ATOM     22  O   UNL     1       0.002  -0.004   0.002  0.00  0.00    -0.384 OA
BRANCH  22  23
ATOM     23  N   UNL     1      -0.017   1.412   0.009  0.00  0.00    -0.092 NA
ATOM     24  C   UNL     1       1.095   2.074   0.003  0.00  0.00    +0.167 C 
BRANCH  24  25
ATOM     25  C   UNL     1       1.075   3.548   0.011  0.00  0.00    +0.076 C 
ATOM     26  C   UNL     1       2.249   4.231   0.112  0.00  0.00    +0.106 C 
ATOM     27  C   UNL     1       2.273   5.736   0.124  0.00  0.00    +0.075 C 
ATOM     28  C   UNL     1       1.088   6.275  -0.682  0.00  0.00    +0.016 C 
ATOM     29  C   UNL     1      -0.212   5.732  -0.081  0.00  0.00    +0.080 C 
ATOM     30  C   UNL     1      -0.164   4.225  -0.081  0.00  0.00    +0.168 C 
ATOM     31  O   UNL     1      -1.195   3.589  -0.161  0.00  0.00    -0.292 OA
BRANCH  26  32
ATOM     32  O   UNL     1       3.405   3.550   0.199  0.00  0.00    -0.510 OA
ATOM     33  H   UNL     1       4.167   4.195   0.267  0.00  0.00    +0.292 HD
ENDBRANCH  26  32
ENDBRANCH  24  25
ENDBRANCH  22  23
ENDBRANCH  21  22
ENDBRANCH   2  21
TORSDOF 9
