REMARK  Name = ZINC39836468
REMARK  10 active torsions:
REMARK  status: ('A' for Active; 'I' for Inactive)
REMARK    1  A    between atoms: C_1  and  C_2
REMARK    2  A    between atoms: C_5  and  C_8
REMARK    3  A    between atoms: C_9  and  C_10
REMARK    4  A    between atoms: N_12  and  C_13
REMARK    5  A    between atoms: C_14  and  C_27
REMARK    6  A    between atoms: C_19  and  C_23
REMARK    7  A    between atoms: C_23  and  C_24
REMARK    8  A    between atoms: C_23  and  C_25
REMARK    9  A    between atoms: C_23  and  C_26
REMARK   10  A    between atoms: N_29  and  C_30
REMARK                            x       y       z     vdW  Elec       q    Type
REMARK                         _______ _______ _______ _____ _____    ______ ____
ROOT
ATOM      1  C   UNL     1       0.124  -8.454   2.291  0.00  0.00    +0.085 A 
ATOM      2  C   UNL     1       0.135  -9.313   3.380  0.00  0.00    +0.069 A 
ATOM      3  C   UNL     1       0.153 -10.738   3.101  0.00  0.00    -0.023 A 
ATOM      4  C   UNL     1       0.156 -11.044   1.785  0.00  0.00    -0.004 A 
ATOM      5  S   UNL     1       0.130  -9.480   0.961  0.00  0.00    -0.077 S 
ATOM      6  C   UNL     1       0.170 -12.414   1.180  0.00  0.00    +0.046 C 
ATOM      7  C   UNL     1      -0.199 -13.428   2.273  0.00  0.00    -0.000 C 
ATOM      8  C   UNL     1       0.635 -13.134   3.524  0.00  0.00    +0.009 C 
ATOM      9  C   UNL     1       0.168 -11.825   4.165  0.00  0.00    +0.037 C 
ENDROOT
BRANCH   1  12
ATOM     10  C   UNL     1       0.092  -6.389   1.135  0.00  0.00    +0.241 C 
ATOM     11  O   UNL     1       0.094  -6.992   0.077  0.00  0.00    -0.270 OA
ATOM     12  N   UNL     1       0.106  -7.070   2.298  0.00  0.00    -0.276 N 
ATOM     13  H   UNL     1       0.105  -6.589   3.141  0.00  0.00    +0.156 HD
BRANCH  10  15
ATOM     14  C   UNL     1       0.058  -4.246  -0.021  0.00  0.00    +0.013 C 
ATOM     15  C   UNL     1       0.073  -4.926   1.143  0.00  0.00    +0.068 C 
BRANCH  14  20
ATOM     16  C   UNL     1      -0.018   1.503   0.010  0.00  0.00    +0.044 C 
ATOM     17  C   UNL     1       0.002  -0.004   0.002  0.00  0.00    -0.050 A 
ATOM     18  C   UNL     1       0.006  -0.686  -1.202  0.00  0.00    +0.004 A 
ATOM     19  C   UNL     1       0.024  -2.064  -1.218  0.00  0.00    +0.008 A 
ATOM     20  C   UNL     1       0.039  -2.774  -0.013  0.00  0.00    -0.025 A 
ATOM     21  C   UNL     1       0.036  -2.078   1.200  0.00  0.00    +0.008 A 
ATOM     22  C   UNL     1       0.023  -0.699   1.199  0.00  0.00    +0.004 A 
ENDBRANCH  14  20
ENDBRANCH  10  15
ENDBRANCH   1  12
BRANCH   7  23
ATOM     23  C   UNL     1       0.098 -14.845   1.779  0.00  0.00    -0.035 C 
ATOM     24  C   UNL     1       1.587 -14.970   1.451  0.00  0.00    +0.011 C 
ATOM     25  C   UNL     1      -0.271 -15.853   2.869  0.00  0.00    +0.011 C 
ATOM     26  C   UNL     1      -0.727 -15.129   0.522  0.00  0.00    +0.011 C 
ENDBRANCH   7  23
BRANCH   2  27
ATOM     27  C   UNL     1       0.130  -8.803   4.754  0.00  0.00    +0.247 C 
ATOM     28  O   UNL     1      -0.926  -8.605   5.325  0.00  0.00    -0.270 OA
ATOM     29  N   UNL     1       1.295  -8.555   5.385  0.00  0.00    -0.307 N 
ATOM     30  H   UNL     1       2.137  -8.713   4.929  0.00  0.00    +0.149 HD
BRANCH  29  31
ATOM     31  C   UNL     1       1.290  -8.045   6.758  0.00  0.00    +0.096 C 
ATOM     32  C   UNL     1       1.179  -6.512   6.743  0.00  0.00    +0.046 C 
ATOM     33  C   UNL     1       1.492  -5.946   8.149  0.00  0.00    +0.168 C 
ATOM     34  S   UNL     1       2.630  -7.211   8.849  0.00  0.00    -0.029 S 
ATOM     35  O   UNL     1       2.020  -7.802   9.988  0.00  0.00    -0.174 OA
ATOM     36  O   UNL     1       3.930  -6.650   8.964  0.00  0.00    -0.174 OA
ATOM     37  C   UNL     1       2.622  -8.427   7.465  0.00  0.00    +0.188 C 
ENDBRANCH  29  31
ENDBRANCH   2  27
TORSDOF 6
