REMARK  Name = ZINC00729220
REMARK  12 active torsions:
REMARK  status: ('A' for Active; 'I' for Inactive)
REMARK    1  A    between atoms: C_1  and  C_2
REMARK    2  A    between atoms: C_5  and  C_9
REMARK    3  A    between atoms: C_6  and  C_8
REMARK    4  A    between atoms: C_9  and  C_11
REMARK    5  A    between atoms: C_11  and  S_12
REMARK    6  A    between atoms: S_12  and  C_13
REMARK    7  A    between atoms: C_14  and  C_36
REMARK    8  A    between atoms: C_15  and  C_31
REMARK    9  A    between atoms: C_17  and  C_21
REMARK   10  A    between atoms: C_18  and  C_20
REMARK   11  A    between atoms: N_23  and  C_24
REMARK   12  A    between atoms: C_29  and  C_30
REMARK                            x       y       z     vdW  Elec       q    Type
REMARK                         _______ _______ _______ _____ _____    ______ ____
ROOT
ATOM      1  C   UNL     1       1.780  -4.455  -2.003  0.00  0.00    +0.080 C 
ATOM      2  C   UNL     1       0.618  -3.805  -2.280  0.00  0.00    +0.069 C 
ATOM      3  C   UNL     1       0.450  -2.345  -1.971  0.00  0.00    +0.105 C 
ATOM      4  C   UNL     1       1.780  -1.693  -1.725  0.00  0.00    +0.044 C 
ATOM      5  C   UNL     1       2.885  -2.415  -1.477  0.00  0.00    +0.014 C 
ATOM      6  N   UNL     1       2.840  -3.782  -1.436  0.00  0.00    -0.312 N 
ATOM      7  C   UNL     1       4.194  -1.708  -1.234  0.00  0.00    +0.061 C 
ATOM      8  H   UNL     1       3.651  -4.343  -0.950  0.00  0.00    +0.152 HD
ENDROOT
BRANCH   3   9
ATOM      9  C   UNL     1      -0.410  -2.194  -0.742  0.00  0.00    +0.002 A 
ATOM     10  C   UNL     1      -1.610  -1.577  -0.611  0.00  0.00    +0.012 A 
ATOM     11  C   UNL     1      -2.226  -1.566   0.627  0.00  0.00    +0.008 A 
ATOM     12  C   UNL     1      -1.607  -2.163   1.674  0.00  0.00    +0.045 A 
ATOM     13  S   UNL     1      -0.110  -2.776   0.918  0.00  0.00    -0.101 S 
ENDBRANCH   3   9
BRANCH   4  14
ATOM     14  C   UNL     1       1.873  -0.281  -1.762  0.00  0.00    +0.247 C 
ATOM     15  O   UNL     1       2.961   0.260  -1.673  0.00  0.00    -0.270 OA
ATOM     16  N   UNL     1       0.758   0.464  -1.895  0.00  0.00    -0.281 N 
ATOM     17  H   UNL     1      -0.229  -0.020  -1.903  0.00  0.00    +0.155 HD
BRANCH  16  18
ATOM     18  C   UNL     1       0.858   1.854  -2.021  0.00  0.00    +0.037 A 
ATOM     19  C   UNL     1       1.865   2.543  -1.359  0.00  0.00    +0.023 A 
ATOM     20  C   UNL     1       1.960   3.915  -1.487  0.00  0.00    +0.002 A 
ATOM     21  C   UNL     1       1.054   4.602  -2.274  0.00  0.00    +0.000 A 
ATOM     22  C   UNL     1       0.050   3.919  -2.934  0.00  0.00    +0.005 A 
ATOM     23  C   UNL     1      -0.048   2.546  -2.815  0.00  0.00    -0.029 A 
ATOM     24  C   UNL     1      -1.139   1.802  -3.540  0.00  0.00    +0.045 C 
ENDBRANCH  16  18
ENDBRANCH   4  14
BRANCH   2  25
ATOM     25  C   UNL     1      -0.465  -4.527  -2.878  0.00  0.00    +0.098 C 
ATOM     26  N   UNL     1      -1.324  -5.099  -3.352  0.00  0.00    -0.191 NA
ENDBRANCH   2  25
BRANCH   1  27
ATOM     27  S   UNL     1       1.932  -6.172  -2.371  0.00  0.00    -0.101 S 
BRANCH  27  28
ATOM     28  C   UNL     1       3.626  -6.466  -1.806  0.00  0.00    +0.155 C 
BRANCH  28  29
ATOM     29  C   UNL     1       3.985  -7.913  -2.029  0.00  0.00    +0.174 C 
ATOM     30  O   UNL     1       3.176  -8.670  -2.522  0.00  0.00    -0.291 OA
BRANCH  29  35
ATOM     31  C   UNL     1       9.193  -9.842  -0.543  0.00  0.00    +0.044 C 
ATOM     32  C   UNL     1       7.828  -9.336  -0.933  0.00  0.00    -0.050 A 
ATOM     33  C   UNL     1       7.487  -8.018  -0.688  0.00  0.00    +0.004 A 
ATOM     34  C   UNL     1       6.240  -7.547  -1.041  0.00  0.00    +0.012 A 
ATOM     35  C   UNL     1       5.319  -8.407  -1.649  0.00  0.00    +0.021 A 
ATOM     36  C   UNL     1       5.669  -9.739  -1.888  0.00  0.00    -0.040 A 
ATOM     37  C   UNL     1       6.922 -10.193  -1.534  0.00  0.00    +0.007 A 
ATOM     38  C   UNL     1       4.682 -10.675  -2.537  0.00  0.00    +0.044 C 
ENDBRANCH  29  35
ENDBRANCH  28  29
ENDBRANCH  27  28
ENDBRANCH   1  27
TORSDOF 8
