REMARK  Name = ZINC59170470
REMARK  8 active torsions:
REMARK  status: ('A' for Active; 'I' for Inactive)
REMARK    1  A    between atoms: C_1  and  C_2
REMARK    2  A    between atoms: C_9  and  C_23
REMARK    3  A    between atoms: N_11  and  C_12
REMARK    4  A    between atoms: C_15  and  S_18
REMARK    5  A    between atoms: S_18  and  N_21
REMARK    6  A    between atoms: N_25  and  C_26
REMARK    7  A    between atoms: C_29  and  C_33
REMARK    8  A    between atoms: C_30  and  C_32
REMARK                            x       y       z     vdW  Elec       q    Type
REMARK                         _______ _______ _______ _____ _____    ______ ____
ROOT
ATOM      1  C   UNL     1      -1.182   1.319  -0.002  0.00  0.00    +0.044 C 
ATOM      2  C   UNL     1      -0.657  -0.092  -0.061  0.00  0.00    -0.050 A 
ATOM      3  C   UNL     1       0.217  -0.459  -1.075  0.00  0.00    +0.007 A 
ATOM      4  C   UNL     1       0.709  -1.747  -1.149  0.00  0.00    +0.047 A 
ATOM      5  C   UNL     1       0.327  -2.686  -0.202  0.00  0.00    +0.137 A 
ATOM      6  C   UNL     1      -0.557  -2.311   0.828  0.00  0.00    +0.018 A 
ATOM      7  C   UNL     1      -1.041  -0.999   0.886  0.00  0.00    +0.015 A 
ATOM      8  C   UNL     1      -0.951  -3.302   1.832  0.00  0.00    +0.030 A 
ATOM      9  C   UNL     1      -0.225  -4.485   1.880  0.00  0.00    +0.098 A 
ATOM     10  C   UNL     1       0.878  -4.637   0.911  0.00  0.00    +0.212 A 
ATOM     11  N   UNL     1       1.910  -5.409   1.174  0.00  0.00    -0.325 N 
ATOM     12  O   UNL     1       0.795  -3.956  -0.261  0.00  0.00    -0.439 OA
ATOM     13  H   UNL     1       2.047  -5.746   2.074  0.00  0.00    +0.169 HD
ENDROOT
BRANCH  11  14
ATOM     14  C   UNL     1       2.790  -5.737   0.180  0.00  0.00    +0.042 A 
ATOM     15  C   UNL     1       2.318  -6.128  -1.075  0.00  0.00    +0.027 A 
ATOM     16  C   UNL     1       3.212  -6.457  -2.072  0.00  0.00    +0.030 A 
ATOM     17  C   UNL     1       4.573  -6.401  -1.832  0.00  0.00    +0.105 A 
ATOM     18  C   UNL     1       5.048  -6.014  -0.592  0.00  0.00    +0.030 A 
ATOM     19  C   UNL     1       4.167  -5.676   0.414  0.00  0.00    +0.027 A 
BRANCH  17  20
ATOM     20  S   UNL     1       5.707  -6.824  -3.113  0.00  0.00    +0.056 S 
ATOM     21  O   UNL     1       6.914  -7.216  -2.473  0.00  0.00    -0.153 OA
ATOM     22  O   UNL     1       5.008  -7.677  -4.009  0.00  0.00    -0.153 OA
BRANCH  20  23
ATOM     23  N   UNL     1       6.045  -5.434  -3.947  0.00  0.00    -0.204 NA
ATOM     24  H   UNL     1       5.630  -4.598  -3.684  0.00  0.00    +0.144 HD
ATOM     25  H   UNL     1       6.656  -5.457  -4.700  0.00  0.00    +0.144 HD
ENDBRANCH  20  23
ENDBRANCH  17  20
ENDBRANCH  11  14
BRANCH   9  26
ATOM     26  C   UNL     1      -0.543  -5.542   2.855  0.00  0.00    +0.253 C 
ATOM     27  O   UNL     1      -1.378  -5.344   3.716  0.00  0.00    -0.270 OA
ATOM     28  N   UNL     1       0.093  -6.729   2.793  0.00  0.00    -0.281 N 
ATOM     29  H   UNL     1       0.783  -6.876   2.127  0.00  0.00    +0.155 HD
BRANCH  28  30
ATOM     30  C   UNL     1      -0.243  -7.749   3.688  0.00  0.00    +0.034 A 
ATOM     31  C   UNL     1      -0.695  -7.435   4.963  0.00  0.00    +0.023 A 
ATOM     32  C   UNL     1      -1.026  -8.445   5.845  0.00  0.00    +0.005 A 
ATOM     33  C   UNL     1      -0.907  -9.768   5.460  0.00  0.00    -0.047 A 
ATOM     34  C   UNL     1      -0.457 -10.084   4.191  0.00  0.00    -0.046 A 
ATOM     35  C   UNL     1      -0.129  -9.079   3.303  0.00  0.00    +0.027 A 
ATOM     36  C   UNL     1      -0.328 -11.527   3.776  0.00  0.00    +0.044 C 
ATOM     37  C   UNL     1      -1.269 -10.868   6.425  0.00  0.00    +0.044 C 
ENDBRANCH  28  30
ENDBRANCH   9  26
TORSDOF 5
