REMARK  Name = ZINC09777347
REMARK  9 active torsions:
REMARK  status: ('A' for Active; 'I' for Inactive)
REMARK    1  A    between atoms: C_1  and  C_2
REMARK    2  A    between atoms: C_8  and  N_10
REMARK    3  A    between atoms: C_11  and  C_13
REMARK    4  A    between atoms: C_21  and  C_34
REMARK    5  A    between atoms: N_27  and  C_28
REMARK    6  A    between atoms: N_36  and  C_37
REMARK    7  A    between atoms: C_40  and  C_43
REMARK    8  A    between atoms: C_43  and  C_44
REMARK    9  A    between atoms: C_43  and  C_45
REMARK                            x       y       z     vdW  Elec       q    Type
REMARK                         _______ _______ _______ _____ _____    ______ ____
ROOT
ATOM      1  C   UNL     1      -1.118  -0.963   0.229  0.00  0.00    +0.199 C 
ATOM      2  C   UNL     1      -0.038   0.037  -0.049  0.00  0.00    +0.127 C 
ATOM      3  C   UNL     1       0.870  -0.378  -1.193  0.00  0.00    +0.009 C 
ATOM      4  C   UNL     1       1.755   0.599  -1.321  0.00  0.00    +0.004 C 
ATOM      5  C   UNL     1       1.418   1.591  -0.200  0.00  0.00    +0.155 C 
ATOM      6  O   UNL     1      -0.060   1.443  -0.116  0.00  0.00    -0.358 OA
ATOM      7  C   UNL     1       1.901   0.815   1.086  0.00  0.00    +0.123 C 
ATOM      8  C   UNL     1       0.752  -0.134   1.310  0.00  0.00    +0.128 C 
ATOM      9  C   UNL     1       0.817  -1.605   1.393  0.00  0.00    +0.224 C 
ATOM     10  O   UNL     1       1.723  -2.262   1.859  0.00  0.00    -0.275 OA
ATOM     11  N   UNL     1      -0.346  -2.088   0.843  0.00  0.00    -0.283 N 
ENDROOT
BRANCH  11  12
ATOM     12  C   UNL     1      -0.766  -3.491   0.856  0.00  0.00    +0.077 C 
ATOM     13  C   UNL     1      -0.902  -3.970   2.303  0.00  0.00    +0.022 C 
ATOM     14  C   UNL     1      -1.341  -5.435   2.317  0.00  0.00    +0.002 C 
ATOM     15  C   UNL     1      -0.296  -6.287   1.595  0.00  0.00    +0.000 C 
ATOM     16  C   UNL     1      -0.160  -5.809   0.148  0.00  0.00    +0.002 C 
ATOM     17  C   UNL     1       0.279  -4.344   0.134  0.00  0.00    +0.022 C 
ENDBRANCH  11  12
BRANCH   1  19
ATOM     18  N   UNL     1      -2.726  -0.623  -1.620  0.00  0.00    -0.311 N 
ATOM     19  C   UNL     1      -1.786  -1.402  -1.049  0.00  0.00    +0.237 C 
ATOM     20  O   UNL     1      -1.479  -2.457  -1.562  0.00  0.00    -0.274 OA
ATOM     21  H   UNL     1      -2.972   0.221  -1.209  0.00  0.00    +0.149 HD
BRANCH  18  28
ATOM     22  C   UNL     1      -5.612  -0.804  -1.775  0.00  0.00    +0.009 C 
ATOM     23  C   UNL     1      -4.752  -0.390  -2.970  0.00  0.00    +0.006 C 
ATOM     24  C   UNL     1      -5.430  -0.836  -4.267  0.00  0.00    +0.005 C 
ATOM     25  C   UNL     1      -4.570  -0.421  -5.462  0.00  0.00    +0.000 C 
ATOM     26  C   UNL     1      -3.194  -1.081  -5.353  0.00  0.00    +0.002 C 
ATOM     27  C   UNL     1      -2.515  -0.635  -4.056  0.00  0.00    +0.022 C 
ATOM     28  C   UNL     1      -3.376  -1.050  -2.861  0.00  0.00    +0.076 C 
ENDBRANCH  18  28
ENDBRANCH   1  19
BRANCH   7  29
ATOM     29  C   UNL     1       3.180   0.063   0.816  0.00  0.00    +0.224 C 
ATOM     30  O   UNL     1       3.145  -1.011   0.254  0.00  0.00    -0.275 OA
ATOM     31  N   UNL     1       4.362   0.585   1.200  0.00  0.00    -0.285 N 
ATOM     32  H   UNL     1       4.385   1.410   1.709  0.00  0.00    +0.155 HD
BRANCH  31  33
ATOM     33  C   UNL     1       5.555  -0.064   0.864  0.00  0.00    +0.033 A 
ATOM     34  C   UNL     1       5.608  -1.452   0.836  0.00  0.00    +0.023 A 
ATOM     35  C   UNL     1       6.786  -2.089   0.497  0.00  0.00    +0.006 A 
ATOM     36  C   UNL     1       7.914  -1.347   0.200  0.00  0.00    -0.045 A 
ATOM     37  C   UNL     1       7.866   0.034   0.233  0.00  0.00    +0.006 A 
ATOM     38  C   UNL     1       6.690   0.678   0.564  0.00  0.00    +0.023 A 
BRANCH  36  39
ATOM     39  C   UNL     1       9.199  -2.047  -0.163  0.00  0.00    +0.013 C 
ATOM     40  C   UNL     1       9.639  -2.940   0.999  0.00  0.00    +0.012 C 
ATOM     41  C   UNL     1       8.979  -2.904  -1.410  0.00  0.00    +0.012 C 
ENDBRANCH  36  39
ENDBRANCH  31  33
ENDBRANCH   7  29
TORSDOF 6
