REMARK  Name = ZINC46561894
REMARK  9 active torsions:
REMARK  status: ('A' for Active; 'I' for Inactive)
REMARK    1  A    between atoms: C_4  and  C_7
REMARK    2  A    between atoms: C_7  and  C_8
REMARK    3  A    between atoms: C_8  and  C_10
REMARK    4  A    between atoms: C_8  and  N_23
REMARK    5  A    between atoms: N_12  and  C_13
REMARK    6  A    between atoms: C_13  and  C_14
REMARK    7  A    between atoms: C_17  and  C_20
REMARK    8  A    between atoms: N_23  and  S_24
REMARK    9  A    between atoms: S_24  and  C_27
REMARK                            x       y       z     vdW  Elec       q    Type
REMARK                         _______ _______ _______ _____ _____    ______ ____
ROOT
ATOM      1  C   UNL     1       4.756  -0.938   1.945  0.00  0.00    +0.166 C 
ENDROOT
BRANCH   1   2
ATOM      2  C   UNL     1       5.930  -1.395   2.772  0.00  0.00    +0.232 C 
ATOM      3  O   UNL     1       6.560  -0.591   3.426  0.00  0.00    -0.274 OA
ATOM      4  N   UNL     1       6.279  -2.696   2.785  0.00  0.00    -0.310 N 
ATOM      5  H   UNL     1       5.775  -3.339   2.263  0.00  0.00    +0.149 HD
BRANCH   4   6
ATOM      6  C   UNL     1       7.420  -3.140   3.590  0.00  0.00    +0.139 C 
BRANCH   6   7
ATOM      7  C   UNL     1       7.598  -4.628   3.431  0.00  0.00    -0.030 A 
ATOM      8  C   UNL     1       6.944  -5.495   4.289  0.00  0.00    +0.006 A 
ATOM      9  C   UNL     1       7.103  -6.859   4.149  0.00  0.00    +0.013 A 
ATOM     10  C   UNL     1       7.925  -7.363   3.140  0.00  0.00    +0.037 A 
ATOM     11  C   UNL     1       8.581  -6.483   2.278  0.00  0.00    +0.013 A 
ATOM     12  C   UNL     1       8.410  -5.122   2.425  0.00  0.00    +0.006 A 
BRANCH  10  13
ATOM     13  C   UNL     1       8.099  -8.823   2.985  0.00  0.00    +0.242 C 
ATOM     14  O   UNL     1       7.526  -9.587   3.737  0.00  0.00    -0.270 OA
ATOM     15  N   UNL     1       8.893  -9.306   2.010  0.00  0.00    -0.325 N 
ATOM     16  H   UNL     1       9.351  -8.697   1.409  0.00  0.00    +0.145 HD
ATOM     17  H   UNL     1       9.008 -10.264   1.908  0.00  0.00    +0.145 HD
ENDBRANCH  10  13
ENDBRANCH   6   7
ENDBRANCH   4   6
ENDBRANCH   1   2
BRANCH   1  18
ATOM     18  N   UNL     1       4.583   0.508   2.099  0.00  0.00    -0.178 NA
ATOM     19  H   UNL     1       5.250   1.117   1.745  0.00  0.00    +0.149 HD
BRANCH  18  20
ATOM     20  S   UNL     1       3.248   1.105   2.877  0.00  0.00    +0.062 S 
ATOM     21  O   UNL     1       3.350   2.521   2.831  0.00  0.00    -0.153 OA
ATOM     22  O   UNL     1       2.127   0.404   2.356  0.00  0.00    -0.153 OA
BRANCH  20  23
ATOM     23  C   UNL     1       3.386   0.645   4.573  0.00  0.00    +0.140 A 
ATOM     24  C   UNL     1       3.602   1.613   5.536  0.00  0.00    +0.031 A 
ATOM     25  C   UNL     1       3.710   1.253   6.866  0.00  0.00    +0.002 A 
ATOM     26  C   UNL     1       3.601  -0.075   7.235  0.00  0.00    +0.003 A 
ATOM     27  C   UNL     1       3.384  -1.044   6.274  0.00  0.00    +0.040 A 
ATOM     28  C   UNL     1       3.271  -0.684   4.942  0.00  0.00    +0.150 A 
ATOM     29  F   UNL     1       3.054  -1.630   4.002  0.00  0.00    -0.203 F 
ENDBRANCH  20  23
ENDBRANCH  18  20
ENDBRANCH   1  18
BRANCH   1  30
ATOM     30  C   UNL     1       5.010  -1.267   0.473  0.00  0.00    +0.065 C 
BRANCH  30  34
ATOM     31  C   UNL     1       1.545  -0.293  -1.827  0.00  0.00    +0.000 A 
ATOM     32  C   UNL     1       2.531   0.655  -1.627  0.00  0.00    +0.000 A 
ATOM     33  C   UNL     1       3.652   0.340  -0.883  0.00  0.00    +0.004 A 
ATOM     34  C   UNL     1       3.787  -0.923  -0.338  0.00  0.00    -0.045 A 
ATOM     35  C   UNL     1       2.801  -1.871  -0.536  0.00  0.00    +0.004 A 
ATOM     36  C   UNL     1       1.680  -1.556  -1.282  0.00  0.00    +0.000 A 
ENDBRANCH  30  34
ENDBRANCH   1  30
TORSDOF 9
