REMARK  Name = ZINC03011771
REMARK  6 active torsions:
REMARK  status: ('A' for Active; 'I' for Inactive)
REMARK    1  A    between atoms: C_1  and  C_2
REMARK    2  A    between atoms: C_5  and  C_8
REMARK    3  A    between atoms: C_11  and  C_33
REMARK    4  A    between atoms: C_16  and  C_18
REMARK    5  A    between atoms: N_20  and  C_21
REMARK    6  A    between atoms: C_25  and  C_27
REMARK                            x       y       z     vdW  Elec       q    Type
REMARK                         _______ _______ _______ _____ _____    ______ ____
ROOT
ATOM      1  C   UNL     1       0.043  -4.267   0.001  0.00  0.00    +0.104 C 
ATOM      2  C   UNL     1      -1.367  -4.802   0.273  0.00  0.00    +0.063 C 
ATOM      3  C   UNL     1      -1.370  -6.332   0.194  0.00  0.00    +0.215 C 
ATOM      4  N   UNL     1      -0.276  -6.852   1.021  0.00  0.00    -0.238 N 
ATOM      5  C   UNL     1       0.795  -6.103   1.418  0.00  0.00    +0.119 A 
ATOM      6  C   UNL     1       1.601  -6.886   2.162  0.00  0.00    +0.078 A 
ATOM      7  C   UNL     1       1.009  -8.168   2.228  0.00  0.00    +0.149 A 
ATOM      8  N   UNL     1      -0.118  -8.137   1.539  0.00  0.00    -0.164 NA
ATOM      9  N   UNL     1       0.949  -4.760   1.057  0.00  0.00    -0.322 N 
ATOM     10  H   UNL     1       1.608  -4.187   1.477  0.00  0.00    +0.148 HD
ENDROOT
BRANCH   1  15
ATOM     11  C   UNL     1      -0.032   1.511   0.048  0.00  0.00    +0.044 C 
ATOM     12  C   UNL     1      -0.012   0.004   0.036  0.00  0.00    -0.050 A 
ATOM     13  C   UNL     1      -0.017  -0.677  -1.167  0.00  0.00    +0.004 A 
ATOM     14  C   UNL     1       0.001  -2.059  -1.178  0.00  0.00    +0.006 A 
ATOM     15  C   UNL     1       0.024  -2.760   0.013  0.00  0.00    -0.027 A 
ATOM     16  C   UNL     1       0.030  -2.079   1.216  0.00  0.00    +0.006 A 
ATOM     17  C   UNL     1       0.016  -0.697   1.227  0.00  0.00    +0.004 A 
ENDBRANCH   1  15
BRANCH   7  18
ATOM     18  C   UNL     1       1.556  -9.338   2.944  0.00  0.00    +0.268 C 
ATOM     19  O   UNL     1       2.607  -9.246   3.547  0.00  0.00    -0.268 OA
ATOM     20  N   UNL     1       0.889 -10.509   2.928  0.00  0.00    -0.280 N 
ATOM     21  H   UNL     1       0.018 -10.566   2.504  0.00  0.00    +0.155 HD
BRANCH  20  22
ATOM     22  C   UNL     1       1.452 -11.644   3.523  0.00  0.00    +0.034 A 
ATOM     23  C   UNL     1       2.216 -11.517   4.676  0.00  0.00    +0.025 A 
ATOM     24  C   UNL     1       2.771 -12.638   5.261  0.00  0.00    +0.022 A 
ATOM     25  C   UNL     1       2.566 -13.887   4.699  0.00  0.00    +0.053 A 
ATOM     26  C   UNL     1       1.806 -14.015   3.551  0.00  0.00    +0.075 A 
ATOM     27  C   UNL     1       1.243 -12.898   2.965  0.00  0.00    +0.037 A 
ATOM     28 CL   UNL     1       3.266 -15.294   5.437  0.00  0.00    -0.083 Cl
BRANCH  26  29
ATOM     29  C   UNL     1       1.585 -15.376   2.942  0.00  0.00    +0.419 C 
ATOM     30  F   UNL     1       0.791 -15.252   1.797  0.00  0.00    -0.166 F 
ATOM     31  F   UNL     1       2.819 -15.937   2.595  0.00  0.00    -0.166 F 
ATOM     32  F   UNL     1       0.941 -16.203   3.869  0.00  0.00    -0.166 F 
ENDBRANCH  26  29
ENDBRANCH  20  22
ENDBRANCH   7  18
BRANCH   3  33
ATOM     33  C   UNL     1      -2.706  -6.870   0.710  0.00  0.00    +0.412 C 
ATOM     34  F   UNL     1      -3.747  -6.362  -0.074  0.00  0.00    -0.168 F 
ATOM     35  F   UNL     1      -2.706  -8.267   0.637  0.00  0.00    -0.168 F 
ATOM     36  F   UNL     1      -2.886  -6.473   2.040  0.00  0.00    -0.168 F 
ENDBRANCH   3  33
TORSDOF 5
