REMARK  Name = ZINC10197558
REMARK  9 active torsions:
REMARK  status: ('A' for Active; 'I' for Inactive)
REMARK    1  A    between atoms: C_1  and  C_2
REMARK    2  A    between atoms: C_2  and  O_3
REMARK    3  A    between atoms: O_3  and  C_4
REMARK    4  A    between atoms: C_4  and  C_6
REMARK    5  A    between atoms: C_7  and  C_31
REMARK    6  A    between atoms: C_11  and  C_15
REMARK    7  A    between atoms: C_15  and  S_16
REMARK    8  A    between atoms: S_16  and  C_17
REMARK    9  A    between atoms: C_25  and  C_27
REMARK                            x       y       z     vdW  Elec       q    Type
REMARK                         _______ _______ _______ _____ _____    ______ ____
ROOT
ATOM      1  C   UNL     1      -5.495  -6.976  -1.606  0.00  0.00    +0.102 A 
ATOM      2  C   UNL     1      -5.053  -6.715  -0.344  0.00  0.00    -0.017 A 
ATOM      3  C   UNL     1      -3.973  -5.844  -0.150  0.00  0.00    +0.051 A 
ATOM      4  C   UNL     1      -3.352  -5.433   1.067  0.00  0.00    +0.128 A 
ATOM      5  N   UNL     1      -2.329  -4.596   1.018  0.00  0.00    -0.216 NA
ATOM      6  C   UNL     1      -1.863  -4.117  -0.121  0.00  0.00    +0.142 A 
ATOM      7  N   UNL     1      -2.393  -4.458  -1.280  0.00  0.00    -0.224 NA
ATOM      8  C   UNL     1      -3.413  -5.290  -1.328  0.00  0.00    +0.115 A 
ATOM      9  S   UNL     1      -4.401  -5.997  -2.622  0.00  0.00    -0.062 S 
ATOM     10  N   UNL     1      -3.810  -5.906   2.280  0.00  0.00    -0.343 N 
ATOM     11  C   UNL     1      -5.725  -7.361   0.840  0.00  0.00    +0.046 C 
ATOM     12  H   UNL     1      -4.254  -6.768   2.328  0.00  0.00    +0.144 HD
ATOM     13  H   UNL     1      -3.689  -5.378   3.084  0.00  0.00    +0.144 HD
ENDROOT
BRANCH   1  14
ATOM     14  C   UNL     1      -6.598  -7.846  -2.027  0.00  0.00    +0.346 C 
ATOM     15  O   UNL     1      -7.249  -8.447  -1.195  0.00  0.00    -0.244 OA
BRANCH  14  16
ATOM     16  O   UNL     1      -6.890  -7.979  -3.337  0.00  0.00    -0.461 OA
BRANCH  16  18
ATOM     17  C   UNL     1      -8.173  -8.881  -5.199  0.00  0.00    +0.048 C 
ATOM     18  C   UNL     1      -7.994  -8.857  -3.680  0.00  0.00    +0.229 C 
ENDBRANCH  16  18
ENDBRANCH  14  16
ENDBRANCH   1  14
BRANCH   6  19
ATOM     19  C   UNL     1      -0.697  -3.163  -0.097  0.00  0.00    +0.152 C 
BRANCH  19  20
ATOM     20  S   UNL     1      -1.309  -1.464   0.018  0.00  0.00    -0.097 S 
BRANCH  20  21
ATOM     21  C   UNL     1       0.219  -0.587   0.028  0.00  0.00    +0.109 A 
ATOM     22  C   UNL     1       0.247   0.827   0.110  0.00  0.00    +0.032 A 
ATOM     23  C   UNL     1      -0.922   1.591   0.191  0.00  0.00    +0.012 A 
ATOM     24  C   UNL     1      -0.833   2.950   0.262  0.00  0.00    +0.001 A 
ATOM     25  C   UNL     1       0.405   3.586   0.266  0.00  0.00    +0.002 A 
ATOM     26  C   UNL     1       1.563   2.870   0.194  0.00  0.00    +0.028 A 
ATOM     27  C   UNL     1       1.508   1.472   0.114  0.00  0.00    +0.076 A 
ATOM     28  N   UNL     1       2.617   0.720   0.041  0.00  0.00    -0.232 NA
ATOM     29  C   UNL     1       2.531  -0.587  -0.033  0.00  0.00    +0.134 A 
ATOM     30  N   UNL     1       1.376  -1.234  -0.040  0.00  0.00    -0.225 NA
BRANCH  29  31
ATOM     31  C   UNL     1       3.805  -1.388  -0.113  0.00  0.00    +0.057 C 
ATOM     32  C   UNL     1       3.680  -2.886  -0.401  0.00  0.00    +0.012 C 
ATOM     33  C   UNL     1       4.071  -2.405   0.998  0.00  0.00    +0.012 C 
ENDBRANCH  29  31
ENDBRANCH  20  21
ENDBRANCH  19  20
ENDBRANCH   6  19
TORSDOF 7
