REMARK  Name = ZINC39426586
REMARK  11 active torsions:
REMARK  status: ('A' for Active; 'I' for Inactive)
REMARK    1  A    between atoms: C_1  and  C_2
REMARK    2  A    between atoms: C_2  and  C_3
REMARK    3  A    between atoms: C_6  and  C_9
REMARK    4  A    between atoms: C_10  and  C_31
REMARK    5  A    between atoms: C_11  and  N_30
REMARK    6  A    between atoms: C_13  and  S_17
REMARK    7  A    between atoms: C_14  and  C_15
REMARK    8  A    between atoms: S_17  and  C_18
REMARK    9  A    between atoms: C_18  and  C_20
REMARK   10  A    between atoms: C_18  and  C_21
REMARK   11  A    between atoms: C_26  and  C_29
REMARK                            x       y       z     vdW  Elec       q    Type
REMARK                         _______ _______ _______ _____ _____    ______ ____
ROOT
ATOM      1  C   UNL     1       2.786  -1.910   4.665  0.00  0.00    +0.023 A 
ATOM      2  C   UNL     1       3.414  -3.171   4.669  0.00  0.00    +0.100 A 
ATOM      3  C   UNL     1       4.084  -3.595   5.832  0.00  0.00    +0.136 A 
ATOM      4  N   UNL     1       4.127  -2.829   6.910  0.00  0.00    -0.224 NA
ATOM      5  C   UNL     1       3.551  -1.637   6.951  0.00  0.00    +0.118 A 
ATOM      6  C   UNL     1       2.864  -1.127   5.833  0.00  0.00    +0.093 A 
ENDROOT
BRANCH   1  10
ATOM      7  C   UNL     1       0.731  -0.503   1.223  0.00  0.00    -0.048 A 
ATOM      8  C   UNL     1       2.098  -0.709   1.173  0.00  0.00    +0.004 A 
ATOM      9  C   UNL     1       2.772  -1.165   2.287  0.00  0.00    +0.009 A 
ATOM     10  C   UNL     1       2.070  -1.420   3.467  0.00  0.00    -0.015 A 
ATOM     11  C   UNL     1       0.691  -1.211   3.510  0.00  0.00    +0.009 A 
ATOM     12  C   UNL     1       0.031  -0.749   2.391  0.00  0.00    +0.004 A 
BRANCH   7  14
ATOM     13  C   UNL     1      -0.019   1.526   0.010  0.00  0.00    +0.009 C 
ATOM     14  C   UNL     1       0.002  -0.004   0.002  0.00  0.00    +0.032 C 
ENDBRANCH   7  14
ENDBRANCH   1  10
BRANCH   3  15
ATOM     15  N   UNL     1       4.704  -4.829   5.849  0.00  0.00    -0.342 N 
ATOM     16  H   UNL     1       4.676  -5.396   5.062  0.00  0.00    +0.144 HD
ATOM     17  H   UNL     1       5.167  -5.128   6.647  0.00  0.00    +0.144 HD
ENDBRANCH   3  15
BRANCH   6  18
ATOM     18  C   UNL     1       2.249   0.165   5.885  0.00  0.00    +0.102 C 
ATOM     19  N   UNL     1       1.761   1.190   5.926  0.00  0.00    -0.191 NA
ENDBRANCH   6  18
BRANCH   2  20
ATOM     20  C   UNL     1       3.372  -4.008   3.508  0.00  0.00    +0.103 C 
ATOM     21  N   UNL     1       3.339  -4.672   2.587  0.00  0.00    -0.191 NA
ENDBRANCH   2  20
BRANCH   5  22
ATOM     22  S   UNL     1       3.652  -0.674   8.424  0.00  0.00    -0.092 S 
BRANCH  22  23
ATOM     23  C   UNL     1       4.614  -1.710   9.561  0.00  0.00    +0.136 C 
ATOM     24  C   UNL     1       6.033  -1.882   9.016  0.00  0.00    +0.029 C 
BRANCH  23  25
ATOM     25  C   UNL     1       4.671  -1.050  10.914  0.00  0.00    +0.231 C 
ATOM     26  O   UNL     1       4.453   0.139  11.019  0.00  0.00    -0.274 OA
ATOM     27  N   UNL     1       4.966  -1.780  12.008  0.00  0.00    -0.267 N 
ATOM     28  C   UNL     1       5.019  -1.169  13.261  0.00  0.00    +0.168 A 
ATOM     29  C   UNL     1       4.783   0.198  13.531  0.00  0.00    +0.091 A 
ATOM     30  C   UNL     1       4.929   0.394  14.853  0.00  0.00    +0.136 A 
ATOM     31  O   UNL     1       5.245  -0.782  15.418  0.00  0.00    -0.358 OA
ATOM     32  N   UNL     1       5.292  -1.761  14.396  0.00  0.00    -0.063 NA
ATOM     33  C   UNL     1       4.767   1.706  15.575  0.00  0.00    +0.089 C 
ATOM     34  H   UNL     1       5.141  -2.730  11.924  0.00  0.00    +0.156 HD
ENDBRANCH  23  25
ENDBRANCH  22  23
ENDBRANCH   5  22
TORSDOF 8
