REMARK  Name = ZINC38935259
REMARK  9 active torsions:
REMARK  status: ('A' for Active; 'I' for Inactive)
REMARK    1  A    between atoms: C_1  and  C_2
REMARK    2  A    between atoms: C_5  and  S_8
REMARK    3  A    between atoms: S_8  and  C_11
REMARK    4  A    between atoms: C_11  and  C_13
REMARK    5  A    between atoms: C_11  and  C_31
REMARK    6  A    between atoms: C_13  and  N_14
REMARK    7  A    between atoms: C_15  and  C_17
REMARK    8  A    between atoms: N_19  and  C_20
REMARK    9  A    between atoms: C_22  and  C_30
REMARK                            x       y       z     vdW  Elec       q    Type
REMARK                         _______ _______ _______ _____ _____    ______ ____
ROOT
ATOM      1  N   UNL     1       1.292  -7.044  -1.224  0.00  0.00    -0.305 N 
ATOM      2  C   UNL     1       1.297  -8.373  -1.449  0.00  0.00    +0.299 C 
ATOM      3  O   UNL     1       1.830  -9.121  -0.656  0.00  0.00    -0.265 OA
ATOM      4  H   UNL     1       0.865  -6.447  -1.859  0.00  0.00    +0.149 HD
ENDROOT
BRANCH   2   5
ATOM      5  C   UNL     1       0.646  -8.926  -2.675  0.00  0.00    +0.303 C 
ATOM      6  O   UNL     1       0.113  -8.178  -3.468  0.00  0.00    -0.265 OA
ATOM      7  N   UNL     1       0.651 -10.255  -2.900  0.00  0.00    -0.277 N 
ATOM      8  H   UNL     1       1.146 -10.844  -2.309  0.00  0.00    +0.155 HD
BRANCH   7   9
ATOM      9  C   UNL     1      -0.052 -10.780  -3.977  0.00  0.00    +0.045 A 
ATOM     10  C   UNL     1      -1.135 -10.107  -4.520  0.00  0.00    +0.047 A 
ATOM     11  C   UNL     1      -1.817 -10.657  -5.597  0.00  0.00    +0.041 A 
ATOM     12  N   UNL     1      -1.468 -11.807  -6.123  0.00  0.00    -0.252 NA
ATOM     13  C   UNL     1      -0.433 -12.511  -5.650  0.00  0.00    +0.073 A 
ATOM     14  C   UNL     1       0.318 -12.015  -4.557  0.00  0.00    +0.022 A 
ATOM     15  C   UNL     1       1.404 -12.755  -4.069  0.00  0.00    +0.012 A 
ATOM     16  C   UNL     1       1.729 -13.941  -4.655  0.00  0.00    +0.001 A 
ATOM     17  C   UNL     1       0.996 -14.429  -5.734  0.00  0.00    +0.002 A 
ATOM     18  C   UNL     1      -0.072 -13.742  -6.225  0.00  0.00    +0.028 A 
ATOM     19  C   UNL     1      -2.993  -9.913  -6.177  0.00  0.00    +0.065 C 
ENDBRANCH   7   9
ENDBRANCH   2   5
BRANCH   1  20
ATOM     20  C   UNL     1       1.930  -6.502  -0.022  0.00  0.00    +0.136 C 
BRANCH  20  21
ATOM     21  C   UNL     1       1.783  -4.979  -0.009  0.00  0.00    +0.189 C 
BRANCH  21  22
ATOM     22  C   UNL     1       2.440  -4.422   1.227  0.00  0.00    +0.016 A 
ATOM     23  C   UNL     1       3.460  -3.535   1.326  0.00  0.00    +0.013 A 
ATOM     24  C   UNL     1       3.905  -3.161   2.580  0.00  0.00    +0.008 A 
ATOM     25  C   UNL     1       3.307  -3.692   3.675  0.00  0.00    +0.045 A 
ATOM     26  S   UNL     1       2.070  -4.752   2.942  0.00  0.00    -0.100 S 
ENDBRANCH  21  22
BRANCH  21  27
ATOM     27  S   UNL     1       0.023  -4.542  -0.009  0.00  0.00    +0.006 S 
ATOM     28  O   UNL     1      -0.577  -4.925   1.221  0.00  0.00    -0.169 OA
ATOM     29  O   UNL     1      -0.572  -4.903  -1.248  0.00  0.00    -0.169 OA
BRANCH  27  34
ATOM     30  C   UNL     1      -0.078   1.491   0.043  0.00  0.00    +0.044 C 
ATOM     31  C   UNL     1      -0.053  -0.016   0.030  0.00  0.00    -0.050 A 
ATOM     32  C   UNL     1      -0.038  -0.696  -1.173  0.00  0.00    +0.005 A 
ATOM     33  C   UNL     1      -0.015  -2.078  -1.185  0.00  0.00    +0.027 A 
ATOM     34  C   UNL     1      -0.006  -2.780   0.006  0.00  0.00    +0.089 A 
ATOM     35  C   UNL     1      -0.020  -2.099   1.209  0.00  0.00    +0.027 A 
ATOM     36  C   UNL     1      -0.039  -0.717   1.221  0.00  0.00    +0.005 A 
ENDBRANCH  27  34
ENDBRANCH  21  27
ENDBRANCH  20  21
ENDBRANCH   1  20
TORSDOF 7
