REMARK  Name = ZINC13551661
REMARK  6 active torsions:
REMARK  status: ('A' for Active; 'I' for Inactive)
REMARK    1  A    between atoms: C_1  and  C_2
REMARK    2  A    between atoms: C_6  and  N_8
REMARK    3  A    between atoms: C_14  and  C_24
REMARK    4  A    between atoms: C_14  and  C_25
REMARK    5  A    between atoms: C_19  and  O_22
REMARK    6  A    between atoms: O_22  and  C_23
REMARK                            x       y       z     vdW  Elec       q    Type
REMARK                         _______ _______ _______ _____ _____    ______ ____
ROOT
ATOM      1  N   UNL     1       0.051  -2.791   2.357  0.00  0.00    -0.240 NA
ATOM      2  C   UNL     1      -0.749  -3.840   2.519  0.00  0.00    +0.117 A 
ATOM      3  C   UNL     1      -0.844  -4.651   3.688  0.00  0.00    +0.029 A 
ATOM      4  C   UNL     1      -1.692  -5.712   3.859  0.00  0.00    +0.030 A 
ATOM      5  S   UNL     1      -2.624  -6.033   2.496  0.00  0.00    -0.052 S 
ATOM      6  S   UNL     1      -1.902  -4.481   1.314  0.00  0.00    -0.032 S 
ATOM      7  C   UNL     1      -1.801  -6.505   5.146  0.00  0.00    +0.059 C 
ATOM      8  N   UNL     1      -0.517  -6.438   5.855  0.00  0.00    -0.334 N 
ATOM      9  C   UNL     1       0.176  -5.222   5.905  0.00  0.00    +0.036 A 
ATOM     10  C   UNL     1       0.059  -4.312   4.854  0.00  0.00    +0.010 A 
ATOM     11  C   UNL     1       0.753  -3.113   4.870  0.00  0.00    +0.056 A 
ATOM     12  C   UNL     1       1.565  -2.816   5.957  0.00  0.00    +0.121 A 
ATOM     13  C   UNL     1       1.674  -3.714   7.009  0.00  0.00    +0.047 A 
ATOM     14  C   UNL     1       0.984  -4.914   6.988  0.00  0.00    +0.027 A 
ATOM     15  C   UNL     1      -2.903  -5.908   6.024  0.00  0.00    +0.037 C 
ATOM     16  C   UNL     1      -2.133  -7.963   4.824  0.00  0.00    +0.037 C 
ATOM     17  H   UNL     1      -0.154  -7.228   6.285  0.00  0.00    +0.147 HD
ENDROOT
BRANCH   1  23
ATOM     18  C   UNL     1      -0.018   1.503   0.010  0.00  0.00    +0.044 C 
ATOM     19  C   UNL     1       0.002  -0.004   0.002  0.00  0.00    -0.048 A 
ATOM     20  C   UNL     1       0.006  -0.688  -1.202  0.00  0.00    +0.003 A 
ATOM     21  C   UNL     1       0.025  -2.071  -1.220  0.00  0.00    +0.002 A 
ATOM     22  C   UNL     1       0.040  -2.780  -0.037  0.00  0.00    +0.028 A 
ATOM     23  C   UNL     1       0.036  -2.097   1.183  0.00  0.00    +0.065 A 
ATOM     24  C   UNL     1       0.023  -0.698   1.193  0.00  0.00    +0.031 A 
ENDBRANCH   1  23
BRANCH  12  25
ATOM     25  O   UNL     1       2.255  -1.645   5.990  0.00  0.00    -0.495 OA
ATOM     26  C   UNL     1       3.071  -1.404   7.138  0.00  0.00    +0.277 C 
ENDBRANCH  12  25
TORSDOF 2
