REMARK  Name = ZINC39654328
REMARK  7 active torsions:
REMARK  status: ('A' for Active; 'I' for Inactive)
REMARK    1  A    between atoms: C_1  and  C_2
REMARK    2  A    between atoms: C_2  and  C_3
REMARK    3  A    between atoms: C_6  and  C_9
REMARK    4  A    between atoms: C_9  and  C_10
REMARK    5  A    between atoms: C_10  and  N_11
REMARK    6  A    between atoms: C_12  and  C_14
REMARK    7  A    between atoms: C_25  and  C_27
REMARK                            x       y       z     vdW  Elec       q    Type
REMARK                         _______ _______ _______ _____ _____    ______ ____
ROOT
ATOM      1  C   UNL     1       5.463  -1.297   9.271  0.00  0.00    +0.100 C 
ATOM      2  C   UNL     1       6.624  -2.008   8.540  0.00  0.00    +0.121 C 
ATOM      3  N   UNL     1       7.721  -1.011   8.522  0.00  0.00    -0.296 N 
ATOM      4  C   UNL     1       7.650  -0.360   9.852  0.00  0.00    +0.115 C 
ATOM      5  C   UNL     1       6.141  -0.219  10.134  0.00  0.00    -0.004 C 
ATOM      6  C   UNL     1       5.656   1.168   9.723  0.00  0.00    -0.010 C 
ATOM      7  C   UNL     1       6.300   2.219  10.631  0.00  0.00    -0.082 C 
ATOM      8  N   UNL     1       5.940   1.946  12.028  0.00  0.00    +0.379 N 
ATOM      9  C   UNL     1       6.490   0.650  12.444  0.00  0.00    -0.082 C 
ATOM     10  C   UNL     1       5.854  -0.467  11.611  0.00  0.00    -0.010 C 
ATOM     11  C   UNL     1       8.587  -0.755   7.521  0.00  0.00    +0.247 C 
ATOM     12  O   UNL     1       8.440  -1.286   6.438  0.00  0.00    -0.270 OA
ATOM     13  H   UNL     1       6.315   2.674  12.619  0.00  0.00    -0.086 HD
ATOM     14  H   UNL     1       4.935   1.928  12.118  0.00  0.00    -0.086 HD
ENDROOT
BRANCH  11  15
ATOM     15  C   UNL     1       9.717   0.173   7.742  0.00  0.00    +0.037 A 
ATOM     16  C   UNL     1      10.157   0.446   9.038  0.00  0.00    +0.013 A 
ATOM     17  C   UNL     1      11.212   1.312   9.237  0.00  0.00    +0.001 A 
ATOM     18  C   UNL     1      11.833   1.911   8.155  0.00  0.00    +0.000 A 
ATOM     19  C   UNL     1      11.401   1.646   6.867  0.00  0.00    +0.001 A 
ATOM     20  C   UNL     1      10.351   0.776   6.655  0.00  0.00    +0.013 A 
ENDBRANCH  11  15
BRANCH   1  22
ATOM     21  N   UNL     1       3.247  -0.415   8.618  0.00  0.00    -0.315 N 
ATOM     22  C   UNL     1       4.527  -0.662   8.276  0.00  0.00    +0.218 C 
ATOM     23  O   UNL     1       4.925  -0.373   7.168  0.00  0.00    -0.275 OA
ATOM     24  H   UNL     1       2.928  -0.646   9.504  0.00  0.00    +0.149 HD
BRANCH  21  25
ATOM     25  C   UNL     1       2.337   0.203   7.650  0.00  0.00    +0.109 C 
BRANCH  25  26
ATOM     26  C   UNL     1       0.955   0.372   8.286  0.00  0.00    +0.054 C 
BRANCH  26  30
ATOM     27  C   UNL     1      -1.700   2.174   5.466  0.00  0.00    -0.048 A 
ATOM     28  C   UNL     1      -1.585   0.798   5.526  0.00  0.00    +0.004 A 
ATOM     29  C   UNL     1      -0.726   0.215   6.438  0.00  0.00    +0.004 A 
ATOM     30  C   UNL     1       0.019   1.008   7.291  0.00  0.00    -0.046 A 
ATOM     31  C   UNL     1      -0.096   2.384   7.231  0.00  0.00    +0.004 A 
ATOM     32  C   UNL     1      -0.952   2.967   6.316  0.00  0.00    +0.004 A 
BRANCH  27  34
ATOM     33  C   UNL     1      -1.892   3.066   3.160  0.00  0.00    +0.009 C 
ATOM     34  C   UNL     1      -2.637   2.809   4.472  0.00  0.00    +0.032 C 
ENDBRANCH  27  34
ENDBRANCH  26  30
ENDBRANCH  25  26
ENDBRANCH  21  25
ENDBRANCH   1  22
TORSDOF 6
