REMARK  Name = ZINC39696035
REMARK  7 active torsions:
REMARK  status: ('A' for Active; 'I' for Inactive)
REMARK    1  A    between atoms: C_1  and  C_2
REMARK    2  A    between atoms: C_2  and  C_3
REMARK    3  A    between atoms: C_6  and  C_9
REMARK    4  A    between atoms: C_9  and  C_11
REMARK    5  A    between atoms: C_9  and  N_12
REMARK    6  A    between atoms: C_13  and  C_15
REMARK    7  A    between atoms: C_26  and  C_28
REMARK                            x       y       z     vdW  Elec       q    Type
REMARK                         _______ _______ _______ _____ _____    ______ ____
ROOT
ATOM      1  C   UNL     1       5.341  -0.040  -6.420  0.00  0.00    +0.100 C 
ATOM      2  C   UNL     1       5.490   1.421  -5.941  0.00  0.00    +0.121 C 
ATOM      3  N   UNL     1       6.430   2.038  -6.907  0.00  0.00    -0.296 N 
ATOM      4  C   UNL     1       6.037   1.469  -8.219  0.00  0.00    +0.115 C 
ATOM      5  C   UNL     1       5.700  -0.005  -7.915  0.00  0.00    -0.004 C 
ATOM      6  C   UNL     1       4.510  -0.457  -8.755  0.00  0.00    -0.010 C 
ATOM      7  C   UNL     1       4.909  -0.470 -10.233  0.00  0.00    -0.082 C 
ATOM      8  N   UNL     1       6.044  -1.379 -10.428  0.00  0.00    +0.379 N 
ATOM      9  C   UNL     1       7.213  -0.885  -9.690  0.00  0.00    -0.082 C 
ATOM     10  C   UNL     1       6.912  -0.891  -8.189  0.00  0.00    -0.010 C 
ATOM     11  C   UNL     1       7.419   2.917  -6.652  0.00  0.00    +0.247 C 
ATOM     12  O   UNL     1       7.692   3.207  -5.503  0.00  0.00    -0.270 OA
ATOM     13  H   UNL     1       5.799  -2.298 -10.091  0.00  0.00    -0.086 HD
ATOM     14  H   UNL     1       6.266  -1.433 -11.411  0.00  0.00    -0.086 HD
ENDROOT
BRANCH  11  15
ATOM     15  C   UNL     1       8.172   3.528  -7.767  0.00  0.00    +0.037 A 
ATOM     16  C   UNL     1       7.615   3.573  -9.046  0.00  0.00    +0.014 A 
ATOM     17  C   UNL     1       8.322   4.145 -10.083  0.00  0.00    +0.016 A 
ATOM     18  C   UNL     1       9.582   4.673  -9.858  0.00  0.00    +0.018 A 
ATOM     19  C   UNL     1      10.140   4.630  -8.591  0.00  0.00    +0.016 A 
ATOM     20  C   UNL     1       9.440   4.067  -7.545  0.00  0.00    +0.014 A 
ATOM     21 BR   UNL     1      10.545   5.454 -11.285  0.00  0.00    -0.050 Br
ENDBRANCH  11  15
BRANCH   1  23
ATOM     22  N   UNL     1       3.669  -1.819  -6.021  0.00  0.00    -0.308 N 
ATOM     23  C   UNL     1       3.922  -0.512  -6.232  0.00  0.00    +0.219 C 
ATOM     24  O   UNL     1       3.009   0.284  -6.271  0.00  0.00    -0.275 OA
ATOM     25  H   UNL     1       4.401  -2.456  -5.990  0.00  0.00    +0.149 HD
BRANCH  22  26
ATOM     26  C   UNL     1       2.290  -2.278  -5.838  0.00  0.00    +0.100 C 
ATOM     27  C   UNL     1       1.649  -2.525  -7.205  0.00  0.00    +0.033 C 
BRANCH  26  31
ATOM     28  C   UNL     1       2.282  -5.907  -3.585  0.00  0.00    -0.048 A 
ATOM     29  C   UNL     1       1.321  -4.944  -3.346  0.00  0.00    +0.004 A 
ATOM     30  C   UNL     1       1.323  -3.769  -4.075  0.00  0.00    +0.006 A 
ATOM     31  C   UNL     1       2.288  -3.558  -5.043  0.00  0.00    -0.027 A 
ATOM     32  C   UNL     1       3.250  -4.521  -5.281  0.00  0.00    +0.006 A 
ATOM     33  C   UNL     1       3.250  -5.694  -4.549  0.00  0.00    +0.004 A 
BRANCH  28  35
ATOM     34  C   UNL     1       3.130  -7.009  -1.532  0.00  0.00    +0.009 C 
ATOM     35  C   UNL     1       2.279  -7.188  -2.791  0.00  0.00    +0.032 C 
ENDBRANCH  28  35
ENDBRANCH  26  31
ENDBRANCH  22  26
ENDBRANCH   1  23
TORSDOF 5
