REMARK  Name = ZINC14471487
REMARK  7 active torsions:
REMARK  status: ('A' for Active; 'I' for Inactive)
REMARK    1  A    between atoms: C_1  and  O_2
REMARK    2  A    between atoms: O_2  and  C_3
REMARK    3  A    between atoms: C_6  and  N_9
REMARK    4  A    between atoms: N_9  and  S_10
REMARK    5  A    between atoms: S_10  and  C_13
REMARK    6  A    between atoms: C_26  and  C_29
REMARK    7  A    between atoms: C_33  and  N_35
REMARK                            x       y       z     vdW  Elec       q    Type
REMARK                         _______ _______ _______ _____ _____    ______ ____
ROOT
ATOM      1  C   UNL     1      -1.573  -1.818   0.085  0.00  0.00    +0.109 A 
ATOM      2  C   UNL     1      -0.308  -2.334  -0.134  0.00  0.00    +0.030 A 
ATOM      3  C   UNL     1       0.746  -1.478  -0.386  0.00  0.00    +0.025 A 
ATOM      4  C   UNL     1       0.533  -0.105  -0.418  0.00  0.00    +0.031 A 
ATOM      5  C   UNL     1      -0.730   0.415  -0.198  0.00  0.00    -0.018 A 
ATOM      6  C   UNL     1      -1.783  -0.455   0.053  0.00  0.00    +0.034 A 
ATOM      7  C   UNL     1      -1.021   1.891  -0.217  0.00  0.00    +0.049 C 
ATOM      8  C   UNL     1      -1.578   2.264   1.151  0.00  0.00    -0.023 C 
ATOM      9  C   UNL     1      -0.628   2.736   1.918  0.00  0.00    -0.030 C 
ATOM     10  C   UNL     1       0.697   2.750   1.176  0.00  0.00    +0.033 C 
ATOM     11  C   UNL     1       0.260   2.740  -0.308  0.00  0.00    +0.029 C 
ATOM     12  C   UNL     1       1.317   2.092  -1.183  0.00  0.00    +0.105 C 
ATOM     13  N   UNL     1       1.613   0.746  -0.679  0.00  0.00    -0.336 N 
ATOM     14  H   UNL     1       2.527   0.456  -0.531  0.00  0.00    +0.147 HD
ENDROOT
BRANCH  12  15
ATOM     15  C   UNL     1       0.807   1.996  -2.598  0.00  0.00    -0.025 A 
ATOM     16  C   UNL     1      -0.056   0.977  -2.954  0.00  0.00    +0.005 A 
ATOM     17  C   UNL     1      -0.527   0.892  -4.251  0.00  0.00    +0.003 A 
ATOM     18  C   UNL     1      -0.128   1.821  -5.194  0.00  0.00    +0.033 A 
ATOM     19  C   UNL     1       0.738   2.838  -4.838  0.00  0.00    +0.127 A 
ATOM     20  C   UNL     1       1.206   2.925  -3.540  0.00  0.00    +0.038 A 
BRANCH  19  21
ATOM     21  N   UNL     1       1.165   3.833  -5.847  0.00  0.00    +0.056 N 
ATOM     22  O   UNL     1       1.929   4.729  -5.534  0.00  0.00    -0.126 OA
ATOM     23  O   UNL     1       0.753   3.756  -6.991  0.00  0.00    -0.126 OA
ENDBRANCH  19  21
ENDBRANCH  12  15
BRANCH   1  24
ATOM     24  S   UNL     1      -2.921  -2.906   0.405  0.00  0.00    +0.072 S 
ATOM     25  O   UNL     1      -4.108  -2.167   0.155  0.00  0.00    -0.150 OA
ATOM     26  O   UNL     1      -2.627  -4.125  -0.265  0.00  0.00    -0.150 OA
BRANCH  24  27
ATOM     27  N   UNL     1      -2.905  -3.242   2.026  0.00  0.00    -0.216 N 
ATOM     28  H   UNL     1      -2.755  -4.150   2.332  0.00  0.00    +0.174 HD
BRANCH  27  32
ATOM     29  C   UNL     1      -3.505  -0.183   4.793  0.00  0.00    +0.120 A 
ATOM     30  C   UNL     1      -2.235  -0.711   4.608  0.00  0.00    +0.047 A 
ATOM     31  C   UNL     1      -2.036  -1.724   3.691  0.00  0.00    +0.028 A 
ATOM     32  C   UNL     1      -3.106  -2.215   2.955  0.00  0.00    +0.048 A 
ATOM     33  C   UNL     1      -4.375  -1.683   3.138  0.00  0.00    +0.028 A 
ATOM     34  C   UNL     1      -4.574  -0.673   4.059  0.00  0.00    +0.047 A 
BRANCH  29  36
ATOM     35  C   UNL     1      -5.033   1.312   5.835  0.00  0.00    +0.277 C 
ATOM     36  O   UNL     1      -3.700   0.816   5.696  0.00  0.00    -0.495 OA
ENDBRANCH  29  36
ENDBRANCH  27  32
ENDBRANCH  24  27
ENDBRANCH   1  24
TORSDOF 6
