REMARK  Name = ZINC23084538
REMARK  11 active torsions:
REMARK  status: ('A' for Active; 'I' for Inactive)
REMARK    1  A    between atoms: C_1  and  C_2
REMARK    2  A    between atoms: C_2  and  C_3
REMARK    3  A    between atoms: C_2  and  C_4
REMARK    4  A    between atoms: C_7  and  C_10
REMARK    5  A    between atoms: C_10  and  N_11
REMARK    6  A    between atoms: N_14  and  C_17
REMARK    7  A    between atoms: C_17  and  C_18
REMARK    8  A    between atoms: C_18  and  C_20
REMARK    9  A    between atoms: C_21  and  N_30
REMARK   10  A    between atoms: N_22  and  C_29
REMARK   11  A    between atoms: N_25  and  C_28
REMARK                            x       y       z     vdW  Elec       q    Type
REMARK                         _______ _______ _______ _____ _____    ______ ____
ROOT
ATOM      1  N   UNL     1      -2.528  -1.159  -1.719  0.00  0.00    -0.302 NA
ATOM      2  C   UNL     1      -3.716  -1.654  -2.429  0.00  0.00    +0.066 C 
ATOM      3  C   UNL     1      -4.173  -0.606  -3.446  0.00  0.00    -0.063 C 
ATOM      4  N   UNL     1      -3.078  -0.331  -4.387  0.00  0.00    +0.386 N 
ATOM      5  C   UNL     1      -1.890   0.165  -3.678  0.00  0.00    -0.063 C 
ATOM      6  C   UNL     1      -1.433  -0.883  -2.660  0.00  0.00    +0.066 C 
ATOM      7  H   UNL     1      -2.809  -1.276  -4.882  0.00  0.00    -0.081 HD
ENDROOT
BRANCH   1   8
ATOM      8  C   UNL     1      -2.103  -2.105  -0.679  0.00  0.00    +0.119 C 
BRANCH   8  12
ATOM      9  C   UNL     1      -5.087  -2.304   2.371  0.00  0.00    -0.045 A 
ATOM     10  C   UNL     1      -5.147  -3.162   1.288  0.00  0.00    +0.004 A 
ATOM     11  C   UNL     1      -4.181  -3.098   0.301  0.00  0.00    +0.005 A 
ATOM     12  C   UNL     1      -3.156  -2.175   0.397  0.00  0.00    -0.033 A 
ATOM     13  C   UNL     1      -3.093  -1.321   1.482  0.00  0.00    +0.005 A 
ATOM     14  C   UNL     1      -4.061  -1.382   2.466  0.00  0.00    +0.004 A 
BRANCH   9  16
ATOM     15  C   UNL     1      -5.479  -2.695   4.788  0.00  0.00    +0.012 C 
ATOM     16  C   UNL     1      -6.140  -2.373   3.446  0.00  0.00    +0.013 C 
ATOM     17  C   UNL     1      -6.860  -1.027   3.543  0.00  0.00    +0.012 C 
ENDBRANCH   9  16
ENDBRANCH   8  12
ENDBRANCH   1   8
BRANCH   4  18
ATOM     18  C   UNL     1      -3.503   0.616  -5.427  0.00  0.00    +0.003 C 
BRANCH  18  19
ATOM     19  C   UNL     1      -2.463   0.665  -6.517  0.00  0.00    +0.155 C 
ATOM     20  O   UNL     1      -1.514  -0.092  -6.485  0.00  0.00    -0.294 OA
BRANCH  19  21
ATOM     21  C   UNL     1      -2.593   1.591  -7.574  0.00  0.00    +0.118 A 
ATOM     22  C   UNL     1      -1.590   1.722  -8.550  0.00  0.00    +0.116 A 
ATOM     23  N   UNL     1      -1.763   2.628  -9.558  0.00  0.00    -0.284 N 
ATOM     24  C   UNL     1      -2.861   3.396  -9.624  0.00  0.00    +0.333 A 
ATOM     25  O   UNL     1      -2.965   4.191 -10.538  0.00  0.00    -0.246 OA
ATOM     26  N   UNL     1      -3.849   3.320  -8.717  0.00  0.00    -0.263 N 
ATOM     27  C   UNL     1      -3.777   2.452  -7.687  0.00  0.00    +0.269 A 
ATOM     28  O   UNL     1      -4.674   2.385  -6.867  0.00  0.00    -0.267 OA
ATOM     29  C   UNL     1      -5.020   4.189  -8.850  0.00  0.00    +0.157 C 
ATOM     30  C   UNL     1      -0.726   2.767 -10.583  0.00  0.00    +0.155 C 
BRANCH  22  31
ATOM     31  N   UNL     1      -0.467   0.955  -8.496  0.00  0.00    -0.344 N 
ATOM     32  H   UNL     1       0.312   1.064  -9.264  0.00  0.00    +0.144 HD
ATOM     33  H   UNL     1      -0.339   0.225  -7.683  0.00  0.00    +0.144 HD
ENDBRANCH  22  31
ENDBRANCH  19  21
ENDBRANCH  18  19
ENDBRANCH   4  18
TORSDOF 7
