REMARK  Name = ZINC08912073
REMARK  11 active torsions:
REMARK  status: ('A' for Active; 'I' for Inactive)
REMARK    1  A    between atoms: C_1  and  C_2
REMARK    2  A    between atoms: C_2  and  N_70
REMARK    3  A    between atoms: C_3  and  C_4
REMARK    4  A    between atoms: C_3  and  N_70
REMARK    5  A    between atoms: C_5  and  C_6
REMARK    6  A    between atoms: C_5  and  N_70
REMARK    7  A    between atoms: C_6  and  C_7
REMARK    8  A    between atoms: C_7  and  N_8
REMARK    9  A    between atoms: C_9  and  C_11
REMARK   10  A    between atoms: C_12  and  C_32
REMARK   11  A    between atoms: C_20  and  O_31
REMARK                            x       y       z     vdW  Elec       q    Type
REMARK                         _______ _______ _______ _____ _____    ______ ____
ROOT
ATOM      1  C   UNL     1      -1.425   3.087  -0.846  0.00  0.00    +0.193 A 
ATOM      2  C   UNL     1      -0.659   4.200  -0.984  0.00  0.00    +0.008 A 
ATOM      3  C   UNL     1      -1.582   5.334  -0.943  0.00  0.00    +0.033 A 
ATOM      4  C   UNL     1      -2.862   4.779  -0.773  0.00  0.00    +0.137 A 
ATOM      5  O   UNL     1      -2.722   3.438  -0.730  0.00  0.00    -0.450 OA
ATOM      6  C   UNL     1      -3.962   5.624  -0.694  0.00  0.00    +0.050 A 
ATOM      7  C   UNL     1      -3.790   6.985  -0.789  0.00  0.00    +0.049 A 
ATOM      8  C   UNL     1      -2.520   7.543  -0.965  0.00  0.00    +0.128 A 
ATOM      9  C   UNL     1      -1.416   6.722  -1.033  0.00  0.00    +0.034 A 
ATOM     10  C   UNL     1      -0.034   7.286  -1.196  0.00  0.00    +0.152 C 
ATOM     11  C   UNL     1      -0.061   8.727  -1.664  0.00  0.00    +0.084 C 
ATOM     12  C   UNL     1      -1.158   9.536  -0.983  0.00  0.00    +0.113 C 
ATOM     13  O   UNL     1      -2.416   8.886  -1.082  0.00  0.00    -0.485 OA
ATOM     14  C   UNL     1      -0.804   9.787   0.460  0.00  0.00    +0.048 C 
ATOM     15  C   UNL     1      -2.038   9.861   1.375  0.00  0.00    +0.004 C 
ATOM     16  C   UNL     1      -3.200  10.655   0.750  0.00  0.00    +0.000 C 
ATOM     17  C   UNL     1      -2.731  11.902   0.050  0.00  0.00    +0.000 C 
ATOM     18  C   UNL     1      -2.525  11.575  -1.444  0.00  0.00    +0.004 C 
ATOM     19  C   UNL     1      -1.260  10.903  -1.696  0.00  0.00    +0.048 C 
ATOM     20  C   UNL     1       0.838   4.256  -1.148  0.00  0.00    +0.048 C 
ENDROOT
BRANCH   1  22
ATOM     21  N   UNL     1      -1.773   0.677  -0.687  0.00  0.00    -0.309 N 
ATOM     22  C   UNL     1      -0.917   1.708  -0.831  0.00  0.00    +0.280 C 
ATOM     23  O   UNL     1       0.275   1.497  -0.949  0.00  0.00    -0.267 OA
ATOM     24  H   UNL     1      -2.723   0.845  -0.593  0.00  0.00    +0.149 HD
BRANCH  21  25
ATOM     25  C   UNL     1      -1.267  -0.698  -0.672  0.00  0.00    +0.103 C 
BRANCH  25  26
ATOM     26  C   UNL     1      -2.436  -1.670  -0.497  0.00  0.00    +0.000 C 
BRANCH  26  27
ATOM     27  C   UNL     1      -1.907  -3.106  -0.482  0.00  0.00    -0.077 C 
BRANCH  27  28
ATOM     28  N   UNL     1      -3.050  -4.032  -0.334  0.00  0.00    +0.379 N 
ATOM     29  H   UNL     1      -3.756  -3.807  -1.044  0.00  0.00    -0.082 HD
BRANCH  28  31
ATOM     30  C   UNL     1      -2.414  -5.675  -2.029  0.00  0.00    -0.017 C 
ATOM     31  C   UNL     1      -2.598  -5.426  -0.530  0.00  0.00    -0.082 C 
ENDBRANCH  28  31
BRANCH  28  32
ATOM     32  C   UNL     1      -3.652  -3.881   1.008  0.00  0.00    -0.082 C 
ATOM     33  C   UNL     1      -5.027  -4.552   1.007  0.00  0.00    -0.017 C 
ENDBRANCH  28  32
ENDBRANCH  27  28
ENDBRANCH  26  27
ENDBRANCH  25  26
ENDBRANCH  21  25
ENDBRANCH   1  22
BRANCH  10  34
ATOM     34  O   UNL     1       0.679   6.500  -2.154  0.00  0.00    -0.387 OA
ATOM     35  H   UNL     1       1.605   6.755  -2.260  0.00  0.00    +0.210 HD
ENDBRANCH  10  34
TORSDOF 8
