REMARK  Name = ZINC04601958
REMARK  6 active torsions:
REMARK  status: ('A' for Active; 'I' for Inactive)
REMARK    1  A    between atoms: C_1  and  C_2
REMARK    2  A    between atoms: C_2  and  C_3
REMARK    3  A    between atoms: C_10  and  C_12
REMARK    4  A    between atoms: C_16  and  N_18
REMARK    5  A    between atoms: C_19  and  C_20
REMARK    6  A    between atoms: C_25  and  O_26
REMARK                            x       y       z     vdW  Elec       q    Type
REMARK                         _______ _______ _______ _____ _____    ______ ____
ROOT
ATOM      1  C   UNL     1      -1.949   5.288   5.758  0.00  0.00    +0.039 A 
ATOM      2  C   UNL     1      -1.159   6.441   5.757  0.00  0.00    +0.013 A 
ATOM      3  C   UNL     1      -1.326   7.398   6.738  0.00  0.00    +0.003 A 
ATOM      4  C   UNL     1      -2.274   7.224   7.726  0.00  0.00    +0.028 A 
ATOM      5  C   UNL     1      -3.071   6.077   7.740  0.00  0.00    +0.065 A 
ATOM      6  C   UNL     1      -2.911   5.109   6.749  0.00  0.00    +0.041 A 
ENDROOT
BRANCH   1  14
ATOM      7  C   UNL     1      -0.718   1.572   1.248  0.00  0.00    -0.045 A 
ATOM      8  C   UNL     1      -1.722   0.802   1.816  0.00  0.00    +0.007 A 
ATOM      9  C   UNL     1      -2.378   1.232   2.951  0.00  0.00    +0.049 A 
ATOM     10  C   UNL     1      -2.033   2.443   3.530  0.00  0.00    +0.156 A 
ATOM     11  C   UNL     1      -1.016   3.227   2.959  0.00  0.00    +0.110 A 
ATOM     12  C   UNL     1      -0.358   2.775   1.813  0.00  0.00    +0.035 A 
ATOM     13  N   UNL     1      -0.900   4.338   3.730  0.00  0.00    -0.209 NA
ATOM     14  C   UNL     1      -1.768   4.265   4.707  0.00  0.00    +0.228 A 
ATOM     15  O   UNL     1      -2.474   3.122   4.613  0.00  0.00    -0.435 OA
BRANCH   7  17
ATOM     16  C   UNL     1      -0.753   1.593  -1.232  0.00  0.00    +0.009 C 
ATOM     17  C   UNL     1      -0.013   1.086   0.008  0.00  0.00    +0.032 C 
ENDBRANCH   7  17
ENDBRANCH   1  14
BRANCH   5  18
ATOM     18  N   UNL     1      -4.011   5.906   8.721  0.00  0.00    -0.255 NA
ATOM     19  C   UNL     1      -3.709   6.154   9.964  0.00  0.00    +0.123 C 
BRANCH  19  20
ATOM     20  C   UNL     1      -4.718   5.971  11.017  0.00  0.00    +0.037 A 
ATOM     21  C   UNL     1      -4.398   6.236  12.353  0.00  0.00    +0.033 A 
ATOM     22  C   UNL     1      -5.350   6.062  13.335  0.00  0.00    +0.043 A 
ATOM     23  C   UNL     1      -6.623   5.625  13.005  0.00  0.00    +0.043 A 
ATOM     24  C   UNL     1      -6.953   5.360  11.690  0.00  0.00    +0.084 A 
ATOM     25  C   UNL     1      -6.010   5.535  10.688  0.00  0.00    +0.144 A 
ATOM     26 CL   UNL     1      -8.552   4.813  11.290  0.00  0.00    -0.080 Cl
ATOM     27 CL   UNL     1      -4.951   6.391  14.992  0.00  0.00    -0.083 Cl
BRANCH  25  28
ATOM     28  O   UNL     1      -6.335   5.280   9.394  0.00  0.00    -0.505 OA
ATOM     29  H   UNL     1      -6.171   4.367   9.120  0.00  0.00    +0.292 HD
ENDBRANCH  25  28
ENDBRANCH  19  20
ENDBRANCH   5  18
TORSDOF 5
