REMARK  Name = ZINC58594940
REMARK  8 active torsions:
REMARK  status: ('A' for Active; 'I' for Inactive)
REMARK    1  A    between atoms: C_1  and  C_2
REMARK    2  A    between atoms: C_2  and  C_4
REMARK    3  A    between atoms: C_2  and  S_20
REMARK    4  A    between atoms: N_6  and  C_7
REMARK    5  A    between atoms: N_11  and  C_13
REMARK    6  A    between atoms: C_13  and  C_14
REMARK    7  A    between atoms: S_20  and  C_21
REMARK    8  A    between atoms: N_26  and  C_27
REMARK                            x       y       z     vdW  Elec       q    Type
REMARK                         _______ _______ _______ _____ _____    ______ ____
ROOT
ATOM      1  C   UNL     1       0.707  -0.490  -1.238  0.00  0.00    +0.226 C 
ATOM      2  O   UNL     1       1.864  -0.849  -1.176  0.00  0.00    -0.275 OA
ATOM      3  N   UNL     1       0.053  -0.526  -2.415  0.00  0.00    -0.313 N 
ATOM      4  H   UNL     1      -0.873  -0.239  -2.465  0.00  0.00    +0.149 HD
ENDROOT
BRANCH   3   5
ATOM      5  C   UNL     1       0.738  -0.999  -3.621  0.00  0.00    +0.055 C 
ATOM      6  C   UNL     1       0.601  -2.533  -3.749  0.00  0.00    +0.002 C 
ATOM      7  C   UNL     1      -0.594  -2.694  -4.721  0.00  0.00    -0.077 C 
ATOM      8  N   UNL     1      -0.402  -1.579  -5.684  0.00  0.00    +0.384 N 
ATOM      9  C   UNL     1       0.062  -0.425  -4.880  0.00  0.00    -0.056 C 
ATOM     10  H   UNL     1       0.295  -1.828  -6.369  0.00  0.00    -0.081 HD
BRANCH   8  11
ATOM     11  C   UNL     1      -1.673  -1.257  -6.346  0.00  0.00    -0.043 C 
BRANCH  11  12
ATOM     12  C   UNL     1      -2.095  -2.414  -7.214  0.00  0.00    -0.064 A 
ATOM     13  C   UNL     1      -1.684  -2.475  -8.533  0.00  0.00    +0.002 A 
ATOM     14  C   UNL     1      -2.071  -3.536  -9.329  0.00  0.00    +0.000 A 
ATOM     15  C   UNL     1      -2.869  -4.537  -8.807  0.00  0.00    +0.000 A 
ATOM     16  C   UNL     1      -3.279  -4.477  -7.489  0.00  0.00    +0.000 A 
ATOM     17  C   UNL     1      -2.889  -3.417  -6.691  0.00  0.00    +0.002 A 
ENDBRANCH  11  12
ENDBRANCH   8  11
ENDBRANCH   3   5
BRANCH   1  19
ATOM     18  C   UNL     1      -0.019   1.526   0.010  0.00  0.00    +0.029 C 
ATOM     19  C   UNL     1       0.002  -0.004   0.002  0.00  0.00    +0.136 C 
BRANCH  19  20
ATOM     20  S   UNL     1       0.879  -0.605   1.472  0.00  0.00    -0.084 S 
BRANCH  20  21
ATOM     21  C   UNL     1      -0.136  -0.087   2.816  0.00  0.00    +0.161 A 
ATOM     22  N   UNL     1      -1.275   0.577   2.795  0.00  0.00    -0.133 NA
ATOM     23  N   UNL     1      -1.911   0.882   3.976  0.00  0.00    -0.125 NA
ATOM     24  C   UNL     1      -1.378   0.510   5.123  0.00  0.00    +0.183 A 
ATOM     25  S   UNL     1       0.100  -0.327   4.570  0.00  0.00    -0.025 S 
ATOM     26  N   UNL     1      -1.844   0.711   6.418  0.00  0.00    -0.319 N 
ATOM     27  H   UNL     1      -1.337   0.376   7.173  0.00  0.00    +0.148 HD
BRANCH  26  28
ATOM     28  C   UNL     1      -3.101   1.430   6.640  0.00  0.00    +0.072 C 
ATOM     29  C   UNL     1      -2.831   2.936   6.660  0.00  0.00    +0.022 C 
ATOM     30  C   UNL     1      -4.144   3.686   6.892  0.00  0.00    +0.002 C 
ATOM     31  C   UNL     1      -4.746   3.258   8.232  0.00  0.00    +0.000 C 
ATOM     32  C   UNL     1      -5.016   1.752   8.212  0.00  0.00    +0.002 C 
ATOM     33  C   UNL     1      -3.703   1.002   7.980  0.00  0.00    +0.022 C 
ENDBRANCH  26  28
ENDBRANCH  20  21
ENDBRANCH  19  20
ENDBRANCH   1  19
TORSDOF 7
