REMARK  Name = ZINC31806998
REMARK  6 active torsions:
REMARK  status: ('A' for Active; 'I' for Inactive)
REMARK    1  A    between atoms: C_1  and  C_2
REMARK    2  A    between atoms: C_22  and  C_24
REMARK    3  A    between atoms: C_27  and  O_30
REMARK    4  A    between atoms: O_30  and  C_31
REMARK    5  A    between atoms: C_31  and  C_32
REMARK    6  A    between atoms: C_31  and  C_33
REMARK                            x       y       z     vdW  Elec       q    Type
REMARK                         _______ _______ _______ _____ _____    ______ ____
ROOT
ATOM      1  C   UNL     1       0.167   1.416   0.010  0.00  0.00    +0.068 C 
ATOM      2  C   UNL     1       0.047  -0.085  -0.041  0.00  0.00    +0.067 A 
ATOM      3  C   UNL     1      -0.117  -0.857  -1.211  0.00  0.00    +0.033 A 
ATOM      4  C   UNL     1      -0.185  -2.155  -0.844  0.00  0.00    +0.135 A 
ATOM      5  N   UNL     1      -0.064  -2.192   0.529  0.00  0.00    -0.197 N 
ATOM      6  N   UNL     1       0.083  -0.883   0.988  0.00  0.00    -0.168 NA
ATOM      7  C   UNL     1      -0.079  -3.338   1.321  0.00  0.00    +0.187 A 
ATOM      8  C   UNL     1      -0.868  -3.400   2.479  0.00  0.00    +0.152 A 
ATOM      9  C   UNL     1      -0.843  -4.584   3.238  0.00  0.00    +0.163 A 
ATOM     10  N   UNL     1      -1.690  -4.373   4.296  0.00  0.00    -0.329 N 
ATOM     11  H   UNL     1      -1.892  -5.004   5.005  0.00  0.00    +0.168 HD
ATOM     12  C   UNL     1      -2.197  -3.114   4.170  0.00  0.00    +0.198 A 
ATOM     13  N   UNL     1      -1.714  -2.545   3.103  0.00  0.00    -0.231 NA
ATOM     14  N   UNL     1      -0.080  -5.593   2.834  0.00  0.00    -0.216 NA
ATOM     15  C   UNL     1       0.644  -5.489   1.739  0.00  0.00    +0.226 A 
ATOM     16  N   UNL     1       0.648  -4.399   0.993  0.00  0.00    -0.214 NA
ATOM     17  N   UNL     1      -0.345  -3.307  -1.574  0.00  0.00    -0.269 N 
ATOM     18  C   UNL     1      -0.436  -3.587  -2.839  0.00  0.00    +0.228 C 
ATOM     19  O   UNL     1      -0.469  -4.772  -3.099  0.00  0.00    -0.275 OA
ATOM     20  C   UNL     1      -0.506  -2.692  -4.013  0.00  0.00    +0.166 C 
ATOM     21  S   UNL     1       0.549  -1.244  -3.856  0.00  0.00    -0.138 S 
ATOM     22  C   UNL     1      -0.188  -0.232  -2.569  0.00  0.00    +0.112 C 
ATOM     23  H   UNL     1      -0.403  -4.097  -1.013  0.00  0.00    +0.156 HD
ENDROOT
BRANCH  22  24
ATOM     24  C   UNL     1       0.527   1.094  -2.529  0.00  0.00    -0.030 A 
ATOM     25  C   UNL     1       1.869   1.145  -2.199  0.00  0.00    +0.008 A 
ATOM     26  C   UNL     1       2.526   2.360  -2.161  0.00  0.00    +0.046 A 
ATOM     27  C   UNL     1       1.839   3.529  -2.455  0.00  0.00    +0.121 A 
ATOM     28  C   UNL     1       0.493   3.475  -2.786  0.00  0.00    +0.046 A 
ATOM     29  C   UNL     1      -0.159   2.257  -2.828  0.00  0.00    +0.008 A 
BRANCH  27  30
ATOM     30  O   UNL     1       2.483   4.725  -2.418  0.00  0.00    -0.489 OA
BRANCH  30  31
ATOM     31  C   UNL     1       1.689   5.896  -2.618  0.00  0.00    +0.167 C 
ATOM     32  C   UNL     1       2.365   7.092  -1.945  0.00  0.00    +0.051 C 
ATOM     33  C   UNL     1       1.549   6.166  -4.118  0.00  0.00    +0.051 C 
ENDBRANCH  30  31
ENDBRANCH  27  30
ENDBRANCH  22  24
TORSDOF 3
