REMARK  Name = ZINC59394057
REMARK  14 active torsions:
REMARK  status: ('A' for Active; 'I' for Inactive)
REMARK    1  A    between atoms: C_1  and  C_2
REMARK    2  A    between atoms: C_2  and  N_3
REMARK    3  A    between atoms: N_3  and  C_4
REMARK    4  A    between atoms: N_3  and  C_6
REMARK    5  A    between atoms: C_4  and  C_5
REMARK    6  A    between atoms: C_6  and  C_7
REMARK    7  A    between atoms: C_7  and  O_8
REMARK    8  A    between atoms: O_8  and  C_9
REMARK    9  A    between atoms: C_12  and  N_15
REMARK   10  A    between atoms: C_16  and  C_18
REMARK   11  A    between atoms: C_18  and  C_19
REMARK   12  A    between atoms: C_19  and  C_20
REMARK   13  A    between atoms: C_20  and  N_21
REMARK   14  A    between atoms: N_24  and  C_25
REMARK                            x       y       z     vdW  Elec       q    Type
REMARK                         _______ _______ _______ _____ _____    ______ ____
ROOT
ATOM      1  N   UNL     1       3.771  -3.885   7.720  0.00  0.00    -0.285 N 
ATOM      2  C   UNL     1       3.063  -3.832   8.865  0.00  0.00    +0.217 C 
ATOM      3  O   UNL     1       1.894  -3.510   8.841  0.00  0.00    -0.275 OA
ATOM      4  H   UNL     1       4.685  -4.210   7.729  0.00  0.00    +0.155 HD
ENDROOT
BRANCH   1   8
ATOM      5  C   UNL     1       2.034  -2.650   4.136  0.00  0.00    +0.121 A 
ATOM      6  C   UNL     1       1.706  -2.009   5.322  0.00  0.00    +0.047 A 
ATOM      7  C   UNL     1       2.281  -2.418   6.509  0.00  0.00    +0.027 A 
ATOM      8  C   UNL     1       3.187  -3.470   6.515  0.00  0.00    +0.034 A 
ATOM      9  C   UNL     1       3.515  -4.110   5.328  0.00  0.00    +0.027 A 
ATOM     10  C   UNL     1       2.935  -3.704   4.142  0.00  0.00    +0.047 A 
BRANCH   5  11
ATOM     11  O   UNL     1       1.468  -2.247   2.967  0.00  0.00    -0.494 OA
BRANCH  11  12
ATOM     12  C   UNL     1       0.549  -1.154   3.034  0.00  0.00    +0.210 C 
BRANCH  12  13
ATOM     13  C   UNL     1      -0.072  -0.925   1.655  0.00  0.00    -0.037 C 
BRANCH  13  14
ATOM     14  N   UNL     1      -0.830  -2.118   1.254  0.00  0.00    +0.382 N 
ATOM     15  H   UNL     1      -0.226  -2.926   1.284  0.00  0.00    -0.082 HD
BRANCH  14  17
ATOM     16  C   UNL     1      -2.672  -3.624   1.835  0.00  0.00    -0.017 C 
ATOM     17  C   UNL     1      -1.957  -2.315   2.176  0.00  0.00    -0.082 C 
ENDBRANCH  14  17
BRANCH  14  18
ATOM     18  C   UNL     1      -1.341  -1.938  -0.112  0.00  0.00    -0.082 C 
ATOM     19  C   UNL     1      -0.166  -1.849  -1.088  0.00  0.00    -0.017 C 
ENDBRANCH  14  18
ENDBRANCH  13  14
ENDBRANCH  12  13
ENDBRANCH  11  12
ENDBRANCH   5  11
ENDBRANCH   1   8
BRANCH   2  20
ATOM     20  C   UNL     1       3.724  -4.172  10.176  0.00  0.00    +0.097 C 
BRANCH  20  21
ATOM     21  C   UNL     1       2.708  -4.033  11.311  0.00  0.00    +0.028 C 
BRANCH  21  22
ATOM     22  C   UNL     1       3.379  -4.379  12.642  0.00  0.00    +0.106 C 
BRANCH  22  23
ATOM     23  N   UNL     1       2.405  -4.246  13.729  0.00  0.00    -0.299 N 
ATOM     24  C   UNL     1       2.775  -4.502  14.999  0.00  0.00    +0.300 C 
ATOM     25  O   UNL     1       3.916  -4.843  15.243  0.00  0.00    -0.253 OA
ATOM     26  N   UNL     1       1.879  -4.380  15.999  0.00  0.00    -0.297 N 
ATOM     27  H   UNL     1       1.495  -3.974  13.534  0.00  0.00    +0.150 HD
ATOM     28  H   UNL     1       0.969  -4.109  15.804  0.00  0.00    +0.151 HD
BRANCH  26  29
ATOM     29  C   UNL     1       2.281  -4.658  17.380  0.00  0.00    +0.074 C 
ATOM     30  C   UNL     1       2.163  -6.159  17.654  0.00  0.00    +0.022 C 
ATOM     31  C   UNL     1       2.582  -6.449  19.096  0.00  0.00    +0.002 C 
ATOM     32  C   UNL     1       1.671  -5.682  20.056  0.00  0.00    +0.000 C 
ATOM     33  C   UNL     1       1.790  -4.181  19.783  0.00  0.00    +0.002 C 
ATOM     34  C   UNL     1       1.370  -3.891  18.341  0.00  0.00    +0.022 C 
ENDBRANCH  26  29
ENDBRANCH  22  23
ENDBRANCH  21  22
ENDBRANCH  20  21
ENDBRANCH   2  20
TORSDOF 12
