REMARK  Name = ZINC01876414
REMARK  6 active torsions:
REMARK  status: ('A' for Active; 'I' for Inactive)
REMARK    1  A    between atoms: C_1  and  C_2
REMARK    2  A    between atoms: N_5  and  C_7
REMARK    3  A    between atoms: C_24  and  C_26
REMARK    4  A    between atoms: N_32  and  C_33
REMARK    5  A    between atoms: C_36  and  O_39
REMARK    6  A    between atoms: O_39  and  C_40
REMARK                            x       y       z     vdW  Elec       q    Type
REMARK                         _______ _______ _______ _____ _____    ______ ____
ROOT
ATOM      1  C   UNL     1       0.983   1.492  -0.096  0.00  0.00    +0.068 C 
ATOM      2  C   UNL     1       0.924  -0.014  -0.096  0.00  0.00    +0.068 A 
ATOM      3  C   UNL     1       0.667  -0.814  -1.198  0.00  0.00    +0.048 A 
ATOM      4  C   UNL     1       0.700  -2.137  -0.790  0.00  0.00    +0.164 A 
ATOM      5  N   UNL     1       0.976  -2.123   0.551  0.00  0.00    -0.214 N 
ATOM      6  N   UNL     1       1.113  -0.787   0.947  0.00  0.00    -0.169 NA
ATOM      7  N   UNL     1       0.481  -3.138  -1.671  0.00  0.00    -0.209 NA
ATOM      8  C   UNL     1       0.227  -2.964  -2.944  0.00  0.00    +0.169 C 
ATOM      9  C   UNL     1       0.003  -4.133  -3.815  0.00  0.00    +0.164 C 
ATOM     10  N   UNL     1      -0.253  -3.962  -5.088  0.00  0.00    -0.227 NA
ATOM     11  C   UNL     1      -0.320  -2.725  -5.642  0.00  0.00    +0.087 A 
ATOM     12  C   UNL     1      -0.596  -2.584  -7.008  0.00  0.00    +0.030 A 
ATOM     13  C   UNL     1      -0.664  -1.329  -7.569  0.00  0.00    +0.002 A 
ATOM     14  C   UNL     1      -0.461  -0.200  -6.790  0.00  0.00    +0.002 A 
ATOM     15  C   UNL     1      -0.188  -0.320  -5.443  0.00  0.00    +0.025 A 
ATOM     16  C   UNL     1      -0.115  -1.577  -4.857  0.00  0.00    +0.062 A 
ATOM     17  N   UNL     1       0.158  -1.710  -3.508  0.00  0.00    -0.266 N 
ATOM     18  C   UNL     1       0.379  -0.532  -2.656  0.00  0.00    +0.182 C 
ATOM     19  N   UNL     1       0.064  -5.409  -3.287  0.00  0.00    -0.297 N 
ATOM     20  H   UNL     1       0.172  -5.534  -2.331  0.00  0.00    +0.154 HD
ENDROOT
BRANCH   5  21
ATOM     21  C   UNL     1       1.102  -3.246   1.379  0.00  0.00    +0.068 A 
ATOM     22  C   UNL     1       0.313  -4.367   1.156  0.00  0.00    +0.028 A 
ATOM     23  C   UNL     1       0.440  -5.473   1.974  0.00  0.00    +0.002 A 
ATOM     24  C   UNL     1       1.351  -5.464   3.014  0.00  0.00    +0.000 A 
ATOM     25  C   UNL     1       2.137  -4.349   3.239  0.00  0.00    +0.002 A 
ATOM     26  C   UNL     1       2.020  -3.243   2.421  0.00  0.00    +0.028 A 
ENDBRANCH   5  21
BRANCH  18  27
ATOM     27  C   UNL     1       1.538   0.248  -3.222  0.00  0.00    +0.132 A 
ATOM     28  C   UNL     1       1.573   1.580  -3.408  0.00  0.00    +0.048 A 
ATOM     29  C   UNL     1       2.841   1.883  -3.956  0.00  0.00    +0.057 A 
ATOM     30  C   UNL     1       3.504   0.718  -4.073  0.00  0.00    +0.170 A 
ATOM     31  O   UNL     1       2.712  -0.268  -3.621  0.00  0.00    -0.451 OA
ATOM     32 BR   UNL     1       5.257   0.506  -4.750  0.00  0.00    -0.008 Br
ENDBRANCH  18  27
BRANCH  19  33
ATOM     33  C   UNL     1      -0.030  -6.521  -4.132  0.00  0.00    +0.033 A 
ATOM     34  C   UNL     1       0.558  -6.489  -5.390  0.00  0.00    +0.027 A 
ATOM     35  C   UNL     1       0.465  -7.587  -6.223  0.00  0.00    +0.047 A 
ATOM     36  C   UNL     1      -0.216  -8.720  -5.804  0.00  0.00    +0.120 A 
ATOM     37  C   UNL     1      -0.805  -8.752  -4.548  0.00  0.00    +0.047 A 
ATOM     38  C   UNL     1      -0.708  -7.658  -3.711  0.00  0.00    +0.027 A 
BRANCH  36  39
ATOM     39  O   UNL     1      -0.308  -9.800  -6.625  0.00  0.00    -0.495 OA
ATOM     40  C   UNL     1      -1.024 -10.933  -6.129  0.00  0.00    +0.277 C 
ENDBRANCH  36  39
ENDBRANCH  19  33
TORSDOF 4
