REMARK  Name = ZINC64491492
REMARK  11 active torsions:
REMARK  status: ('A' for Active; 'I' for Inactive)
REMARK    1  A    between atoms: C_1  and  O_2
REMARK    2  A    between atoms: O_2  and  C_3
REMARK    3  A    between atoms: C_6  and  N_9
REMARK    4  A    between atoms: C_10  and  C_12
REMARK    5  A    between atoms: C_16  and  C_19
REMARK    6  A    between atoms: C_19  and  C_20
REMARK    7  A    between atoms: C_20  and  C_21
REMARK    8  A    between atoms: C_21  and  C_22
REMARK    9  A    between atoms: N_24  and  C_25
REMARK   10  A    between atoms: C_25  and  C_26
REMARK   11  A    between atoms: C_26  and  C_27
REMARK                            x       y       z     vdW  Elec       q    Type
REMARK                         _______ _______ _______ _____ _____    ______ ____
ROOT
ATOM      1  C   UNL     1       4.252  -9.245   5.485  0.00  0.00    +0.012 C 
ENDROOT
BRANCH   1   2
ATOM      2  C   UNL     1       5.031  -7.971   5.152  0.00  0.00    +0.040 C 
BRANCH   2   6
ATOM      3  C   UNL     1       3.106  -4.522   5.545  0.00  0.00    +0.272 C 
ATOM      4  N   UNL     1       4.586  -4.528   5.487  0.00  0.00    -0.167 NA
ATOM      5  N   UNL     1       5.211  -5.550   5.693  0.00  0.00    -0.177 NA
ATOM      6  C   UNL     1       4.508  -6.815   6.008  0.00  0.00    +0.187 C 
ATOM      7  S   UNL     1       2.786  -6.342   5.526  0.00  0.00    -0.095 S 
BRANCH   3   9
ATOM      8  N   UNL     1       2.540  -2.503   4.231  0.00  0.00    -0.283 N 
ATOM      9  C   UNL     1       2.513  -3.847   4.335  0.00  0.00    +0.254 C 
ATOM     10  O   UNL     1       2.010  -4.513   3.455  0.00  0.00    -0.272 OA
ATOM     11  H   UNL     1       3.009  -1.975   4.896  0.00  0.00    +0.155 HD
BRANCH   8  15
ATOM     12  C   UNL     1       0.610  -0.617   1.052  0.00  0.00    +0.120 A 
ATOM     13  C   UNL     1       0.087  -1.786   1.586  0.00  0.00    +0.047 A 
ATOM     14  C   UNL     1       0.726  -2.411   2.639  0.00  0.00    +0.027 A 
ATOM     15  C   UNL     1       1.892  -1.870   3.163  0.00  0.00    +0.034 A 
ATOM     16  C   UNL     1       2.416  -0.700   2.628  0.00  0.00    +0.027 A 
ATOM     17  C   UNL     1       1.779  -0.079   1.572  0.00  0.00    +0.047 A 
BRANCH  12  19
ATOM     18  C   UNL     1      -1.218  -0.611  -0.469  0.00  0.00    +0.277 C 
ATOM     19  O   UNL     1      -0.019  -0.002   0.016  0.00  0.00    -0.495 OA
ENDBRANCH  12  19
ENDBRANCH   8  15
ENDBRANCH   3   9
ENDBRANCH   2   6
ENDBRANCH   1   2
BRANCH   1  20
ATOM     20  C   UNL     1       4.775 -10.400   4.630  0.00  0.00    +0.096 C 
BRANCH  20  21
ATOM     21  C   UNL     1       4.008 -11.656   4.958  0.00  0.00    +0.213 C 
ATOM     22  O   UNL     1       3.130 -11.629   5.795  0.00  0.00    -0.276 OA
ATOM     23  N   UNL     1       4.298 -12.808   4.323  0.00  0.00    -0.315 N 
ATOM     24  H   UNL     1       5.000 -12.830   3.654  0.00  0.00    +0.149 HD
BRANCH  23  25
ATOM     25  C   UNL     1       3.553 -14.028   4.642  0.00  0.00    +0.108 C 
BRANCH  25  26
ATOM     26  C   UNL     1       4.076 -15.184   3.787  0.00  0.00    +0.052 C 
BRANCH  26  27
ATOM     27  C   UNL     1       3.309 -16.439   4.115  0.00  0.00    -0.040 C 
ATOM     28  C   UNL     1       2.230 -16.927   3.462  0.00  0.00    +0.000 A 
ATOM     29  C   UNL     1       1.475 -16.453   2.296  0.00  0.00    +0.030 A 
ATOM     30  C   UNL     1       0.413 -17.173   1.864  0.00  0.00    +0.042 A 
ATOM     31  C   UNL     1       0.018 -18.358   2.502  0.00  0.00    +0.022 A 
ATOM     32  C   UNL     1       0.661 -18.856   3.579  0.00  0.00    +0.027 A 
ATOM     33  C   UNL     1       1.791 -18.180   4.117  0.00  0.00    +0.043 A 
ATOM     34  N   UNL     1       2.570 -18.456   5.136  0.00  0.00    -0.380 N 
ATOM     35  C   UNL     1       3.595 -17.412   5.238  0.00  0.00    +0.144 C 
ATOM     36 CL   UNL     1      -0.482 -16.615   0.485  0.00  0.00    -0.084 Cl
ATOM     37  H   UNL     1       2.484 -19.225   5.721  0.00  0.00    +0.160 HD
ENDBRANCH  26  27
ENDBRANCH  25  26
ENDBRANCH  23  25
ENDBRANCH  20  21
ENDBRANCH   1  20
TORSDOF 10
