REMARK  Name = ZINC13372139
REMARK  11 active torsions:
REMARK  status: ('A' for Active; 'I' for Inactive)
REMARK    1  A    between atoms: C_1  and  C_2
REMARK    2  A    between atoms: C_2  and  C_3
REMARK    3  A    between atoms: C_3  and  C_4
REMARK    4  A    between atoms: C_5  and  C_20
REMARK    5  A    between atoms: N_8  and  C_11
REMARK    6  A    between atoms: C_14  and  N_17
REMARK    7  A    between atoms: N_21  and  C_22
REMARK    8  A    between atoms: C_22  and  C_23
REMARK    9  A    between atoms: C_23  and  C_24
REMARK   10  A    between atoms: C_27  and  S_30
REMARK   11  A    between atoms: S_30  and  N_33
REMARK                            x       y       z     vdW  Elec       q    Type
REMARK                         _______ _______ _______ _____ _____    ______ ____
ROOT
ATOM      1  C   UNL     1      -1.413  -2.041   0.005  0.00  0.00    +0.047 A 
ATOM      2  C   UNL     1      -1.494  -2.854   1.116  0.00  0.00    +0.077 A 
ATOM      3  C   UNL     1      -1.437  -4.240   0.626  0.00  0.00    +0.280 A 
ATOM      4  O   UNL     1      -1.480  -5.253   1.300  0.00  0.00    -0.265 OA
ATOM      5  N   UNL     1      -1.327  -4.168  -0.717  0.00  0.00    -0.219 N 
ATOM      6  N   UNL     1      -1.318  -2.821  -1.091  0.00  0.00    -0.293 N 
ATOM      7  H   UNL     1      -1.251  -2.497  -2.003  0.00  0.00    +0.187 HD
ENDROOT
BRANCH   5   8
ATOM      8  C   UNL     1      -1.240  -5.259  -1.589  0.00  0.00    +0.067 A 
ATOM      9  C   UNL     1      -1.124  -5.049  -2.957  0.00  0.00    +0.030 A 
ATOM     10  C   UNL     1      -1.039  -6.128  -3.814  0.00  0.00    +0.035 A 
ATOM     11  C   UNL     1      -1.071  -7.416  -3.313  0.00  0.00    +0.126 A 
ATOM     12  C   UNL     1      -1.187  -7.629  -1.952  0.00  0.00    +0.035 A 
ATOM     13  C   UNL     1      -1.266  -6.554  -1.087  0.00  0.00    +0.030 A 
BRANCH  11  14
ATOM     14  N   UNL     1      -0.980  -8.570  -4.236  0.00  0.00    +0.056 N 
ATOM     15  O   UNL     1      -0.879  -8.386  -5.426  0.00  0.00    -0.126 OA
ATOM     16  O   UNL     1      -1.007  -9.697  -3.799  0.00  0.00    -0.126 OA
ENDBRANCH  11  14
ENDBRANCH   5   8
BRANCH   2  17
ATOM     17  C   UNL     1      -1.615  -2.421   2.514  0.00  0.00    +0.093 C 
ATOM     18  N   UNL     1      -1.682  -3.304   3.462  0.00  0.00    -0.389 N 
ATOM     19  H   UNL     1      -1.653  -4.249   3.248  0.00  0.00    +0.159 HD
BRANCH  18  20
ATOM     20  C   UNL     1      -1.802  -2.872   4.857  0.00  0.00    +0.117 C 
BRANCH  20  21
ATOM     21  C   UNL     1      -3.155  -3.320   5.415  0.00  0.00    +0.056 C 
BRANCH  21  22
ATOM     22  C   UNL     1      -3.278  -2.876   6.850  0.00  0.00    -0.046 A 
ATOM     23  C   UNL     1      -2.839  -3.700   7.869  0.00  0.00    +0.005 A 
ATOM     24  C   UNL     1      -2.953  -3.293   9.185  0.00  0.00    +0.029 A 
ATOM     25  C   UNL     1      -3.505  -2.061   9.482  0.00  0.00    +0.105 A 
ATOM     26  C   UNL     1      -3.943  -1.236   8.463  0.00  0.00    +0.029 A 
ATOM     27  C   UNL     1      -3.825  -1.642   7.147  0.00  0.00    +0.005 A 
BRANCH  25  28
ATOM     28  S   UNL     1      -3.650  -1.542  11.160  0.00  0.00    +0.056 S 
ATOM     29  O   UNL     1      -4.698  -0.583  11.199  0.00  0.00    -0.153 OA
ATOM     30  O   UNL     1      -3.668  -2.723  11.950  0.00  0.00    -0.153 OA
BRANCH  28  31
ATOM     31  N   UNL     1      -2.256  -0.736  11.546  0.00  0.00    -0.204 NA
ATOM     32  H   UNL     1      -1.556  -0.632  10.882  0.00  0.00    +0.144 HD
ATOM     33  H   UNL     1      -2.139  -0.367  12.435  0.00  0.00    +0.144 HD
ENDBRANCH  28  31
ENDBRANCH  25  28
ENDBRANCH  21  22
ENDBRANCH  20  21
ENDBRANCH  18  20
ENDBRANCH   2  17
BRANCH   1  34
ATOM     34  C   UNL     1      -1.433  -0.534   0.013  0.00  0.00    +0.055 C 
BRANCH  34  36
ATOM     35  C   UNL     1      -0.019   1.526   0.010  0.00  0.00    +0.004 C 
ATOM     36  C   UNL     1       0.002  -0.004   0.002  0.00  0.00    +0.003 C 
ENDBRANCH  34  36
ENDBRANCH   1  34
TORSDOF 10
