REMARK  Name = ZINC09670512
REMARK  14 active torsions:
REMARK  status: ('A' for Active; 'I' for Inactive)
REMARK    1  A    between atoms: C_1  and  C_2
REMARK    2  A    between atoms: C_6  and  C_8
REMARK    3  A    between atoms: N_10  and  C_11
REMARK    4  A    between atoms: C_11  and  C_13
REMARK    5  A    between atoms: C_11  and  C_17
REMARK    6  A    between atoms: C_13  and  C_14
REMARK    7  A    between atoms: C_14  and  S_15
REMARK    8  A    between atoms: S_15  and  C_16
REMARK    9  A    between atoms: C_17  and  O_19
REMARK   10  A    between atoms: O_19  and  C_20
REMARK   11  A    between atoms: C_20  and  C_21
REMARK   12  A    between atoms: N_23  and  C_24
REMARK   13  A    between atoms: C_27  and  S_30
REMARK   14  A    between atoms: S_30  and  N_33
REMARK                            x       y       z     vdW  Elec       q    Type
REMARK                         _______ _______ _______ _____ _____    ______ ____
ROOT
ATOM      1  C   UNL     1       1.018   3.457   0.603  0.00  0.00    +0.328 C 
ATOM      2  O   UNL     1      -0.080   3.772   0.995  0.00  0.00    -0.249 OA
ENDROOT
BRANCH   1   3
ATOM      3  C   UNL     1       1.240   2.096  -0.004  0.00  0.00    +0.183 C 
BRANCH   3   6
ATOM      4  C   UNL     1      -0.005   0.002  -0.010  0.00  0.00    +0.245 C 
ATOM      5  O   UNL     1       1.054  -0.595  -0.015  0.00  0.00    -0.270 OA
ATOM      6  N   UNL     1      -0.020   1.349  -0.004  0.00  0.00    -0.298 N 
ATOM      7  H   UNL     1      -0.866   1.825  -0.004  0.00  0.00    +0.150 HD
BRANCH   4  13
ATOM      8  C   UNL     1      -2.446  -4.351  -0.025  0.00  0.00    +0.044 C 
ATOM      9  C   UNL     1      -2.456  -2.844  -0.017  0.00  0.00    -0.050 A 
ATOM     10  C   UNL     1      -3.660  -2.162  -0.011  0.00  0.00    +0.003 A 
ATOM     11  C   UNL     1      -3.679  -0.779  -0.004  0.00  0.00    +0.001 A 
ATOM     12  C   UNL     1      -2.495  -0.070  -0.003  0.00  0.00    +0.013 A 
ATOM     13  C   UNL     1      -1.278  -0.752  -0.009  0.00  0.00    +0.037 A 
ATOM     14  C   UNL     1      -1.266  -2.147  -0.021  0.00  0.00    +0.016 A 
ENDBRANCH   4  13
ENDBRANCH   3   6
BRANCH   3  15
ATOM     15  C   UNL     1       1.739   2.253  -1.442  0.00  0.00    +0.044 C 
BRANCH  15  16
ATOM     16  C   UNL     1       2.083   0.878  -2.016  0.00  0.00    +0.071 C 
BRANCH  16  17
ATOM     17  S   UNL     1       2.675   1.065  -3.721  0.00  0.00    -0.164 S 
ATOM     18  C   UNL     1       3.035  -0.633  -4.249  0.00  0.00    +0.084 C 
ENDBRANCH  16  17
ENDBRANCH  15  16
ENDBRANCH   3  15
ENDBRANCH   1   3
BRANCH   1  19
ATOM     19  O   UNL     1       2.041   4.320   0.707  0.00  0.00    -0.454 OA
BRANCH  19  20
ATOM     20  C   UNL     1       1.754   5.613   1.302  0.00  0.00    +0.328 C 
BRANCH  20  21
ATOM     21  C   UNL     1       3.012   6.441   1.335  0.00  0.00    +0.255 C 
ATOM     22  O   UNL     1       4.049   5.987   0.901  0.00  0.00    -0.272 OA
ATOM     23  N   UNL     1       2.986   7.688   1.848  0.00  0.00    -0.283 N 
ATOM     24  H   UNL     1       2.144   8.077   2.134  0.00  0.00    +0.155 HD
BRANCH  23  25
ATOM     25  C   UNL     1       4.172   8.420   1.968  0.00  0.00    +0.034 A 
ATOM     26  C   UNL     1       4.351   9.283   3.042  0.00  0.00    +0.025 A 
ATOM     27  C   UNL     1       5.526   9.999   3.161  0.00  0.00    +0.030 A 
ATOM     28  C   UNL     1       6.517   9.868   2.206  0.00  0.00    +0.105 A 
ATOM     29  C   UNL     1       6.339   9.015   1.133  0.00  0.00    +0.030 A 
ATOM     30  C   UNL     1       5.170   8.290   1.012  0.00  0.00    +0.025 A 
BRANCH  28  31
ATOM     31  S   UNL     1       8.011  10.790   2.358  0.00  0.00    +0.056 S 
ATOM     32  O   UNL     1       8.157  11.103   3.736  0.00  0.00    -0.153 OA
ATOM     33  O   UNL     1       9.003  10.080   1.629  0.00  0.00    -0.153 OA
BRANCH  31  34
ATOM     34  N   UNL     1       7.782  12.228   1.568  0.00  0.00    -0.204 NA
ATOM     35  H   UNL     1       8.249  13.024   1.865  0.00  0.00    +0.144 HD
ATOM     36  H   UNL     1       7.181  12.273   0.808  0.00  0.00    +0.144 HD
ENDBRANCH  31  34
ENDBRANCH  28  31
ENDBRANCH  23  25
ENDBRANCH  20  21
ENDBRANCH  19  20
ENDBRANCH   1  19
TORSDOF 12
