REMARK  Name = ZINC59842824
REMARK  3 active torsions:
REMARK  status: ('A' for Active; 'I' for Inactive)
REMARK    1  A    between atoms: C_4  and  C_7
REMARK    2  A    between atoms: C_10  and  C_21
REMARK    3  A    between atoms: C_12  and  C_18
REMARK                            x       y       z     vdW  Elec       q    Type
REMARK                         _______ _______ _______ _____ _____    ______ ____
ROOT
ATOM      1  C   UNL     1       3.711  -0.707  -0.038  0.00  0.00    +0.033 C 
ATOM      2  C   UNL     1       3.740  -1.672  -1.224  0.00  0.00    +0.025 C 
ATOM      3  C   UNL     1       2.595  -2.678  -1.092  0.00  0.00    +0.117 C 
ATOM      4  C   UNL     1       2.756  -3.466   0.210  0.00  0.00    +0.117 C 
ATOM      5  C   UNL     1       2.727  -2.501   1.397  0.00  0.00    +0.031 C 
ATOM      6  C   UNL     1       3.872  -1.495   1.264  0.00  0.00    +0.065 C 
ATOM      7 BR   UNL     1       3.835  -0.255   2.789  0.00  0.00    -0.087 Br
ENDROOT
BRANCH   1  11
ATOM      8  C   UNL     1      -0.016   1.380   0.013  0.00  0.00    +0.000 A 
ATOM      9  C   UNL     1       0.406   0.691   1.135  0.00  0.00    +0.000 A 
ATOM     10  C   UNL     1       1.612   0.016   1.118  0.00  0.00    +0.004 A 
ATOM     11  C   UNL     1       2.396   0.029  -0.020  0.00  0.00    -0.043 A 
ATOM     12  C   UNL     1       1.974   0.717  -1.142  0.00  0.00    +0.004 A 
ATOM     13  C   UNL     1       0.769   1.393  -1.126  0.00  0.00    +0.000 A 
ENDBRANCH   1  11
BRANCH   4  14
ATOM     14  C   UNL     1       1.628  -4.456   0.341  0.00  0.00    +0.360 C 
ATOM     15  O   UNL     1       1.846  -5.576   0.772  0.00  0.00    -0.246 OA
ATOM     16  O   UNL     1       0.496  -4.138   0.016  0.00  0.00    -0.246 OA
ENDBRANCH   4  14
BRANCH   3  17
ATOM     17  C   UNL     1       2.623  -3.629  -2.261  0.00  0.00    +0.360 C 
ATOM     18  O   UNL     1       3.480  -3.513  -3.120  0.00  0.00    -0.246 OA
ATOM     19  O   UNL     1       1.789  -4.514  -2.347  0.00  0.00    -0.246 OA
ENDBRANCH   3  17
TORSDOF 3
