REMARK  Name = ZINC13467843
REMARK  3 active torsions:
REMARK  status: ('A' for Active; 'I' for Inactive)
REMARK    1  A    between atoms: C_4  and  C_7
REMARK    2  A    between atoms: C_14  and  N_67
REMARK    3  A    between atoms: C_18  and  C_20
REMARK                            x       y       z     vdW  Elec       q    Type
REMARK                         _______ _______ _______ _____ _____    ______ ____
ROOT
ATOM      1  C   UNL     1       4.155   3.886  -3.380  0.00  0.00    +0.009 C 
ATOM      2  C   UNL     1       4.412   2.857  -2.584  0.00  0.00    -0.043 C 
ATOM      3  C   UNL     1       5.231   1.681  -3.068  0.00  0.00    +0.033 C 
ATOM      4  C   UNL     1       4.458   0.390  -2.787  0.00  0.00    +0.005 C 
ATOM      5  C   UNL     1       4.073   0.334  -1.306  0.00  0.00    +0.007 C 
ATOM      6  C   UNL     1       3.137   1.495  -0.977  0.00  0.00    +0.031 C 
ATOM      7  C   UNL     1       3.893   2.822  -1.160  0.00  0.00    +0.108 C 
ATOM      8  O   UNL     1       5.010   2.803  -0.275  0.00  0.00    -0.503 OA
ATOM      9  C   UNL     1       4.836   2.432   1.025  0.00  0.00    +0.096 C 
ATOM     10  C   UNL     1       3.774   1.785   1.428  0.00  0.00    -0.025 C 
ATOM     11  C   UNL     1       2.663   1.411   0.468  0.00  0.00    +0.053 C 
ATOM     12  C   UNL     1       3.558   1.371   2.866  0.00  0.00    +0.035 C 
ATOM     13  C   UNL     1       4.867   1.395   3.649  0.00  0.00    +0.005 C 
ATOM     14  C   UNL     1       5.530   2.759   3.411  0.00  0.00    +0.008 C 
ATOM     15  C   UNL     1       5.969   2.813   1.951  0.00  0.00    +0.073 C 
ENDROOT
BRANCH   1  19
ATOM     16  C   UNL     1       6.051   4.163  -7.171  0.00  0.00    +0.000 A 
ATOM     17  C   UNL     1       4.729   4.548  -7.032  0.00  0.00    +0.001 A 
ATOM     18  C   UNL     1       4.107   4.460  -5.803  0.00  0.00    +0.008 A 
ATOM     19  C   UNL     1       4.814   3.982  -4.699  0.00  0.00    -0.025 A 
ATOM     20  C   UNL     1       6.149   3.601  -4.845  0.00  0.00    +0.008 A 
ATOM     21  C   UNL     1       6.757   3.688  -6.080  0.00  0.00    +0.001 A 
ENDBRANCH   1  19
BRANCH  11  22
ATOM     22  C   UNL     1       1.502   2.352   0.663  0.00  0.00    -0.040 A 
ATOM     23  C   UNL     1       1.704   3.585   1.254  0.00  0.00    +0.004 A 
ATOM     24  C   UNL     1       0.639   4.447   1.438  0.00  0.00    +0.000 A 
ATOM     25  C   UNL     1      -0.627   4.079   1.022  0.00  0.00    +0.000 A 
ATOM     26  C   UNL     1      -0.829   2.846   0.430  0.00  0.00    +0.000 A 
ATOM     27  C   UNL     1       0.236   1.983   0.250  0.00  0.00    +0.004 A 
ENDBRANCH  11  22
BRANCH   7  32
ATOM     28  C   UNL     1       3.750   5.249  -1.035  0.00  0.00    -0.073 C 
ATOM     29  C   UNL     1       2.614   6.285  -1.225  0.00  0.00    -0.020 C 
ATOM     30  C   UNL     1       1.580   5.513  -2.075  0.00  0.00    -0.020 C 
ATOM     31  C   UNL     1       1.891   4.024  -1.832  0.00  0.00    -0.073 C 
ATOM     32  N   UNL     1       3.004   3.990  -0.882  0.00  0.00    +0.409 N 
ATOM     33  H   UNL     1       2.640   3.917   0.075  0.00  0.00    -0.075 HD
ENDBRANCH   7  32
TORSDOF 3
