REMARK  Name = ZINC25603037
REMARK  5 active torsions:
REMARK  status: ('A' for Active; 'I' for Inactive)
REMARK    1  A    between atoms: C_4  and  C_7
REMARK    2  A    between atoms: C_7  and  N_8
REMARK    3  A    between atoms: C_12  and  C_14
REMARK    4  A    between atoms: C_14  and  C_15
REMARK    5  A    between atoms: C_15  and  N_16
REMARK                            x       y       z     vdW  Elec       q    Type
REMARK                         _______ _______ _______ _____ _____    ______ ____
ROOT
ATOM      1  N   UNL     1      -3.195  -0.131   1.904  0.00  0.00    -0.223 N 
ATOM      2  C   UNL     1      -3.290   1.055   1.257  0.00  0.00    +0.251 C 
ATOM      3  O   UNL     1      -3.920   2.012   1.653  0.00  0.00    -0.272 OA
ATOM      4  C   UNL     1      -2.482   0.901   0.002  0.00  0.00    +0.138 C 
ATOM      5  C   UNL     1      -3.291   1.164  -1.262  0.00  0.00    +0.040 C 
ATOM      6  C   UNL     1      -4.110   2.435  -1.174  0.00  0.00    +0.003 C 
ATOM      7  C   UNL     1      -3.292   3.709  -1.231  0.00  0.00    +0.005 C 
ATOM      8  C   UNL     1      -2.526   3.923   0.072  0.00  0.00    +0.035 C 
ATOM      9  C   UNL     1      -1.246   3.114   0.039  0.00  0.00    -0.042 A 
ATOM     10  C   UNL     1      -1.231   1.749   0.017  0.00  0.00    -0.012 A 
ATOM     11  C   UNL     1      -0.013   1.076   0.008  0.00  0.00    +0.006 A 
ATOM     12  C   UNL     1       1.175   1.780   0.000  0.00  0.00    +0.000 A 
ATOM     13  C   UNL     1       1.156   3.161   0.011  0.00  0.00    +0.000 A 
ATOM     14  C   UNL     1      -0.053   3.827   0.033  0.00  0.00    +0.004 A 
ATOM     15  N   UNL     1      -2.080  -0.522   0.016  0.00  0.00    -0.281 N 
ATOM     16  C   UNL     1      -2.508  -1.027   1.186  0.00  0.00    +0.310 C 
ATOM     17  O   UNL     1      -2.295  -2.167   1.552  0.00  0.00    -0.252 OA
ATOM     18  H   UNL     1      -1.538  -0.949  -0.840  0.00  0.00    +0.152 HD
ENDROOT
BRANCH   1  19
ATOM     19  C   UNL     1      -3.784  -0.398   3.218  0.00  0.00    +0.127 C 
BRANCH  19  20
ATOM     20  C   UNL     1      -5.206  -0.935   3.040  0.00  0.00    +0.115 C 
BRANCH  20  25
ATOM     21  N   UNL     1      -8.865  -2.418   5.782  0.00  0.00    -0.295 N 
ATOM     22  C   UNL     1      -7.610  -1.937   5.691  0.00  0.00    +0.306 C 
ATOM     23  O   UNL     1      -6.967  -1.723   6.700  0.00  0.00    -0.252 OA
ATOM     24  N   UNL     1      -7.068  -1.691   4.482  0.00  0.00    -0.240 N 
ATOM     25  C   UNL     1      -5.812  -1.209   4.392  0.00  0.00    +0.222 C 
ATOM     26  O   UNL     1      -5.171  -0.997   5.398  0.00  0.00    -0.275 OA
ATOM     27  H   UNL     1      -9.447  -2.611   4.869  0.00  0.00    +0.151 HD
ATOM     28  H   UNL     1      -7.650  -1.884   3.569  0.00  0.00    +0.159 HD
BRANCH  21  29
ATOM     29  C   UNL     1      -9.454  -2.685   7.096  0.00  0.00    +0.141 C 
BRANCH  29  33
ATOM     30  C   UNL     1     -13.424  -4.184   6.600  0.00  0.00    +0.000 A 
ATOM     31  C   UNL     1     -12.355  -5.059   6.644  0.00  0.00    +0.000 A 
ATOM     32  C   UNL     1     -11.070  -4.574   6.805  0.00  0.00    +0.005 A 
ATOM     33  C   UNL     1     -10.855  -3.214   6.921  0.00  0.00    -0.030 A 
ATOM     34  C   UNL     1     -11.924  -2.339   6.882  0.00  0.00    +0.005 A 
ATOM     35  C   UNL     1     -13.208  -2.823   6.716  0.00  0.00    +0.000 A 
ENDBRANCH  29  33
ENDBRANCH  21  29
ENDBRANCH  20  25
ENDBRANCH  19  20
ENDBRANCH   1  19
TORSDOF 5
