REMARK  Name = ZINC63731670
REMARK  12 active torsions:
REMARK  status: ('A' for Active; 'I' for Inactive)
REMARK    1  A    between atoms: C_1  and  C_2
REMARK    2  A    between atoms: C_2  and  C_3
REMARK    3  A    between atoms: C_2  and  C_4
REMARK    4  A    between atoms: C_4  and  N_5
REMARK    5  A    between atoms: C_6  and  N_31
REMARK    6  A    between atoms: C_8  and  C_15
REMARK    7  A    between atoms: N_11  and  C_14
REMARK    8  A    between atoms: C_15  and  C_17
REMARK    9  A    between atoms: C_17  and  S_18
REMARK   10  A    between atoms: S_18  and  C_19
REMARK   11  A    between atoms: C_25  and  O_29
REMARK   12  A    between atoms: O_29  and  C_30
REMARK                            x       y       z     vdW  Elec       q    Type
REMARK                         _______ _______ _______ _____ _____    ______ ____
ROOT
ATOM      1  C   UNL     1      -0.699   3.030   4.517  0.00  0.00    +0.177 C 
ATOM      2  O   UNL     1      -1.341   3.313   5.511  0.00  0.00    -0.291 OA
ENDROOT
BRANCH   1   5
ATOM      3  N   UNL     1      -0.084  -0.044   2.306  0.00  0.00    -0.265 N 
ATOM      4  C   UNL     1       0.085   1.330   2.805  0.00  0.00    +0.182 C 
ATOM      5  C   UNL     1      -0.785   1.749   3.973  0.00  0.00    +0.093 C 
ATOM      6  C   UNL     1      -1.666   0.814   4.477  0.00  0.00    +0.256 C 
ATOM      7  O   UNL     1      -2.462   1.139   5.516  0.00  0.00    -0.270 OA
ATOM      8  N   UNL     1      -1.739  -0.438   3.934  0.00  0.00    -0.225 N 
ATOM      9  C   UNL     1      -0.992  -0.842   2.900  0.00  0.00    +0.313 C 
ATOM     10  O   UNL     1      -1.134  -1.975   2.484  0.00  0.00    -0.252 OA
ATOM     11  C   UNL     1      -2.693  -1.388   4.512  0.00  0.00    +0.143 C 
BRANCH   4  12
ATOM     12  N   UNL     1      -0.178   2.252   1.692  0.00  0.00    -0.309 NA
ATOM     13  H   UNL     1       0.519   2.154   0.969  0.00  0.00    +0.120 HD
ATOM     14  H   UNL     1      -1.106   2.114   1.320  0.00  0.00    +0.120 HD
ENDBRANCH   4  12
BRANCH   3  15
ATOM     15  C   UNL     1       0.716  -0.533   1.180  0.00  0.00    +0.114 C 
BRANCH  15  17
ATOM     16  C   UNL     1       1.847  -2.241   2.610  0.00  0.00    +0.009 C 
ATOM     17  C   UNL     1       2.066  -1.036   1.694  0.00  0.00    +0.000 C 
ATOM     18  C   UNL     1       2.941  -1.449   0.509  0.00  0.00    +0.009 C 
ENDBRANCH  15  17
ENDBRANCH   3  15
ENDBRANCH   1   5
BRANCH   1  19
ATOM     19  C   UNL     1       0.190   4.063   3.875  0.00  0.00    +0.152 C 
BRANCH  19  20
ATOM     20  S   UNL     1       0.209   5.563   4.895  0.00  0.00    -0.107 S 
BRANCH  20  21
ATOM     21  C   UNL     1       1.308   6.691   3.995  0.00  0.00    +0.236 C 
ATOM     22  N   UNL     1       0.803   6.909   2.635  0.00  0.00    -0.355 N 
ATOM     23  C   UNL     1       1.716   6.491   1.806  0.00  0.00    +0.061 A 
ATOM     24  C   UNL     1       1.775   6.453   0.337  0.00  0.00    +0.031 A 
ATOM     25  C   UNL     1       2.865   5.956  -0.276  0.00  0.00    +0.048 A 
ATOM     26  C   UNL     1       4.006   5.447   0.475  0.00  0.00    +0.122 A 
ATOM     27  C   UNL     1       4.027   5.448   1.830  0.00  0.00    +0.073 A 
ATOM     28  C   UNL     1       2.880   5.972   2.574  0.00  0.00    +0.064 A 
ATOM     29  N   UNL     1       2.640   6.091   3.853  0.00  0.00    -0.355 N 
ATOM     30  H   UNL     1      -0.055   7.294   2.397  0.00  0.00    +0.162 HD
ATOM     31  H   UNL     1       3.233   5.830   4.575  0.00  0.00    +0.162 HD
BRANCH  26  32
ATOM     32  O   UNL     1       5.075   4.958  -0.201  0.00  0.00    -0.495 OA
ATOM     33  C   UNL     1       5.005   4.978  -1.628  0.00  0.00    +0.277 C 
ENDBRANCH  26  32
ENDBRANCH  20  21
ENDBRANCH  19  20
ENDBRANCH   1  19
TORSDOF 8
