REMARK  Name = ZINC21659060
REMARK  8 active torsions:
REMARK  status: ('A' for Active; 'I' for Inactive)
REMARK    1  A    between atoms: C_1  and  C_2
REMARK    2  A    between atoms: C_6  and  C_8
REMARK    3  A    between atoms: C_20  and  C_22
REMARK    4  A    between atoms: C_25  and  O_29
REMARK    5  A    between atoms: C_26  and  O_28
REMARK    6  A    between atoms: O_29  and  C_30
REMARK    7  A    between atoms: N_31  and  C_38
REMARK    8  A    between atoms: N_34  and  C_37
REMARK                            x       y       z     vdW  Elec       q    Type
REMARK                         _______ _______ _______ _____ _____    ______ ____
ROOT
ATOM      1  C   UNL     1       0.420   4.217  -2.527  0.00  0.00    +0.069 A 
ATOM      2  C   UNL     1       1.749   4.045  -2.825  0.00  0.00    +0.089 A 
ATOM      3  C   UNL     1       2.264   3.018  -1.884  0.00  0.00    +0.082 A 
ATOM      4  C   UNL     1       1.247   2.671  -1.108  0.00  0.00    +0.073 A 
ATOM      5  N   UNL     1       0.117   3.376  -1.502  0.00  0.00    -0.306 N 
ATOM      6  C   UNL     1      -1.123   3.166  -0.882  0.00  0.00    +0.068 A 
ATOM      7  C   UNL     1      -2.200   4.000  -1.113  0.00  0.00    +0.028 A 
ATOM      8  C   UNL     1      -3.401   3.767  -0.467  0.00  0.00    +0.002 A 
ATOM      9  C   UNL     1      -3.526   2.697   0.401  0.00  0.00    +0.002 A 
ATOM     10  C   UNL     1      -2.459   1.847   0.622  0.00  0.00    +0.025 A 
ATOM     11  C   UNL     1      -1.253   2.066  -0.032  0.00  0.00    +0.052 A 
ATOM     12  N   UNL     1      -0.174   1.197   0.167  0.00  0.00    -0.330 N 
ATOM     13  C   UNL     1       1.206   1.690   0.043  0.00  0.00    +0.150 C 
ATOM     14  N   UNL     1       3.611   2.637  -1.969  0.00  0.00    -0.294 N 
ATOM     15  C   UNL     1       4.365   3.238  -2.916  0.00  0.00    +0.332 A 
ATOM     16  O   UNL     1       5.532   2.906  -2.992  0.00  0.00    -0.246 OA
ATOM     17  N   UNL     1       3.936   4.167  -3.776  0.00  0.00    -0.263 N 
ATOM     18  C   UNL     1       2.661   4.633  -3.811  0.00  0.00    +0.266 A 
ATOM     19  O   UNL     1       2.300   5.480  -4.606  0.00  0.00    -0.267 OA
ATOM     20  C   UNL     1       4.897   4.714  -4.737  0.00  0.00    +0.157 C 
ATOM     21  C   UNL     1       4.178   1.630  -1.069  0.00  0.00    +0.154 C 
ATOM     22  H   UNL     1      -0.361   0.142   0.416  0.00  0.00    +0.147 HD
ENDROOT
BRANCH   1  28
ATOM     23  C   UNL     1      -3.784   5.010  -5.093  0.00  0.00    +0.044 C 
ATOM     24  C   UNL     1      -2.534   5.533  -4.433  0.00  0.00    -0.050 A 
ATOM     25  C   UNL     1      -2.256   6.889  -4.456  0.00  0.00    +0.003 A 
ATOM     26  C   UNL     1      -1.111   7.377  -3.854  0.00  0.00    +0.001 A 
ATOM     27  C   UNL     1      -0.237   6.515  -3.225  0.00  0.00    +0.010 A 
ATOM     28  C   UNL     1      -0.510   5.146  -3.197  0.00  0.00    -0.000 A 
ATOM     29  C   UNL     1      -1.667   4.659  -3.812  0.00  0.00    +0.013 A 
ENDBRANCH   1  28
BRANCH  13  30
ATOM     30  C   UNL     1       1.617   2.381   1.317  0.00  0.00    -0.018 A 
ATOM     31  C   UNL     1       2.780   2.003   1.963  0.00  0.00    +0.009 A 
ATOM     32  C   UNL     1       3.164   2.638   3.129  0.00  0.00    +0.050 A 
ATOM     33  C   UNL     1       2.377   3.648   3.660  0.00  0.00    +0.161 A 
ATOM     34  C   UNL     1       1.204   4.024   3.013  0.00  0.00    +0.159 A 
ATOM     35  C   UNL     1       0.828   3.388   1.841  0.00  0.00    +0.055 A 
BRANCH  34  36
ATOM     36  O   UNL     1       0.429   5.014   3.530  0.00  0.00    -0.503 OA
ATOM     37  H   UNL     1      -0.498   5.311   3.018  0.00  0.00    +0.292 HD
ENDBRANCH  34  36
BRANCH  33  38
ATOM     38  O   UNL     1       2.751   4.269   4.810  0.00  0.00    -0.491 OA
ATOM     39  C   UNL     1       3.967   3.830   5.419  0.00  0.00    +0.277 C 
ENDBRANCH  33  38
ENDBRANCH  13  30
TORSDOF 4
