REMARK  Name = ZINC14476007
REMARK  8 active torsions:
REMARK  status: ('A' for Active; 'I' for Inactive)
REMARK    1  A    between atoms: C_1  and  C_2
REMARK    2  A    between atoms: C_2  and  O_3
REMARK    3  A    between atoms: O_3  and  C_4
REMARK    4  A    between atoms: C_7  and  N_10
REMARK    5  A    between atoms: C_11  and  C_13
REMARK    6  A    between atoms: C_20  and  C_29
REMARK    7  A    between atoms: C_31  and  N_36
REMARK    8  A    between atoms: C_34  and  O_35
REMARK                            x       y       z     vdW  Elec       q    Type
REMARK                         _______ _______ _______ _____ _____    ______ ____
ROOT
ATOM      1  C   UNL     1       1.649  -7.896  -3.192  0.00  0.00    +0.058 A 
ATOM      2  C   UNL     1       1.013  -8.749  -2.287  0.00  0.00    +0.015 A 
ATOM      3  C   UNL     1       1.028 -10.110  -2.497  0.00  0.00    +0.001 A 
ATOM      4  C   UNL     1       1.680 -10.638  -3.601  0.00  0.00    +0.006 A 
ATOM      5  C   UNL     1       2.316  -9.814  -4.502  0.00  0.00    -0.019 A 
ATOM      6  C   UNL     1       2.297  -8.426  -4.319  0.00  0.00    +0.044 A 
ATOM      7  N   UNL     1       2.889  -7.561  -5.234  0.00  0.00    -0.336 N 
ATOM      8  C   UNL     1       3.594  -8.072  -6.430  0.00  0.00    +0.108 C 
ATOM      9  C   UNL     1       2.837  -9.318  -6.851  0.00  0.00    +0.029 C 
ATOM     10  C   UNL     1       3.041 -10.336  -5.680  0.00  0.00    +0.049 C 
ATOM     11  C   UNL     1       2.696 -11.638  -6.305  0.00  0.00    -0.023 C 
ATOM     12  C   UNL     1       2.958 -11.567  -7.604  0.00  0.00    -0.030 C 
ATOM     13  C   UNL     1       3.443 -10.156  -7.985  0.00  0.00    +0.033 C 
ATOM     14  H   UNL     1       2.839  -6.604  -5.084  0.00  0.00    +0.147 HD
ENDROOT
BRANCH   8  15
ATOM     15  C   UNL     1       5.020  -8.417  -6.085  0.00  0.00    +0.017 A 
ATOM     16  C   UNL     1       5.358  -8.745  -4.786  0.00  0.00    +0.041 A 
ATOM     17  C   UNL     1       6.666  -9.062  -4.470  0.00  0.00    +0.127 A 
ATOM     18  C   UNL     1       7.639  -9.052  -5.452  0.00  0.00    +0.036 A 
ATOM     19  C   UNL     1       7.307  -8.725  -6.752  0.00  0.00    +0.048 A 
ATOM     20  C   UNL     1       5.994  -8.412  -7.073  0.00  0.00    +0.122 A 
BRANCH  17  21
ATOM     21  N   UNL     1       7.025  -9.412  -3.077  0.00  0.00    +0.056 N 
ATOM     22  O   UNL     1       6.175  -9.420  -2.218  0.00  0.00    -0.126 OA
ATOM     23  O   UNL     1       8.168  -9.689  -2.799  0.00  0.00    -0.126 OA
ENDBRANCH  17  21
BRANCH  20  24
ATOM     24  O   UNL     1       5.663  -8.095  -8.353  0.00  0.00    -0.506 OA
ATOM     25  H   UNL     1       5.733  -7.152  -8.555  0.00  0.00    +0.292 HD
ENDBRANCH  20  24
ENDBRANCH   8  15
BRANCH   1  27
ATOM     26  N   UNL     1       1.113  -5.939  -1.829  0.00  0.00    -0.281 N 
ATOM     27  C   UNL     1       1.634  -6.439  -2.967  0.00  0.00    +0.250 C 
ATOM     28  O   UNL     1       2.092  -5.690  -3.808  0.00  0.00    -0.270 OA
ATOM     29  H   UNL     1       0.819  -6.538  -1.126  0.00  0.00    +0.155 HD
BRANCH  26  33
ATOM     30  C   UNL     1       0.770  -1.813  -1.334  0.00  0.00    +0.121 A 
ATOM     31  C   UNL     1       1.027  -2.624  -0.238  0.00  0.00    +0.047 A 
ATOM     32  C   UNL     1       1.141  -3.990  -0.401  0.00  0.00    +0.027 A 
ATOM     33  C   UNL     1       0.998  -4.553  -1.663  0.00  0.00    +0.034 A 
ATOM     34  C   UNL     1       0.740  -3.741  -2.759  0.00  0.00    +0.027 A 
ATOM     35  C   UNL     1       0.621  -2.375  -2.594  0.00  0.00    +0.047 A 
BRANCH  30  36
ATOM     36  O   UNL     1       0.657  -0.468  -1.173  0.00  0.00    -0.492 OA
BRANCH  36  38
ATOM     37  C   UNL     1       0.662   1.564   0.136  0.00  0.00    +0.048 C 
ATOM     38  C   UNL     1       0.822   0.043   0.152  0.00  0.00    +0.225 C 
ENDBRANCH  36  38
ENDBRANCH  30  36
ENDBRANCH  26  33
ENDBRANCH   1  27
TORSDOF 7
