REMARK  Name = ZINC46011099
REMARK  7 active torsions:
REMARK  status: ('A' for Active; 'I' for Inactive)
REMARK    1  A    between atoms: C_1  and  C_2
REMARK    2  A    between atoms: C_7  and  C_10
REMARK    3  A    between atoms: C_14  and  C_17
REMARK    4  A    between atoms: C_17  and  N_18
REMARK    5  A    between atoms: N_21  and  C_22
REMARK    6  A    between atoms: C_27  and  C_28
REMARK    7  A    between atoms: C_28  and  C_29
REMARK                            x       y       z     vdW  Elec       q    Type
REMARK                         _______ _______ _______ _____ _____    ______ ____
ROOT
ATOM      1  N   UNL     1       4.646   3.979  -5.155  0.00  0.00    -0.295 N 
ATOM      2  C   UNL     1       5.211   4.825  -6.039  0.00  0.00    +0.304 C 
ATOM      3  O   UNL     1       5.882   4.388  -6.954  0.00  0.00    -0.252 OA
ATOM      4  N   UNL     1       5.034   6.154  -5.908  0.00  0.00    -0.269 N 
ATOM      5  H   UNL     1       4.111   4.328  -4.424  0.00  0.00    +0.151 HD
ATOM      6  H   UNL     1       4.547   6.506  -5.147  0.00  0.00    +0.156 HD
ENDROOT
BRANCH   4   7
ATOM      7  C   UNL     1       5.553   7.027  -6.871  0.00  0.00    +0.038 A 
ATOM      8  C   UNL     1       6.650   6.649  -7.635  0.00  0.00    +0.023 A 
ATOM      9  C   UNL     1       7.159   7.513  -8.585  0.00  0.00    +0.002 A 
ATOM     10  C   UNL     1       6.577   8.753  -8.776  0.00  0.00    +0.000 A 
ATOM     11  C   UNL     1       5.485   9.133  -8.018  0.00  0.00    +0.006 A 
ATOM     12  C   UNL     1       4.968   8.271  -7.070  0.00  0.00    -0.017 A 
BRANCH  12  13
ATOM     13  C   UNL     1       3.773   8.683  -6.248  0.00  0.00    +0.132 C 
BRANCH  13  14
ATOM     14  C   UNL     1       4.242   9.273  -4.943  0.00  0.00    +0.215 C 
ATOM     15  O   UNL     1       5.428   9.351  -4.703  0.00  0.00    -0.276 OA
ATOM     16  N   UNL     1       3.342   9.713  -4.041  0.00  0.00    -0.329 N 
ATOM     17  H   UNL     1       2.393   9.650  -4.233  0.00  0.00    +0.145 HD
ATOM     18  H   UNL     1       3.643  10.093  -3.201  0.00  0.00    +0.145 HD
ENDBRANCH  13  14
ENDBRANCH  12  13
ENDBRANCH   4   7
BRANCH   1  19
ATOM     19  C   UNL     1       4.838   2.534  -5.297  0.00  0.00    +0.142 C 
BRANCH  19  31
ATOM     20  C   UNL     1       0.120   1.552   0.142  0.00  0.00    +0.039 C 
ATOM     21  C   UNL     1       0.124   0.022   0.126  0.00  0.00    +0.133 C 
ATOM     22  C   UNL     1       0.803  -0.475  -1.155  0.00  0.00    +0.137 C 
ATOM     23  N   UNL     1       2.231  -0.126  -1.090  0.00  0.00    -0.312 N 
ATOM     24  C   UNL     1       2.978  -0.492   0.124  0.00  0.00    +0.137 C 
ATOM     25  C   UNL     1       2.193   0.006   1.343  0.00  0.00    +0.133 C 
ATOM     26  O   UNL     1       0.845  -0.465   1.261  0.00  0.00    -0.371 OA
ATOM     27  C   UNL     1       2.844  -0.525   2.622  0.00  0.00    +0.039 C 
ATOM     28  C   UNL     1       2.856   0.531  -2.144  0.00  0.00    +0.099 A 
ATOM     29  C   UNL     1       2.154   0.769  -3.321  0.00  0.00    +0.042 A 
ATOM     30  C   UNL     1       2.788   1.423  -4.362  0.00  0.00    +0.010 A 
ATOM     31  C   UNL     1       4.107   1.819  -4.190  0.00  0.00    -0.014 A 
ATOM     32  C   UNL     1       4.744   1.550  -2.994  0.00  0.00    +0.089 A 
ATOM     33  N   UNL     1       4.112   0.929  -2.016  0.00  0.00    -0.349 N 
ATOM     34  H   UNL     1       4.581   0.756  -1.185  0.00  0.00    +0.167 HD
ENDBRANCH  19  31
ENDBRANCH   1  19
TORSDOF 5
