REMARK  Name = ZINC11046798
REMARK  8 active torsions:
REMARK  status: ('A' for Active; 'I' for Inactive)
REMARK    1  A    between atoms: C_1  and  N_2
REMARK    2  A    between atoms: C_6  and  C_8
REMARK    3  A    between atoms: C_8  and  N_9
REMARK    4  A    between atoms: N_9  and  C_10
REMARK    5  A    between atoms: C_13  and  S_16
REMARK    6  A    between atoms: S_16  and  N_19
REMARK    7  A    between atoms: N_19  and  C_20
REMARK    8  A    between atoms: N_19  and  C_21
REMARK                            x       y       z     vdW  Elec       q    Type
REMARK                         _______ _______ _______ _____ _____    ______ ____
ROOT
ATOM      1  C   UNL     1      -1.230   1.648   0.017  0.00  0.00    +0.028 A 
ATOM      2  C   UNL     1      -1.251   3.037   0.030  0.00  0.00    +0.025 A 
ATOM      3  C   UNL     1      -2.458   3.708   0.035  0.00  0.00    +0.030 A 
ATOM      4  C   UNL     1      -3.645   2.998   0.037  0.00  0.00    +0.106 A 
ATOM      5  C   UNL     1      -3.628   1.616   0.029  0.00  0.00    +0.030 A 
ATOM      6  C   UNL     1      -2.424   0.938   0.019  0.00  0.00    +0.025 A 
ENDROOT
BRANCH   4   7
ATOM      7  S   UNL     1      -5.183   3.859   0.050  0.00  0.00    +0.061 S 
ATOM      8  O   UNL     1      -4.932   5.147  -0.495  0.00  0.00    -0.153 OA
ATOM      9  O   UNL     1      -6.148   2.973  -0.501  0.00  0.00    -0.153 OA
BRANCH   7  10
ATOM     10  N   UNL     1      -5.601   4.088   1.635  0.00  0.00    -0.177 NA
ATOM     11  C   UNL     1      -5.167   5.297   2.340  0.00  0.00    +0.132 C 
BRANCH  10  12
ATOM     12  C   UNL     1      -6.406   3.083   2.334  0.00  0.00    +0.080 C 
ATOM     13  C   UNL     1      -7.712   3.719   2.815  0.00  0.00    +0.020 C 
ATOM     14  C   UNL     1      -8.552   2.669   3.544  0.00  0.00    +0.002 C 
ATOM     15  C   UNL     1      -7.771   2.135   4.747  0.00  0.00    +0.000 C 
ATOM     16  C   UNL     1      -6.465   1.499   4.265  0.00  0.00    +0.002 C 
ATOM     17  C   UNL     1      -5.625   2.550   3.536  0.00  0.00    +0.020 C 
ENDBRANCH  10  12
ENDBRANCH   7  10
ENDBRANCH   4   7
BRANCH   1  18
ATOM     18  N   UNL     1      -0.011   0.966   0.007  0.00  0.00    -0.335 N 
ATOM     19  H   UNL     1       0.002  -0.004   0.002  0.00  0.00    +0.147 HD
BRANCH  18  20
ATOM     20  C   UNL     1       1.248   1.716  -0.001  0.00  0.00    +0.198 C 
BRANCH  20  26
ATOM     21  C   UNL     1       7.097  -0.114  -0.066  0.00  0.00    +0.129 C 
ATOM     22  N   UNL     1       5.971   0.823  -0.051  0.00  0.00    -0.302 N 
ATOM     23  C   UNL     1       4.707   0.357  -0.041  0.00  0.00    +0.306 C 
ATOM     24  O   UNL     1       4.501  -0.841  -0.045  0.00  0.00    -0.252 OA
ATOM     25  N   UNL     1       3.671   1.218  -0.026  0.00  0.00    -0.239 N 
ATOM     26  C   UNL     1       2.406   0.752  -0.017  0.00  0.00    +0.237 C 
ATOM     27  O   UNL     1       2.201  -0.443  -0.021  0.00  0.00    -0.274 OA
ATOM     28  H   UNL     1       6.135   1.779  -0.047  0.00  0.00    +0.150 HD
ATOM     29  H   UNL     1       3.835   2.174  -0.023  0.00  0.00    +0.159 HD
ENDBRANCH  20  26
ENDBRANCH  18  20
ENDBRANCH   1  18
TORSDOF 6
