REMARK  Name = ZINC28711443
REMARK  7 active torsions:
REMARK  status: ('A' for Active; 'I' for Inactive)
REMARK    1  A    between atoms: C_3  and  C_21
REMARK    2  A    between atoms: C_6  and  N_7
REMARK    3  A    between atoms: C_9  and  C_14
REMARK    4  A    between atoms: C_14  and  N_15
REMARK    5  A    between atoms: C_24  and  C_27
REMARK    6  A    between atoms: C_27  and  C_29
REMARK    7  A    between atoms: C_27  and  O_33
REMARK                            x       y       z     vdW  Elec       q    Type
REMARK                         _______ _______ _______ _____ _____    ______ ____
ROOT
ATOM      1  C   UNL     1      -1.187  -0.714   0.120  0.00  0.00    +0.024 A 
ATOM      2  C   UNL     1      -1.172  -2.093   0.108  0.00  0.00    +0.013 A 
ATOM      3  C   UNL     1       0.036  -2.776  -0.012  0.00  0.00    +0.019 A 
ATOM      4  C   UNL     1       1.231  -2.061  -0.125  0.00  0.00    +0.133 A 
ATOM      5  C   UNL     1       1.210  -0.680  -0.118  0.00  0.00    +0.062 A 
ATOM      6  C   UNL     1       0.002  -0.004   0.002  0.00  0.00    +0.042 A 
ATOM      7  F   UNL     1       2.405  -2.719  -0.242  0.00  0.00    -0.205 F 
ENDROOT
BRANCH   6   8
ATOM      8  N   UNL     1      -0.017   1.394   0.010  0.00  0.00    -0.234 N 
ATOM      9  C   UNL     1      -1.225   2.233   0.003  0.00  0.00    +0.163 C 
ATOM     10  C   UNL     1      -0.673   3.672   0.020  0.00  0.00    +0.217 C 
ATOM     11  O   UNL     1       0.773   3.494   0.024  0.00  0.00    -0.443 OA
ATOM     12  C   UNL     1       1.063   2.188   0.018  0.00  0.00    +0.408 C 
ATOM     13  O   UNL     1       2.200   1.761   0.020  0.00  0.00    -0.226 OA
BRANCH  10  14
ATOM     14  C   UNL     1      -1.116   4.429  -1.234  0.00  0.00    +0.191 C 
BRANCH  14  15
ATOM     15  N   UNL     1      -0.600   5.799  -1.185  0.00  0.00    -0.248 N 
ATOM     16  C   UNL     1       0.158   6.395  -2.135  0.00  0.00    +0.130 A 
ATOM     17  C   UNL     1       0.406   7.648  -1.688  0.00  0.00    +0.156 A 
ATOM     18  N   UNL     1      -0.198   7.753  -0.498  0.00  0.00    -0.138 NA
ATOM     19  N   UNL     1      -0.785   6.641  -0.229  0.00  0.00    -0.066 NA
ENDBRANCH  14  15
ENDBRANCH  10  14
ENDBRANCH   6   8
BRANCH   3  20
ATOM     20  C   UNL     1       0.055  -4.259  -0.020  0.00  0.00    +0.003 A 
ATOM     21  C   UNL     1      -0.613  -4.983   0.972  0.00  0.00    +0.012 A 
ATOM     22  C   UNL     1      -0.570  -6.365   0.917  0.00  0.00    +0.026 A 
ATOM     23  C   UNL     1       0.134  -6.980  -0.102  0.00  0.00    +0.070 A 
ATOM     24  N   UNL     1       0.759  -6.271  -1.021  0.00  0.00    -0.257 NA
ATOM     25  C   UNL     1       0.742  -4.953  -1.013  0.00  0.00    +0.119 A 
BRANCH  23  26
ATOM     26  C   UNL     1       0.189  -8.485  -0.162  0.00  0.00    +0.162 C 
BRANCH  26  27
ATOM     27  C   UNL     1      -0.299  -8.959  -1.533  0.00  0.00    -0.011 C 
ATOM     28  C   UNL     1      -1.831  -9.061  -1.643  0.00  0.00    -0.078 C 
ATOM     29  N   UNL     1      -1.595 -10.330  -2.368  0.00  0.00    +0.379 N 
ATOM     30  C   UNL     1      -0.283 -10.489  -1.702  0.00  0.00    -0.078 C 
ATOM     31  H   UNL     1      -2.389 -11.048  -2.117  0.00  0.00    -0.086 HD
ATOM     32  H   UNL     1      -1.601 -10.140  -3.451  0.00  0.00    -0.086 HD
ENDBRANCH  26  27
BRANCH  26  33
ATOM     33  O   UNL     1       1.535  -8.921   0.041  0.00  0.00    -0.386 OA
ATOM     34  H   UNL     1       1.772  -9.995   0.031  0.00  0.00    +0.210 HD
ENDBRANCH  26  33
ENDBRANCH  23  26
ENDBRANCH   3  20
TORSDOF 7
