REMARK  Name = ZINC63824880
REMARK  3 active torsions:
REMARK  status: ('A' for Active; 'I' for Inactive)
REMARK    1  A    between atoms: C_1  and  C_2
REMARK    2  A    between atoms: C_4  and  C_21
REMARK    3  A    between atoms: N_12  and  C_14
REMARK                            x       y       z     vdW  Elec       q    Type
REMARK                         _______ _______ _______ _____ _____    ______ ____
ROOT
ATOM      1  C   UNL     1      -0.024   1.505  -0.015  0.00  0.00    +0.062 C 
ATOM      2  C   UNL     1      -0.002  -0.002  -0.022  0.00  0.00    +0.022 C 
ATOM      3  C   UNL     1      -1.062  -0.752   0.083  0.00  0.00    -0.004 C 
ATOM      4  C   UNL     1      -2.496  -0.389   0.386  0.00  0.00    +0.061 C 
ATOM      5  C   UNL     1      -2.853  -1.101   1.699  0.00  0.00    +0.108 C 
ATOM      6  C   UNL     1      -2.241  -2.462   1.776  0.00  0.00    +0.216 C 
ATOM      7  O   UNL     1      -2.749  -3.235   2.561  0.00  0.00    -0.276 OA
ATOM      8  N   UNL     1      -1.202  -2.925   1.081  0.00  0.00    -0.292 N 
ATOM      9  C   UNL     1      -0.622  -2.201  -0.043  0.00  0.00    +0.210 C 
ATOM     10  N   UNL     1       0.840  -2.130   0.005  0.00  0.00    -0.210 N 
ATOM     11  N   UNL     1       1.149  -0.766  -0.148  0.00  0.00    -0.265 N 
ATOM     12  H   UNL     1      -0.815  -3.777   1.335  0.00  0.00    +0.151 HD
ATOM     13  H   UNL     1       2.036  -0.411  -0.314  0.00  0.00    +0.170 HD
ENDROOT
BRANCH   4  14
ATOM     14  C   UNL     1      -2.629   1.103   0.551  0.00  0.00    -0.004 A 
ATOM     15  C   UNL     1      -3.287   1.849  -0.410  0.00  0.00    +0.008 A 
ATOM     16  C   UNL     1      -3.409   3.217  -0.259  0.00  0.00    +0.016 A 
ATOM     17  C   UNL     1      -2.873   3.842   0.853  0.00  0.00    +0.021 A 
ATOM     18  C   UNL     1      -2.215   3.098   1.815  0.00  0.00    +0.054 A 
ATOM     19  C   UNL     1      -2.097   1.726   1.667  0.00  0.00    +0.128 A 
ATOM     20  F   UNL     1      -1.459   0.997   2.608  0.00  0.00    -0.205 F 
ATOM     21 BR   UNL     1      -3.041   5.715   1.058  0.00  0.00    -0.050 Br
ENDBRANCH   4  14
BRANCH  10  22
ATOM     22  C   UNL     1       1.732  -3.188   0.163  0.00  0.00    +0.162 A 
ATOM     23  C   UNL     1       3.106  -2.946   0.187  0.00  0.00    +0.052 A 
ATOM     24  C   UNL     1       3.953  -4.029   0.346  0.00  0.00    +0.077 A 
ATOM     25  C   UNL     1       3.381  -5.294   0.472  0.00  0.00    +0.289 A 
ATOM     26  O   UNL     1       4.173  -6.386   0.630  0.00  0.00    -0.264 OA
ATOM     27  N   UNL     1       2.067  -5.428   0.437  0.00  0.00    -0.105 NA
ATOM     28  N   UNL     1       1.280  -4.424   0.295  0.00  0.00    -0.129 NA
ENDBRANCH  10  22
TORSDOF 2
