REMARK  Name = ZINC40162332
REMARK  15 active torsions:
REMARK  status: ('A' for Active; 'I' for Inactive)
REMARK    1  A    between atoms: C_1  and  C_2
REMARK    2  A    between atoms: C_2  and  C_3
REMARK    3  A    between atoms: C_3  and  C_5
REMARK    4  A    between atoms: C_8  and  O_11
REMARK    5  A    between atoms: O_11  and  C_12
REMARK    6  A    between atoms: C_12  and  C_13
REMARK    7  A    between atoms: C_13  and  C_15
REMARK    8  A    between atoms: C_13  and  O_30
REMARK    9  A    between atoms: C_15  and  N_16
REMARK   10  A    between atoms: N_16  and  C_17
REMARK   11  A    between atoms: C_17  and  C_19
REMARK   12  A    between atoms: C_17  and  C_20
REMARK   13  A    between atoms: C_20  and  C_22
REMARK   14  A    between atoms: C_20  and  O_29
REMARK   15  A    between atoms: C_25  and  O_28
REMARK                            x       y       z     vdW  Elec       q    Type
REMARK                         _______ _______ _______ _____ _____    ______ ____
ROOT
ATOM      1  C   UNL     1       2.867  -8.308  -4.639  0.00  0.00    -0.047 C 
ENDROOT
BRANCH   1   2
ATOM      2  N   UNL     1       2.924  -9.774  -4.714  0.00  0.00    +0.384 N 
ATOM      3  H   UNL     1       3.344 -10.138  -3.872  0.00  0.00    -0.085 HD
ATOM      4  H   UNL     1       1.990 -10.142  -4.810  0.00  0.00    -0.085 HD
BRANCH   2   5
ATOM      5  C   UNL     1       3.730 -10.174  -5.875  0.00  0.00    -0.041 C 
ATOM      6  C   UNL     1       5.178  -9.722  -5.671  0.00  0.00    -0.011 C 
BRANCH   5   7
ATOM      7  C   UNL     1       3.687 -11.695  -6.027  0.00  0.00    +0.130 C 
BRANCH   7   8
ATOM      8  C   UNL     1       4.411 -12.096  -7.287  0.00  0.00    -0.020 A 
ATOM      9  C   UNL     1       5.782 -12.274  -7.268  0.00  0.00    +0.009 A 
ATOM     10  C   UNL     1       6.447 -12.641  -8.421  0.00  0.00    +0.046 A 
ATOM     11  C   UNL     1       5.739 -12.830  -9.599  0.00  0.00    +0.117 A 
ATOM     12  C   UNL     1       4.364 -12.651  -9.615  0.00  0.00    +0.046 A 
ATOM     13  C   UNL     1       3.702 -12.289  -8.458  0.00  0.00    +0.009 A 
BRANCH  11  14
ATOM     14  O   UNL     1       6.392 -13.190 -10.735  0.00  0.00    -0.507 OA
ATOM     15  H   UNL     1       6.468 -14.146 -10.859  0.00  0.00    +0.292 HD
ENDBRANCH  11  14
ENDBRANCH   7   8
BRANCH   7  16
ATOM     16  O   UNL     1       4.320 -12.305  -4.900  0.00  0.00    -0.389 OA
ATOM     17  H   UNL     1       5.247 -12.055  -4.787  0.00  0.00    +0.210 HD
ENDBRANCH   7  16
ENDBRANCH   5   7
ENDBRANCH   2   5
ENDBRANCH   1   2
BRANCH   1  18
ATOM     18  C   UNL     1       2.028  -7.892  -3.429  0.00  0.00    +0.135 C 
BRANCH  18  19
ATOM     19  O   UNL     1       0.704  -8.413  -3.565  0.00  0.00    -0.390 OA
ATOM     20  H   UNL     1       0.239  -8.105  -4.355  0.00  0.00    +0.210 HD
ENDBRANCH  18  19
BRANCH  18  21
ATOM     21  C   UNL     1       1.968  -6.365  -3.350  0.00  0.00    +0.258 C 
BRANCH  21  22
ATOM     22  O   UNL     1       1.284  -5.976  -2.158  0.00  0.00    -0.489 OA
BRANCH  22  26
ATOM     23  C   UNL     1       0.859  -1.931  -1.480  0.00  0.00    +0.018 A 
ATOM     24  C   UNL     1       0.344  -2.855  -0.562  0.00  0.00    +0.015 A 
ATOM     25  C   UNL     1       0.487  -4.199  -0.793  0.00  0.00    +0.046 A 
ATOM     26  C   UNL     1       1.144  -4.645  -1.935  0.00  0.00    +0.121 A 
ATOM     27  C   UNL     1       1.658  -3.731  -2.849  0.00  0.00    +0.046 A 
ATOM     28  C   UNL     1       1.514  -2.385  -2.631  0.00  0.00    +0.015 A 
BRANCH  23  29
ATOM     29  C   UNL     1       0.707  -0.490  -1.238  0.00  0.00    +0.163 C 
ATOM     30  O   UNL     1       1.150   0.309  -2.036  0.00  0.00    -0.292 OA
BRANCH  29  32
ATOM     31  C   UNL     1      -0.019   1.526   0.010  0.00  0.00    +0.012 C 
ATOM     32  C   UNL     1       0.002  -0.004   0.002  0.00  0.00    +0.076 C 
ENDBRANCH  29  32
ENDBRANCH  23  29
ENDBRANCH  22  26
ENDBRANCH  21  22
ENDBRANCH  18  21
ENDBRANCH   1  18
TORSDOF 13
