REMARK  Name = ZINC01746421
REMARK  7 active torsions:
REMARK  status: ('A' for Active; 'I' for Inactive)
REMARK    1  A    between atoms: C_1  and  C_2
REMARK    2  A    between atoms: C_2  and  C_32
REMARK    3  A    between atoms: C_6  and  N_24
REMARK    4  A    between atoms: C_9  and  N_23
REMARK    5  A    between atoms: C_10  and  C_12
REMARK    6  A    between atoms: C_12  and  C_14
REMARK    7  A    between atoms: C_18  and  N_20
REMARK                            x       y       z     vdW  Elec       q    Type
REMARK                         _______ _______ _______ _____ _____    ______ ____
ROOT
ATOM      1  C   UNL     1      -1.683   0.535   2.372  0.00  0.00    +0.041 C 
ATOM      2  C   UNL     1      -0.254   0.866   1.938  0.00  0.00    +0.068 C 
ATOM      3  C   UNL     1      -0.200   2.292   1.385  0.00  0.00    +0.070 C 
ATOM      4  C   UNL     1       1.234   2.722   1.228  0.00  0.00    -0.025 A 
ATOM      5  C   UNL     1       2.253   2.068   1.841  0.00  0.00    +0.020 A 
ATOM      6  C   UNL     1       3.572   2.511   1.671  0.00  0.00    +0.105 A 
ATOM      7  C   UNL     1       2.875   4.221   0.301  0.00  0.00    +0.089 A 
ATOM      8  C   UNL     1       1.516   3.851   0.412  0.00  0.00    +0.031 A 
ATOM      9  C   UNL     1       0.586   4.684  -0.331  0.00  0.00    +0.052 A 
ATOM     10  C   UNL     1       1.095   5.741  -1.064  0.00  0.00    +0.083 A 
ATOM     11  S   UNL     1       2.849   5.638  -0.768  0.00  0.00    -0.065 S 
ATOM     12  C   UNL     1       2.004   0.862   2.711  0.00  0.00    +0.199 C 
ATOM     13  O   UNL     1       0.624   0.786   3.066  0.00  0.00    -0.369 OA
ATOM     14  C   UNL     1       0.200  -0.122   0.861  0.00  0.00    +0.041 C 
ATOM     15  N   UNL     1       3.908   3.587   0.906  0.00  0.00    -0.337 N 
ATOM     16  H   UNL     1       4.881   3.896   0.794  0.00  0.00    +0.168 HD
ENDROOT
BRANCH   6  17
ATOM     17  N   UNL     1       4.608   1.841   2.303  0.00  0.00    -0.312 N 
ATOM     18  C   UNL     1       5.348   2.740   3.200  0.00  0.00    +0.134 C 
ATOM     19  C   UNL     1       6.443   1.948   3.919  0.00  0.00    +0.178 C 
ATOM     20  O   UNL     1       7.294   1.331   2.949  0.00  0.00    -0.377 OA
ATOM     21  C   UNL     1       6.606   0.448   2.059  0.00  0.00    +0.178 C 
ATOM     22  C   UNL     1       5.513   1.225   1.321  0.00  0.00    +0.134 C 
ENDBRANCH   6  17
BRANCH   9  23
ATOM     23  N   UNL     1      -0.775   4.425  -0.307  0.00  0.00    -0.356 N 
ATOM     24  H   UNL     1      -1.339   4.725  -1.038  0.00  0.00    +0.142 HD
ATOM     25  H   UNL     1      -1.165   3.945   0.440  0.00  0.00    +0.142 HD
ENDBRANCH   9  23
BRANCH  10  26
ATOM     26  C   UNL     1       0.393   6.677  -1.855  0.00  0.00    +0.202 C 
ATOM     27  O   UNL     1      -0.801   6.535  -2.050  0.00  0.00    -0.286 OA
BRANCH  26  28
ATOM     28  C   UNL     1       1.109   7.829  -2.448  0.00  0.00    +0.025 A 
ATOM     29  C   UNL     1       2.278   8.307  -1.855  0.00  0.00    +0.012 A 
ATOM     30  C   UNL     1       2.943   9.379  -2.415  0.00  0.00    +0.003 A 
ATOM     31  C   UNL     1       2.447   9.984  -3.556  0.00  0.00    +0.033 A 
ATOM     32  C   UNL     1       1.285   9.518  -4.146  0.00  0.00    +0.127 A 
ATOM     33  C   UNL     1       0.614   8.444  -3.598  0.00  0.00    +0.044 A 
BRANCH  32  34
ATOM     34  N   UNL     1       0.762  10.172  -5.366  0.00  0.00    +0.056 N 
ATOM     35  O   UNL     1      -0.261   9.762  -5.885  0.00  0.00    -0.126 OA
ATOM     36  O   UNL     1       1.354  11.120  -5.850  0.00  0.00    -0.126 OA
ENDBRANCH  32  34
ENDBRANCH  26  28
ENDBRANCH  10  26
TORSDOF 5
