REMARK  Name = ZINC02629364
REMARK  10 active torsions:
REMARK  status: ('A' for Active; 'I' for Inactive)
REMARK    1  A    between atoms: C_1  and  C_2
REMARK    2  A    between atoms: C_2  and  C_4
REMARK    3  A    between atoms: C_2  and  N_34
REMARK    4  A    between atoms: C_7  and  S_16
REMARK    5  A    between atoms: N_8  and  C_9
REMARK    6  A    between atoms: S_16  and  C_17
REMARK    7  A    between atoms: C_17  and  C_18
REMARK    8  A    between atoms: C_23  and  C_26
REMARK    9  A    between atoms: N_34  and  C_35
REMARK   10  A    between atoms: N_34  and  C_36
REMARK                            x       y       z     vdW  Elec       q    Type
REMARK                         _______ _______ _______ _____ _____    ______ ____
ROOT
ATOM      1  S   UNL     1      -4.634  -2.144  -1.483  0.00  0.00    -0.076 S 
ENDROOT
BRANCH   1   5
ATOM      2  C   UNL     1      -1.412  -0.526   0.013  0.00  0.00    +0.125 A 
ATOM      3  N   UNL     1      -2.223  -0.538   1.033  0.00  0.00    -0.135 NA
ATOM      4  N   UNL     1      -3.351  -1.053   0.695  0.00  0.00    -0.122 NA
ATOM      5  C   UNL     1      -3.323  -1.400  -0.571  0.00  0.00    +0.197 A 
ATOM      6  N   UNL     1      -2.085  -1.069  -1.049  0.00  0.00    -0.275 N 
BRANCH   6   7
ATOM      7  C   UNL     1      -1.603  -1.251  -2.355  0.00  0.00    +0.050 A 
ATOM      8  C   UNL     1      -1.281  -0.150  -3.136  0.00  0.00    +0.029 A 
ATOM      9  C   UNL     1      -0.807  -0.331  -4.421  0.00  0.00    +0.040 A 
ATOM     10  C   UNL     1      -0.654  -1.610  -4.930  0.00  0.00    +0.124 A 
ATOM     11  C   UNL     1      -0.976  -2.709  -4.151  0.00  0.00    +0.040 A 
ATOM     12  C   UNL     1      -1.444  -2.532  -2.864  0.00  0.00    +0.029 A 
ATOM     13  F   UNL     1      -0.192  -1.785  -6.187  0.00  0.00    -0.205 F 
ENDBRANCH   6   7
BRANCH   2  15
ATOM     14  C   UNL     1      -0.019   1.526   0.010  0.00  0.00    -0.005 C 
ATOM     15  C   UNL     1       0.002  -0.004   0.002  0.00  0.00    -0.003 C 
BRANCH  15  16
ATOM     16  N   UNL     1       0.713  -0.491   1.192  0.00  0.00    +0.382 N 
ATOM     17  C   UNL     1       0.733  -1.960   1.184  0.00  0.00    -0.096 C 
ATOM     18  C   UNL     1       2.091   0.018   1.182  0.00  0.00    -0.096 C 
ATOM     19  H   UNL     1       0.240  -0.165   2.022  0.00  0.00    -0.082 HD
ENDBRANCH  15  16
ENDBRANCH   2  15
ENDBRANCH   1   5
BRANCH   1  20
ATOM     20  C   UNL     1      -5.976  -2.301  -0.273  0.00  0.00    +0.173 C 
BRANCH  20  21
ATOM     21  C   UNL     1      -7.175  -2.932  -0.932  0.00  0.00    +0.229 C 
ATOM     22  O   UNL     1      -7.129  -3.246  -2.103  0.00  0.00    -0.275 OA
ATOM     23  N   UNL     1      -8.300  -3.148  -0.221  0.00  0.00    -0.264 N 
ATOM     24  C   UNL     1      -9.405  -3.731  -0.829  0.00  0.00    +0.165 A 
ATOM     25  N   UNL     1     -10.586  -4.018  -0.314  0.00  0.00    -0.225 NA
ATOM     26  C   UNL     1     -11.537  -4.578  -1.046  0.00  0.00    +0.080 A 
ATOM     27  C   UNL     1     -11.291  -4.865  -2.360  0.00  0.00    +0.076 A 
ATOM     28  S   UNL     1      -9.608  -4.283  -2.517  0.00  0.00    -0.060 S 
ATOM     29  H   UNL     1      -8.337  -2.897   0.715  0.00  0.00    +0.157 HD
BRANCH  26  30
ATOM     30  C   UNL     1     -12.857  -4.892  -0.446  0.00  0.00    +0.002 A 
ATOM     31  C   UNL     1     -13.853  -5.488  -1.219  0.00  0.00    +0.011 A 
ATOM     32  C   UNL     1     -15.079  -5.779  -0.656  0.00  0.00    +0.022 A 
ATOM     33  C   UNL     1     -15.321  -5.479   0.674  0.00  0.00    +0.059 A 
ATOM     34  C   UNL     1     -14.336  -4.887   1.446  0.00  0.00    +0.060 A 
ATOM     35  C   UNL     1     -13.103  -4.598   0.893  0.00  0.00    +0.031 A 
ATOM     36 CL   UNL     1     -14.648  -4.514   3.113  0.00  0.00    -0.082 Cl
ATOM     37 CL   UNL     1     -16.866  -5.846   1.375  0.00  0.00    -0.082 Cl
ENDBRANCH  26  30
ENDBRANCH  20  21
ENDBRANCH   1  20
TORSDOF 7
