REMARK  Name = ZINC44900341
REMARK  10 active torsions:
REMARK  status: ('A' for Active; 'I' for Inactive)
REMARK    1  A    between atoms: C_1  and  C_2
REMARK    2  A    between atoms: C_2  and  C_3
REMARK    3  A    between atoms: N_9  and  C_10
REMARK    4  A    between atoms: C_10  and  C_11
REMARK    5  A    between atoms: C_11  and  C_12
REMARK    6  A    between atoms: C_12  and  N_13
REMARK    7  A    between atoms: C_14  and  C_16
REMARK    8  A    between atoms: N_19  and  S_22
REMARK    9  A    between atoms: S_22  and  C_25
REMARK   10  A    between atoms: C_25  and  C_26
REMARK                            x       y       z     vdW  Elec       q    Type
REMARK                         _______ _______ _______ _____ _____    ______ ____
ROOT
ATOM      1  C   UNL     1      -3.144   5.737   5.757  0.00  0.00    +0.077 C 
ATOM      2  C   UNL     1      -4.619   5.373   5.941  0.00  0.00    +0.030 C 
ATOM      3  C   UNL     1      -5.081   5.818   7.333  0.00  0.00    +0.110 C 
ATOM      4  N   UNL     1      -4.787   7.248   7.494  0.00  0.00    -0.181 NA
ATOM      5  C   UNL     1      -3.417   7.720   7.251  0.00  0.00    +0.110 C 
ATOM      6  C   UNL     1      -2.975   7.255   5.861  0.00  0.00    +0.030 C 
ENDROOT
BRANCH   1   8
ATOM      7  N   UNL     1      -2.734   3.963   4.083  0.00  0.00    -0.315 N 
ATOM      8  C   UNL     1      -2.678   5.271   4.402  0.00  0.00    +0.216 C 
ATOM      9  O   UNL     1      -2.252   6.074   3.598  0.00  0.00    -0.276 OA
ATOM     10  H   UNL     1      -3.075   3.321   4.726  0.00  0.00    +0.149 HD
BRANCH   7  11
ATOM     11  C   UNL     1      -2.280   3.510   2.765  0.00  0.00    +0.102 C 
BRANCH  11  12
ATOM     12  C   UNL     1      -2.450   1.993   2.662  0.00  0.00    +0.000 C 
BRANCH  12  13
ATOM     13  C   UNL     1      -1.976   1.520   1.286  0.00  0.00    -0.077 C 
BRANCH  13  19
ATOM     14  C   UNL     1      -1.571  -0.405  -0.084  0.00  0.00    -0.069 C 
ATOM     15  C   UNL     1      -1.665  -1.931  -0.156  0.00  0.00    -0.015 C 
ATOM     16  C   UNL     1      -3.135  -2.351  -0.067  0.00  0.00    -0.003 C 
ATOM     17  C   UNL     1      -3.737  -1.793   1.226  0.00  0.00    -0.019 C 
ATOM     18  C   UNL     1      -3.567  -0.273   1.247  0.00  0.00    -0.078 C 
ATOM     19  N   UNL     1      -2.139   0.063   1.186  0.00  0.00    +0.382 N 
ATOM     20  H   UNL     1      -1.656  -0.380   1.953  0.00  0.00    -0.081 HD
BRANCH  14  22
ATOM     21  C   UNL     1       0.472  -0.418  -1.521  0.00  0.00    +0.002 C 
ATOM     22  C   UNL     1      -0.104   0.020  -0.173  0.00  0.00    -0.019 C 
ENDBRANCH  14  22
ENDBRANCH  13  19
ENDBRANCH  12  13
ENDBRANCH  11  12
ENDBRANCH   7  11
ENDBRANCH   1   8
BRANCH   4  23
ATOM     23  S   UNL     1      -5.979   8.309   7.940  0.00  0.00    +0.036 S 
ATOM     24  O   UNL     1      -5.562   9.563   7.418  0.00  0.00    -0.158 OA
ATOM     25  O   UNL     1      -7.186   7.705   7.497  0.00  0.00    -0.158 OA
BRANCH  23  26
ATOM     26  C   UNL     1      -5.922   8.337   9.753  0.00  0.00    +0.220 C 
BRANCH  26  27
ATOM     27  C   UNL     1      -6.976   9.280  10.274  0.00  0.00    -0.025 A 
ATOM     28  C   UNL     1      -6.673  10.615  10.469  0.00  0.00    +0.006 A 
ATOM     29  C   UNL     1      -7.639  11.480  10.946  0.00  0.00    +0.015 A 
ATOM     30  C   UNL     1      -8.909  11.011  11.228  0.00  0.00    +0.018 A 
ATOM     31  C   UNL     1      -9.212   9.676  11.033  0.00  0.00    +0.015 A 
ATOM     32  C   UNL     1      -8.247   8.812  10.551  0.00  0.00    +0.006 A 
ATOM     33 BR   UNL     1     -10.231  12.195  11.881  0.00  0.00    -0.050 Br
ENDBRANCH  26  27
ENDBRANCH  23  26
ENDBRANCH   4  23
TORSDOF 9
