REMARK  Name = ZINC02963329
REMARK  4 active torsions:
REMARK  status: ('A' for Active; 'I' for Inactive)
REMARK    1  A    between atoms: C_1  and  C_2
REMARK    2  A    between atoms: C_10  and  O_13
REMARK    3  A    between atoms: O_13  and  C_14
REMARK    4  A    between atoms: N_18  and  C_19
REMARK                            x       y       z     vdW  Elec       q    Type
REMARK                         _______ _______ _______ _____ _____    ______ ____
ROOT
ATOM      1  C   UNL     1      -0.872  -0.266   1.615  0.00  0.00    +0.079 C 
ATOM      2  C   UNL     1       0.062   0.007   0.435  0.00  0.00    +0.183 C 
ATOM      3  C   UNL     1       1.508  -0.312   0.845  0.00  0.00    +0.096 C 
ATOM      4  C   UNL     1       2.409   0.102  -0.322  0.00  0.00    +0.111 C 
ATOM      5  C   UNL     1       1.907  -0.587  -1.571  0.00  0.00    +0.018 A 
ATOM      6  C   UNL     1       2.783  -0.786  -2.625  0.00  0.00    +0.009 A 
ATOM      7  C   UNL     1       2.348  -1.395  -3.786  0.00  0.00    +0.004 A 
ATOM      8  C   UNL     1       1.033  -1.808  -3.899  0.00  0.00    +0.049 A 
ATOM      9  C   UNL     1       0.154  -1.615  -2.847  0.00  0.00    +0.162 A 
ATOM     10  C   UNL     1       0.593  -1.003  -1.671  0.00  0.00    +0.170 A 
ATOM     11  O   UNL     1      -0.294  -0.838  -0.656  0.00  0.00    -0.464 OA
ATOM     12  N   UNL     1       2.245   1.551  -0.522  0.00  0.00    -0.319 N 
ATOM     13  C   UNL     1       1.034   2.112  -0.361  0.00  0.00    +0.141 C 
ATOM     14  S   UNL     1       0.851   3.783  -0.686  0.00  0.00    -0.018 S 
ATOM     15  N   UNL     1      -0.033   1.414   0.056  0.00  0.00    -0.244 N 
ATOM     16  H   UNL     1       3.006   2.097  -0.773  0.00  0.00    +0.148 HD
ENDROOT
BRANCH  15  17
ATOM     17  C   UNL     1      -1.276   2.052   0.125  0.00  0.00    +0.039 A 
ATOM     18  C   UNL     1      -1.622   2.783   1.254  0.00  0.00    +0.025 A 
ATOM     19  C   UNL     1      -2.848   3.415   1.317  0.00  0.00    +0.022 A 
ATOM     20  C   UNL     1      -3.735   3.314   0.261  0.00  0.00    +0.041 A 
ATOM     21  C   UNL     1      -3.396   2.582  -0.864  0.00  0.00    +0.022 A 
ATOM     22  C   UNL     1      -2.169   1.952  -0.934  0.00  0.00    +0.025 A 
ATOM     23 CL   UNL     1      -5.278   4.105   0.346  0.00  0.00    -0.084 Cl
ENDBRANCH  15  17
BRANCH   9  24
ATOM     24  O   UNL     1      -1.138  -2.023  -2.959  0.00  0.00    -0.491 OA
ATOM     25  C   UNL     1      -1.519  -2.642  -4.189  0.00  0.00    +0.277 C 
ENDBRANCH   9  24
TORSDOF 2
