REMARK  Name = ZINC62361553
REMARK  4 active torsions:
REMARK  status: ('A' for Active; 'I' for Inactive)
REMARK    1  A    between atoms: C_2  and  C_6
REMARK    2  A    between atoms: N_8  and  C_9
REMARK    3  A    between atoms: C_9  and  C_16
REMARK    4  A    between atoms: N_17  and  O_18
REMARK                            x       y       z     vdW  Elec       q    Type
REMARK                         _______ _______ _______ _____ _____    ______ ____
ROOT
ATOM      1  C   UNL     1       3.140   5.160   0.057  0.00  0.00    +0.093 C 
ATOM      2  C   UNL     1       2.713   6.290   1.015  0.00  0.00    +0.033 C 
ATOM      3  C   UNL     1       2.366   5.681   2.347  0.00  0.00    +0.002 C 
ATOM      4  C   UNL     1       3.555   5.689   3.326  0.00  0.00    +0.000 C 
ATOM      5  C   UNL     1       4.887   5.309   2.652  0.00  0.00    +0.000 C 
ATOM      6  C   UNL     1       4.738   4.164   1.688  0.00  0.00    +0.002 C 
ATOM      7  C   UNL     1       4.516   4.738   0.274  0.00  0.00    +0.033 C 
ENDROOT
BRANCH   1   8
ATOM      8  C   UNL     1       2.997   5.646  -1.363  0.00  0.00    +0.155 C 
ATOM      9  N   UNL     1       3.610   6.718  -1.743  0.00  0.00    -0.075 NA
ATOM     10  N   UNL     1       2.212   4.948  -2.254  0.00  0.00    -0.342 N 
ATOM     11  H   UNL     1       1.851   4.083  -2.007  0.00  0.00    +0.144 HD
ATOM     12  H   UNL     1       2.021   5.323  -3.128  0.00  0.00    +0.144 HD
BRANCH   9  13
ATOM     13  O   UNL     1       4.456   7.407  -0.841  0.00  0.00    -0.408 OA
ATOM     14  H   UNL     1       4.870   8.197  -1.216  0.00  0.00    +0.328 HD
ENDBRANCH   9  13
ENDBRANCH   1   8
BRANCH   1  17
ATOM     15  C   UNL     1       0.922   4.151   0.108  0.00  0.00    +0.264 C 
ATOM     16  O   UNL     1       0.448   5.250  -0.110  0.00  0.00    -0.268 OA
ATOM     17  N   UNL     1       2.255   4.010   0.255  0.00  0.00    -0.298 N 
ATOM     18  H   UNL     1       2.627   3.146   0.492  0.00  0.00    +0.150 HD
BRANCH  15  20
ATOM     19  C   UNL     1      -1.317   3.074   0.070  0.00  0.00    +0.079 A 
ATOM     20  C   UNL     1       0.041   2.976   0.212  0.00  0.00    +0.132 A 
ATOM     21  N   UNL     1       0.520   1.751   0.450  0.00  0.00    -0.243 NA
ATOM     22  C   UNL     1      -0.325   0.759   0.528  0.00  0.00    +0.156 A 
ATOM     23  S   UNL     1      -1.818   1.484   0.274  0.00  0.00    -0.083 S 
ENDBRANCH  15  20
ENDBRANCH   1  17
TORSDOF 4
