REMARK  Name = ZINC06074453
REMARK  12 active torsions:
REMARK  status: ('A' for Active; 'I' for Inactive)
REMARK    1  A    between atoms: C_1  and  C_2
REMARK    2  A    between atoms: C_2  and  C_3
REMARK    3  A    between atoms: C_2  and  C_4
REMARK    4  A    between atoms: C_2  and  N_5
REMARK    5  A    between atoms: C_6  and  C_8
REMARK    6  A    between atoms: C_8  and  C_10
REMARK    7  A    between atoms: C_8  and  N_17
REMARK    8  A    between atoms: N_17  and  C_18
REMARK    9  A    between atoms: C_18  and  C_19
REMARK   10  A    between atoms: C_25  and  C_27
REMARK   11  A    between atoms: C_28  and  N_35
REMARK   12  A    between atoms: C_29  and  C_32
REMARK                            x       y       z     vdW  Elec       q    Type
REMARK                         _______ _______ _______ _____ _____    ______ ____
ROOT
ATOM      1  N   UNL     1       4.650   0.114  -0.275  0.00  0.00    -0.277 N 
ATOM      2  C   UNL     1       4.026  -0.363   0.820  0.00  0.00    +0.258 C 
ATOM      3  O   UNL     1       4.654  -0.545   1.847  0.00  0.00    -0.269 OA
ENDROOT
BRANCH   2   4
ATOM      4  C   UNL     1       2.594  -0.662   0.775  0.00  0.00    +0.115 A 
ATOM      5  C   UNL     1       1.792  -1.299   1.725  0.00  0.00    +0.076 A 
ATOM      6  C   UNL     1       0.462  -1.401   1.319  0.00  0.00    +0.155 A 
ATOM      7  N   UNL     1       0.107  -0.917   0.149  0.00  0.00    -0.203 NA
ATOM      8  S   UNL     1       1.407  -0.311  -0.505  0.00  0.00    +0.019 S 
BRANCH   6   9
ATOM      9  C   UNL     1      -0.536  -2.045   2.192  0.00  0.00    +0.262 C 
ATOM     10  O   UNL     1      -0.201  -2.491   3.273  0.00  0.00    -0.269 OA
ATOM     11  N   UNL     1      -1.820  -2.140   1.793  0.00  0.00    -0.324 N 
ATOM     12  H   UNL     1      -2.087  -1.784   0.931  0.00  0.00    +0.145 HD
ATOM     13  H   UNL     1      -2.477  -2.563   2.367  0.00  0.00    +0.145 HD
ENDBRANCH   6   9
BRANCH   5  14
ATOM     14  N   UNL     1       2.267  -1.777   2.938  0.00  0.00    -0.355 N 
ATOM     15  H   UNL     1       1.661  -2.212   3.559  0.00  0.00    +0.142 HD
ATOM     16  H   UNL     1       3.205  -1.677   3.166  0.00  0.00    +0.142 HD
ENDBRANCH   5  14
ENDBRANCH   2   4
BRANCH   1  17
ATOM     17  C   UNL     1       6.111   0.219  -0.299  0.00  0.00    +0.193 C 
BRANCH  17  18
ATOM     18  C   UNL     1       6.571   1.082   0.848  0.00  0.00    -0.018 A 
ATOM     19  C   UNL     1       5.831   2.188   1.221  0.00  0.00    +0.007 A 
ATOM     20  C   UNL     1       6.250   2.976   2.277  0.00  0.00    +0.020 A 
ATOM     21  C   UNL     1       7.416   2.664   2.953  0.00  0.00    +0.041 A 
ATOM     22  C   UNL     1       8.159   1.560   2.575  0.00  0.00    +0.020 A 
ATOM     23  C   UNL     1       7.737   0.769   1.523  0.00  0.00    +0.007 A 
ATOM     24 CL   UNL     1       7.947   3.657   4.273  0.00  0.00    -0.084 Cl
ENDBRANCH  17  18
BRANCH  17  26
ATOM     25  N   UNL     1       7.732   0.495  -2.147  0.00  0.00    -0.309 N 
ATOM     26  C   UNL     1       6.549   0.839  -1.601  0.00  0.00    +0.239 C 
ATOM     27  O   UNL     1       5.836   1.648  -2.157  0.00  0.00    -0.273 OA
ATOM     28  H   UNL     1       8.254  -0.224  -1.759  0.00  0.00    +0.149 HD
BRANCH  25  30
ATOM     29  C   UNL     1       8.430   2.684  -2.986  0.00  0.00    +0.031 C 
ATOM     30  C   UNL     1       8.228   1.206  -3.328  0.00  0.00    +0.026 C 
ATOM     31  C   UNL     1       9.562   0.598  -3.766  0.00  0.00    +0.031 C 
ATOM     32  C   UNL     1       7.212   1.080  -4.464  0.00  0.00    +0.031 C 
ENDBRANCH  25  30
ENDBRANCH  17  26
ENDBRANCH   1  17
BRANCH   1  33
ATOM     33  C   UNL     1       3.866   0.528  -1.442  0.00  0.00    +0.144 C 
BRANCH  33  34
ATOM     34  C   UNL     1       3.999  -0.508  -2.529  0.00  0.00    -0.030 A 
ATOM     35  C   UNL     1       5.081  -0.473  -3.389  0.00  0.00    +0.005 A 
ATOM     36  C   UNL     1       5.205  -1.426  -4.382  0.00  0.00    +0.000 A 
ATOM     37  C   UNL     1       4.242  -2.408  -4.523  0.00  0.00    +0.000 A 
ATOM     38  C   UNL     1       3.157  -2.439  -3.666  0.00  0.00    +0.000 A 
ATOM     39  C   UNL     1       3.036  -1.489  -2.669  0.00  0.00    +0.005 A 
ENDBRANCH  33  34
ENDBRANCH   1  33
TORSDOF 9
