REMARK  Name = ZINC09487709
REMARK  6 active torsions:
REMARK  status: ('A' for Active; 'I' for Inactive)
REMARK    1  A    between atoms: C_4  and  C_7
REMARK    2  A    between atoms: C_9  and  C_13
REMARK    3  A    between atoms: C_16  and  S_19
REMARK    4  A    between atoms: N_17  and  N_18
REMARK    5  A    between atoms: S_19  and  C_20
REMARK    6  A    between atoms: C_20  and  C_21
REMARK                            x       y       z     vdW  Elec       q    Type
REMARK                         _______ _______ _______ _____ _____    ______ ____
ROOT
ATOM      1  C   UNL     1       5.832  -3.679  -0.085  0.00  0.00    +0.199 A 
ATOM      2  N   UNL     1       5.243  -4.824   0.177  0.00  0.00    -0.125 NA
ATOM      3  N   UNL     1       6.087  -5.787   0.068  0.00  0.00    -0.120 NA
ATOM      4  C   UNL     1       7.267  -5.317  -0.270  0.00  0.00    +0.209 A 
ATOM      5  N   UNL     1       7.146  -3.961  -0.386  0.00  0.00    -0.223 N 
ENDROOT
BRANCH   1   8
ATOM      6  C   UNL     1       3.699  -0.689  -0.038  0.00  0.00    +0.093 A 
ATOM      7  C   UNL     1       3.863  -2.084  -0.053  0.00  0.00    +0.061 A 
ATOM      8  C   UNL     1       5.205  -2.346  -0.067  0.00  0.00    +0.105 A 
ATOM      9  N   UNL     1       5.857  -1.146  -0.061  0.00  0.00    -0.273 N 
ATOM     10  H   UNL     1       6.818  -1.019  -0.068  0.00  0.00    +0.189 HD
ATOM     11  N   UNL     1       4.892  -0.131  -0.048  0.00  0.00    -0.173 NA
BRANCH   6  15
ATOM     12  C   UNL     1      -0.017   1.379   0.010  0.00  0.00    +0.000 A 
ATOM     13  C   UNL     1       1.169   2.092   0.002  0.00  0.00    +0.001 A 
ATOM     14  C   UNL     1       2.377   1.425  -0.013  0.00  0.00    +0.010 A 
ATOM     15  C   UNL     1       2.402   0.033  -0.021  0.00  0.00    +0.002 A 
ATOM     16  C   UNL     1       1.205  -0.680  -0.013  0.00  0.00    +0.010 A 
ATOM     17  C   UNL     1       0.002  -0.004   0.002  0.00  0.00    +0.001 A 
ENDBRANCH   6  15
ENDBRANCH   1   8
BRANCH   5  18
ATOM     18  N   UNL     1       8.125  -3.071  -0.725  0.00  0.00    -0.295 N 
ATOM     19  H   UNL     1       8.613  -2.740   0.094  0.00  0.00    +0.163 HD
ATOM     20  H   UNL     1       8.768  -3.476  -1.389  0.00  0.00    +0.163 HD
ENDBRANCH   5  18
BRANCH   4  21
ATOM     21  S   UNL     1       8.731  -6.262  -0.533  0.00  0.00    -0.080 S 
BRANCH  21  22
ATOM     22  C   UNL     1       8.210  -7.973  -0.231  0.00  0.00    +0.112 C 
BRANCH  22  23
ATOM     23  C   UNL     1       9.384  -8.897  -0.425  0.00  0.00    -0.037 A 
ATOM     24  C   UNL     1       9.641  -9.435  -1.672  0.00  0.00    +0.005 A 
ATOM     25  C   UNL     1      10.718 -10.283  -1.851  0.00  0.00    +0.015 A 
ATOM     26  C   UNL     1      11.538 -10.593  -0.781  0.00  0.00    +0.018 A 
ATOM     27  C   UNL     1      11.280 -10.055   0.467  0.00  0.00    +0.015 A 
ATOM     28  C   UNL     1      10.206  -9.203   0.643  0.00  0.00    +0.005 A 
ATOM     29 BR   UNL     1      13.011 -11.753  -1.024  0.00  0.00    -0.050 Br
ENDBRANCH  22  23
ENDBRANCH  21  22
ENDBRANCH   4  21
TORSDOF 6
