REMARK  Name = ZINC01873971
REMARK  14 active torsions:
REMARK  status: ('A' for Active; 'I' for Inactive)
REMARK    1  A    between atoms: C_1  and  C_2
REMARK    2  A    between atoms: C_2  and  C_3
REMARK    3  A    between atoms: C_3  and  S_4
REMARK    4  A    between atoms: S_4  and  C_5
REMARK    5  A    between atoms: C_14  and  C_16
REMARK    6  A    between atoms: C_14  and  C_17
REMARK    7  A    between atoms: C_17  and  C_18
REMARK    8  A    between atoms: C_21  and  S_24
REMARK    9  A    between atoms: S_24  and  C_25
REMARK   10  A    between atoms: C_25  and  C_26
REMARK   11  A    between atoms: N_28  and  C_29
REMARK   12  A    between atoms: C_29  and  C_31
REMARK   13  A    between atoms: C_29  and  C_32
REMARK   14  A    between atoms: C_32  and  C_33
REMARK                            x       y       z     vdW  Elec       q    Type
REMARK                         _______ _______ _______ _____ _____    ______ ____
ROOT
ATOM      1  C   UNL     1       1.641  -2.747   2.702  0.00  0.00    +0.178 A 
ATOM      2  N   UNL     1       2.082  -1.791   3.486  0.00  0.00    -0.216 NA
ATOM      3  C   UNL     1       2.749  -2.045   4.610  0.00  0.00    +0.115 A 
ATOM      4  C   UNL     1       3.029  -3.352   5.037  0.00  0.00    +0.056 A 
ATOM      5  C   UNL     1       3.769  -3.468   6.288  0.00  0.00    -0.019 A 
ATOM      6  C   UNL     1       4.112  -2.316   6.911  0.00  0.00    +0.021 A 
ATOM      7  S   UNL     1       3.474  -1.031   5.875  0.00  0.00    -0.071 S 
ATOM      8  C   UNL     1       4.866  -2.196   8.198  0.00  0.00    +0.203 C 
ATOM      9  O   UNL     1       4.889  -3.491   8.819  0.00  0.00    -0.368 OA
ATOM     10  C   UNL     1       5.276  -4.543   7.931  0.00  0.00    +0.071 C 
ATOM     11  C   UNL     1       4.166  -4.806   6.908  0.00  0.00    +0.071 C 
ATOM     12  C   UNL     1       6.556  -4.141   7.196  0.00  0.00    +0.042 C 
ATOM     13  C   UNL     1       2.529  -4.423   4.149  0.00  0.00    +0.174 A 
ATOM     14  N   UNL     1       1.844  -4.067   3.007  0.00  0.00    -0.248 N 
ATOM     15  C   UNL     1       1.506  -5.247   2.402  0.00  0.00    +0.198 A 
ATOM     16  N   UNL     1       1.967  -6.216   3.158  0.00  0.00    -0.122 NA
ATOM     17  N   UNL     1       2.577  -5.732   4.184  0.00  0.00    -0.128 NA
ENDROOT
BRANCH  10  18
ATOM     18  C   UNL     1       5.535  -5.818   8.736  0.00  0.00    +0.032 C 
ATOM     19  C   UNL     1       6.656  -5.564   9.746  0.00  0.00    +0.007 C 
ENDBRANCH  10  18
BRANCH   1  20
ATOM     20  S   UNL     1       0.767  -2.325   1.232  0.00  0.00    -0.087 S 
BRANCH  20  21
ATOM     21  C   UNL     1       0.742  -0.511   1.242  0.00  0.00    +0.077 C 
BRANCH  21  23
ATOM     22  C   UNL     1      -0.019   1.526   0.010  0.00  0.00    +0.004 C 
ATOM     23  C   UNL     1       0.002  -0.004   0.002  0.00  0.00    +0.008 C 
ENDBRANCH  21  23
ENDBRANCH  20  21
ENDBRANCH   1  20
BRANCH  15  24
ATOM     24  S   UNL     1       0.619  -5.431   0.891  0.00  0.00    -0.076 S 
BRANCH  24  25
ATOM     25  C   UNL     1       0.512  -7.227   0.661  0.00  0.00    +0.173 C 
BRANCH  25  26
ATOM     26  C   UNL     1      -0.234  -7.527  -0.614  0.00  0.00    +0.224 C 
ATOM     27  O   UNL     1      -0.653  -6.618  -1.299  0.00  0.00    -0.275 OA
ATOM     28  N   UNL     1      -0.436  -8.805  -0.992  0.00  0.00    -0.312 N 
ATOM     29  H   UNL     1      -0.101  -9.531  -0.444  0.00  0.00    +0.149 HD
BRANCH  28  30
ATOM     30  C   UNL     1      -1.161  -9.096  -2.231  0.00  0.00    +0.074 C 
ATOM     31  C   UNL     1      -0.190  -9.054  -3.412  0.00  0.00    +0.028 C 
BRANCH  30  32
ATOM     32  C   UNL     1      -1.792 -10.487  -2.138  0.00  0.00    +0.057 C 
BRANCH  32  33
ATOM     33  C   UNL     1      -2.837 -10.493  -1.053  0.00  0.00    -0.046 A 
ATOM     34  C   UNL     1      -2.485 -10.813   0.245  0.00  0.00    +0.004 A 
ATOM     35  C   UNL     1      -3.444 -10.819   1.240  0.00  0.00    +0.000 A 
ATOM     36  C   UNL     1      -4.756 -10.504   0.938  0.00  0.00    +0.000 A 
ATOM     37  C   UNL     1      -5.108 -10.183  -0.359  0.00  0.00    +0.000 A 
ATOM     38  C   UNL     1      -4.148 -10.173  -1.354  0.00  0.00    +0.004 A 
ENDBRANCH  32  33
ENDBRANCH  30  32
ENDBRANCH  28  30
ENDBRANCH  25  26
ENDBRANCH  24  25
ENDBRANCH  15  24
TORSDOF 10
