REMARK  Name = ZINC14669977
REMARK  18 active torsions:
REMARK  status: ('A' for Active; 'I' for Inactive)
REMARK    1  A    between atoms: C_1  and  C_2
REMARK    2  A    between atoms: C_2  and  C_3
REMARK    3  A    between atoms: C_3  and  C_4
REMARK    4  A    between atoms: C_4  and  N_5
REMARK    5  A    between atoms: C_6  and  N_35
REMARK    6  A    between atoms: C_7  and  N_14
REMARK    7  A    between atoms: N_14  and  C_15
REMARK    8  A    between atoms: C_15  and  C_16
REMARK    9  A    between atoms: C_16  and  C_17
REMARK   10  A    between atoms: C_16  and  C_18
REMARK   11  A    between atoms: C_19  and  C_21
REMARK   12  A    between atoms: C_23  and  O_32
REMARK   13  A    between atoms: C_24  and  O_28
REMARK   14  A    between atoms: O_28  and  C_29
REMARK   15  A    between atoms: C_29  and  C_30
REMARK   16  A    between atoms: C_30  and  C_31
REMARK   17  A    between atoms: O_32  and  C_33
REMARK   18  A    between atoms: C_33  and  C_34
REMARK                            x       y       z     vdW  Elec       q    Type
REMARK                         _______ _______ _______ _____ _____    ______ ____
ROOT
ATOM      1  N   UNL     1       2.637   4.048  -0.360  0.00  0.00    -0.260 N 
ATOM      2  C   UNL     1       2.635   5.310   0.114  0.00  0.00    +0.251 C 
ATOM      3  O   UNL     1       3.593   5.726   0.738  0.00  0.00    -0.270 OA
ENDROOT
BRANCH   1   6
ATOM      4  N   UNL     1      -0.296   1.966  -1.110  0.00  0.00    -0.280 N 
ATOM      5  C   UNL     1       0.821   2.447  -0.466  0.00  0.00    +0.127 A 
ATOM      6  C   UNL     1       1.489   3.532  -0.996  0.00  0.00    +0.140 A 
ATOM      7  C   UNL     1       1.004   4.116  -2.182  0.00  0.00    +0.277 A 
ATOM      8  O   UNL     1       1.575   5.076  -2.671  0.00  0.00    -0.266 OA
ATOM      9  N   UNL     1      -0.094   3.606  -2.772  0.00  0.00    -0.273 N 
ATOM     10  H   UNL     1      -0.437   4.017  -3.617  0.00  0.00    +0.173 HD
ATOM     11  C   UNL     1      -0.735   2.551  -2.239  0.00  0.00    +0.331 A 
ATOM     12  O   UNL     1      -1.727   2.114  -2.790  0.00  0.00    -0.246 OA
BRANCH   5  13
ATOM     13  N   UNL     1       1.266   1.853   0.690  0.00  0.00    -0.343 N 
ATOM     14  H   UNL     1       2.003   2.245   1.184  0.00  0.00    +0.144 HD
ATOM     15  H   UNL     1       0.844   1.041   1.012  0.00  0.00    +0.144 HD
ENDBRANCH   5  13
BRANCH   4  16
ATOM     16  C   UNL     1      -1.015   0.815  -0.559  0.00  0.00    +0.128 C 
BRANCH  16  17
ATOM     17  C   UNL     1      -2.095   1.303   0.409  0.00  0.00    +0.021 C 
BRANCH  17  19
ATOM     18  C   UNL     1      -3.925   0.589   1.952  0.00  0.00    +0.004 C 
ATOM     19  C   UNL     1      -2.845   0.100   0.985  0.00  0.00    -0.002 C 
ENDBRANCH  17  19
ENDBRANCH  16  17
ENDBRANCH   4  16
ENDBRANCH   1   6
BRANCH   2  20
ATOM     20  C   UNL     1       1.472   6.186  -0.124  0.00  0.00    +0.042 A 
ATOM     21  C   UNL     1       1.639   7.573  -0.178  0.00  0.00    +0.062 A 
ATOM     22  C   UNL     1       0.547   8.389  -0.401  0.00  0.00    +0.164 A 
ATOM     23  C   UNL     1      -0.718   7.830  -0.572  0.00  0.00    +0.180 A 
ATOM     24  C   UNL     1      -0.884   6.452  -0.519  0.00  0.00    +0.087 A 
ATOM     25  C   UNL     1       0.203   5.631  -0.301  0.00  0.00    +0.037 A 
ATOM     26 CL   UNL     1      -2.463   5.761  -0.732  0.00  0.00    -0.080 Cl
BRANCH  23  27
ATOM     27  O   UNL     1      -1.790   8.634  -0.792  0.00  0.00    -0.487 OA
BRANCH  27  28
ATOM     28  C   UNL     1      -2.100   8.945  -2.152  0.00  0.00    +0.229 C 
BRANCH  28  29
ATOM     29  C   UNL     1      -3.330   9.855  -2.199  0.00  0.00    +0.038 C 
ATOM     30  C   UNL     1      -3.662  10.188  -3.655  0.00  0.00    +0.007 C 
ENDBRANCH  28  29
ENDBRANCH  27  28
ENDBRANCH  23  27
BRANCH  22  31
ATOM     31  O   UNL     1       0.707   9.739  -0.454  0.00  0.00    -0.489 OA
BRANCH  31  32
ATOM     32  C   UNL     1       2.031  10.243  -0.271  0.00  0.00    +0.226 C 
ATOM     33  C   UNL     1       2.013  11.770  -0.363  0.00  0.00    +0.048 C 
ENDBRANCH  31  32
ENDBRANCH  22  31
ENDBRANCH   2  20
BRANCH   1  34
ATOM     34  C   UNL     1       3.831   3.212  -0.214  0.00  0.00    +0.117 C 
BRANCH  34  35
ATOM     35  C   UNL     1       4.668   3.291  -1.493  0.00  0.00    +0.001 C 
ATOM     36  C   UNL     1       5.208   4.713  -1.662  0.00  0.00    +0.009 C 
ATOM     37  C   UNL     1       5.837   2.309  -1.399  0.00  0.00    +0.009 C 
ENDBRANCH  34  35
ENDBRANCH   1  34
TORSDOF 13
