REMARK  Name = ZINC05353142
REMARK  6 active torsions:
REMARK  status: ('A' for Active; 'I' for Inactive)
REMARK    1  A    between atoms: C_1  and  C_2
REMARK    2  A    between atoms: C_2  and  C_3
REMARK    3  A    between atoms: C_2  and  C_4
REMARK    4  A    between atoms: C_2  and  C_5
REMARK    5  A    between atoms: C_11  and  C_15
REMARK    6  A    between atoms: N_17  and  N_18
REMARK                            x       y       z     vdW  Elec       q    Type
REMARK                         _______ _______ _______ _____ _____    ______ ____
ROOT
ATOM      1  C   UNL     1       4.978   0.843  -2.647  0.00  0.00    +0.284 C 
ATOM      2  O   UNL     1       4.635   1.622  -1.779  0.00  0.00    -0.267 OA
ATOM      3  N   UNL     1       6.131   1.045  -3.316  0.00  0.00    -0.201 N 
ATOM      4  H   UNL     1       6.405   0.423  -4.009  0.00  0.00    +0.178 HD
ENDROOT
BRANCH   3   5
ATOM      5  N   UNL     1       6.934   2.152  -3.011  0.00  0.00    -0.174 NA
ATOM      6  C   UNL     1       8.055   2.348  -3.661  0.00  0.00    +0.153 C 
ATOM      7  C   UNL     1       9.027   3.450  -3.473  0.00  0.00    +0.029 A 
ATOM      8  C   UNL     1       9.069   4.546  -2.619  0.00  0.00    +0.027 A 
ATOM      9  C   UNL     1      10.135   5.423  -2.681  0.00  0.00    +0.019 A 
ATOM     10  C   UNL     1      11.157   5.208  -3.591  0.00  0.00    +0.017 A 
ATOM     11  C   UNL     1      11.124   4.122  -4.442  0.00  0.00    +0.025 A 
ATOM     12  C   UNL     1      10.059   3.229  -4.394  0.00  0.00    +0.043 A 
ATOM     13  N   UNL     1       9.785   2.078  -5.125  0.00  0.00    -0.280 N 
ATOM     14  C   UNL     1       8.628   1.514  -4.737  0.00  0.00    +0.269 C 
ATOM     15  O   UNL     1       8.138   0.499  -5.195  0.00  0.00    -0.268 OA
ATOM     16 BR   UNL     1      10.198   6.917  -1.523  0.00  0.00    -0.050 Br
ATOM     17  H   UNL     1      10.358   1.725  -5.823  0.00  0.00    +0.155 HD
ENDBRANCH   3   5
BRANCH   1  23
ATOM     18  C   UNL     1       0.718  -0.497  -1.257  0.00  0.00    -0.001 C 
ATOM     19  C   UNL     1       0.739  -2.028  -1.265  0.00  0.00    +0.010 C 
ATOM     20  C   UNL     1       1.225  -2.530  -2.631  0.00  0.00    +0.055 C 
ATOM     21  C   UNL     1       2.501  -1.805  -2.975  0.00  0.00    +0.040 A 
ATOM     22  C   UNL     1       2.911  -0.667  -2.364  0.00  0.00    +0.006 A 
ATOM     23  C   UNL     1       4.133  -0.323  -2.969  0.00  0.00    +0.152 A 
ATOM     24  N   UNL     1       4.376  -1.247  -3.883  0.00  0.00    -0.169 NA
ATOM     25  N   UNL     1       3.427  -2.119  -3.896  0.00  0.00    -0.281 N 
ATOM     26  H   UNL     1       3.388  -2.889  -4.484  0.00  0.00    +0.189 HD
ATOM     27  C   UNL     1       2.158   0.034  -1.268  0.00  0.00    +0.043 C 
BRANCH  18  29
ATOM     28  C   UNL     1      -0.019   1.526   0.010  0.00  0.00    +0.011 C 
ATOM     29  C   UNL     1       0.002  -0.004   0.002  0.00  0.00    -0.035 C 
ATOM     30  C   UNL     1       0.742  -0.511   1.242  0.00  0.00    +0.011 C 
ATOM     31  C   UNL     1      -1.433  -0.534   0.013  0.00  0.00    +0.011 C 
ENDBRANCH  18  29
ENDBRANCH   1  23
TORSDOF 3
