REMARK  Name = ZINC11871036
REMARK  12 active torsions:
REMARK  status: ('A' for Active; 'I' for Inactive)
REMARK    1  A    between atoms: C_1  and  C_2
REMARK    2  A    between atoms: C_2  and  C_3
REMARK    3  A    between atoms: C_2  and  C_4
REMARK    4  A    between atoms: C_4  and  C_5
REMARK    5  A    between atoms: C_5  and  C_19
REMARK    6  A    between atoms: N_8  and  C_12
REMARK    7  A    between atoms: C_12  and  C_13
REMARK    8  A    between atoms: C_13  and  C_14
REMARK    9  A    between atoms: C_24  and  C_25
REMARK   10  A    between atoms: C_24  and  N_71
REMARK   11  A    between atoms: C_28  and  N_31
REMARK   12  A    between atoms: C_32  and  C_34
REMARK                            x       y       z     vdW  Elec       q    Type
REMARK                         _______ _______ _______ _____ _____    ______ ____
ROOT
ATOM      1  C   UNL     1      -1.790   4.672   2.118  0.00  0.00    +0.115 C 
ATOM      2  C   UNL     1      -2.430   3.357   2.517  0.00  0.00    +0.247 C 
ATOM      3  O   UNL     1      -1.967   2.246   2.377  0.00  0.00    -0.273 OA
ATOM      4  N   UNL     1      -3.619   3.681   3.062  0.00  0.00    -0.224 N 
ATOM      5  C   UNL     1      -3.818   5.004   3.061  0.00  0.00    +0.309 C 
ATOM      6  O   UNL     1      -4.819   5.537   3.501  0.00  0.00    -0.252 OA
ATOM      7  N   UNL     1      -2.788   5.679   2.521  0.00  0.00    -0.285 N 
ATOM      8  H   UNL     1      -2.715   6.641   2.417  0.00  0.00    +0.151 HD
ENDROOT
BRANCH   1   9
ATOM      9  C   UNL     1      -1.558   4.721   0.606  0.00  0.00    +0.018 C 
ATOM     10  C   UNL     1      -2.874   4.438  -0.123  0.00  0.00    -0.013 C 
ATOM     11  C   UNL     1      -2.623   4.427  -1.633  0.00  0.00    -0.078 C 
ATOM     12  C   UNL     1      -0.344   3.671  -1.306  0.00  0.00    -0.078 C 
ATOM     13  C   UNL     1      -0.527   3.659   0.213  0.00  0.00    -0.013 C 
ATOM     14  N   UNL     1      -1.641   3.368  -1.948  0.00  0.00    +0.382 N 
ATOM     15  H   UNL     1      -1.990   2.472  -1.588  0.00  0.00    -0.081 HD
BRANCH  14  16
ATOM     16  C   UNL     1      -1.467   3.261  -3.412  0.00  0.00    -0.043 C 
BRANCH  16  17
ATOM     17  C   UNL     1      -0.280   2.380  -3.704  0.00  0.00    -0.064 A 
ATOM     18  C   UNL     1       0.976   2.942  -3.853  0.00  0.00    +0.003 A 
ATOM     19  C   UNL     1       2.065   2.138  -4.127  0.00  0.00    +0.023 A 
ATOM     20  C   UNL     1       1.899   0.765  -4.254  0.00  0.00    +0.033 A 
ATOM     21  C   UNL     1       0.637   0.205  -4.105  0.00  0.00    +0.023 A 
ATOM     22  C   UNL     1      -0.448   1.014  -3.830  0.00  0.00    +0.003 A 
BRANCH  20  23
ATOM     23  N   UNL     1       3.000  -0.052  -4.532  0.00  0.00    -0.286 N 
ATOM     24  C   UNL     1       2.843  -1.166  -5.274  0.00  0.00    +0.214 C 
ATOM     25  O   UNL     1       1.767  -1.413  -5.777  0.00  0.00    -0.276 OA
ATOM     26  C   UNL     1       4.004  -2.105  -5.478  0.00  0.00    +0.109 C 
ATOM     27  H   UNL     1       3.877   0.184  -4.190  0.00  0.00    +0.155 HD
ENDBRANCH  20  23
ENDBRANCH  16  17
ENDBRANCH  14  16
ENDBRANCH   1   9
BRANCH   1  28
ATOM     28  C   UNL     1      -0.475   4.882   2.870  0.00  0.00    +0.038 C 
BRANCH  28  30
ATOM     29  C   UNL     1       0.608   4.774   5.119  0.00  0.00    +0.007 C 
ATOM     30  C   UNL     1      -0.729   4.797   4.376  0.00  0.00    -0.015 C 
ATOM     31  C   UNL     1      -1.542   6.012   4.826  0.00  0.00    +0.007 C 
ENDBRANCH  28  30
ENDBRANCH   1  28
BRANCH   4  32
ATOM     32  C   UNL     1      -4.576   2.705   3.589  0.00  0.00    +0.123 C 
BRANCH  32  33
ATOM     33  C   UNL     1      -4.289   2.459   5.072  0.00  0.00    +0.062 C 
BRANCH  33  34
ATOM     34  C   UNL     1      -5.273   1.455   5.614  0.00  0.00    -0.009 A 
ATOM     35  C   UNL     1      -5.174   0.104   5.665  0.00  0.00    +0.011 A 
ATOM     36  C   UNL     1      -6.212  -0.624   6.215  0.00  0.00    +0.008 A 
ATOM     37  C   UNL     1      -7.299   0.035   6.686  0.00  0.00    +0.045 A 
ATOM     38  S   UNL     1      -6.868   1.737   6.364  0.00  0.00    -0.102 S 
ENDBRANCH  33  34
ENDBRANCH  32  33
ENDBRANCH   4  32
TORSDOF 9
