REMARK  Name = ZINC27025893
REMARK  7 active torsions:
REMARK  status: ('A' for Active; 'I' for Inactive)
REMARK    1  A    between atoms: C_1  and  C_2
REMARK    2  A    between atoms: C_2  and  C_36
REMARK    3  A    between atoms: C_3  and  C_32
REMARK    4  A    between atoms: C_5  and  C_7
REMARK    5  A    between atoms: C_19  and  C_21
REMARK    6  A    between atoms: C_21  and  C_22
REMARK    7  A    between atoms: N_24  and  C_25
REMARK                            x       y       z     vdW  Elec       q    Type
REMARK                         _______ _______ _______ _____ _____    ______ ____
ROOT
ATOM      1  C   UNL     1      -3.040   7.335  -2.628  0.00  0.00    +0.225 C 
ATOM      2  O   UNL     1      -3.095   7.571  -1.440  0.00  0.00    -0.275 OA
ATOM      3  N   UNL     1      -1.899   7.562  -3.308  0.00  0.00    -0.257 N 
ATOM      4  C   UNL     1      -1.812   7.300  -4.685  0.00  0.00    +0.058 A 
ATOM      5  C   UNL     1      -2.574   6.307  -5.273  0.00  0.00    +0.025 A 
ATOM      6  C   UNL     1      -2.462   6.069  -6.631  0.00  0.00    +0.002 A 
ATOM      7  C   UNL     1      -1.592   6.822  -7.399  0.00  0.00    +0.002 A 
ATOM      8  C   UNL     1      -0.828   7.817  -6.818  0.00  0.00    +0.025 A 
ATOM      9  C   UNL     1      -0.935   8.063  -5.458  0.00  0.00    +0.055 A 
ATOM     10  N   UNL     1      -0.180   9.073  -4.852  0.00  0.00    -0.282 N 
ATOM     11  C   UNL     1      -0.066   9.138  -3.510  0.00  0.00    +0.239 C 
ATOM     12  O   UNL     1       0.557  10.047  -3.002  0.00  0.00    -0.273 OA
ATOM     13  C   UNL     1      -0.706   8.093  -2.632  0.00  0.00    +0.176 C 
ATOM     14  H   UNL     1       0.330   9.825  -5.471  0.00  0.00    +0.155 HD
ENDROOT
BRANCH   1  18
ATOM     15  C   UNL     1      -5.269   6.400  -0.968  0.00  0.00    +0.012 C 
ATOM     16  C   UNL     1      -5.416   6.298  -2.487  0.00  0.00    -0.016 C 
ATOM     17  C   UNL     1      -4.527   5.290  -3.217  0.00  0.00    +0.033 C 
ATOM     18  C   UNL     1      -4.248   6.788  -3.345  0.00  0.00    +0.089 C 
ATOM     19  C   UNL     1      -6.831   6.515  -3.029  0.00  0.00    +0.012 C 
BRANCH  17  20
ATOM     20  C   UNL     1      -3.573   4.473  -2.385  0.00  0.00    +0.010 C 
ATOM     21  C   UNL     1      -3.025   3.390  -2.887  0.00  0.00    +0.103 C 
ATOM     22 CL   UNL     1      -3.259   2.995  -4.561  0.00  0.00    -0.071 Cl
ATOM     23 CL   UNL     1      -2.066   2.353  -1.876  0.00  0.00    -0.071 Cl
ENDBRANCH  17  20
ENDBRANCH   1  18
BRANCH  13  24
ATOM     24  C   UNL     1       0.288   6.957  -2.381  0.00  0.00    +0.128 C 
BRANCH  24  25
ATOM     25  C   UNL     1      -0.284   6.006  -1.362  0.00  0.00    +0.219 C 
ATOM     26  O   UNL     1      -1.423   6.150  -0.970  0.00  0.00    -0.275 OA
ATOM     27  N   UNL     1       0.469   4.995  -0.886  0.00  0.00    -0.285 N 
ATOM     28  H   UNL     1       1.542   4.950  -1.124  0.00  0.00    +0.155 HD
BRANCH  27  29
ATOM     29  C   UNL     1      -0.113   4.003  -0.089  0.00  0.00    +0.033 A 
ATOM     30  C   UNL     1       0.282   2.679  -0.227  0.00  0.00    +0.025 A 
ATOM     31  C   UNL     1      -0.294   1.702   0.561  0.00  0.00    +0.022 A 
ATOM     32  C   UNL     1      -1.265   2.041   1.487  0.00  0.00    +0.041 A 
ATOM     33  C   UNL     1      -1.665   3.359   1.623  0.00  0.00    +0.022 A 
ATOM     34  C   UNL     1      -1.087   4.341   0.841  0.00  0.00    +0.025 A 
ATOM     35 CL   UNL     1      -1.988   0.810   2.475  0.00  0.00    -0.084 Cl
ENDBRANCH  27  29
ENDBRANCH  24  25
ENDBRANCH  13  24
TORSDOF 5
