REMARK  Name = ZINC63270915
REMARK  2 active torsions:
REMARK  status: ('A' for Active; 'I' for Inactive)
REMARK    1  A    between atoms: C_17  and  C_19
REMARK    2  A    between atoms: C_19  and  N_20
REMARK                            x       y       z     vdW  Elec       q    Type
REMARK                         _______ _______ _______ _____ _____    ______ ____
ROOT
ATOM      1  N   UNL     1       1.884   0.874   4.949  0.00  0.00    -0.291 N 
ATOM      2  C   UNL     1       0.980   1.535   5.699  0.00  0.00    +0.303 C 
ATOM      3  O   UNL     1       0.755   2.710   5.483  0.00  0.00    -0.253 OA
ATOM      4  N   UNL     1       0.327   0.894   6.688  0.00  0.00    -0.283 N 
ATOM      5  C   UNL     1       0.691  -0.486   7.023  0.00  0.00    +0.114 C 
ATOM      6  C   UNL     1       1.097  -0.564   8.506  0.00  0.00    +0.052 C 
ATOM      7  C   UNL     1       0.060   0.210   9.280  0.00  0.00    -0.035 C 
ATOM      8  C   UNL     1      -0.675  -0.119  10.335  0.00  0.00    +0.001 A 
ATOM      9  C   UNL     1      -0.669  -1.310  11.200  0.00  0.00    +0.030 A 
ATOM     10  C   UNL     1      -1.590  -1.329  12.201  0.00  0.00    +0.042 A 
ATOM     11  C   UNL     1      -2.504  -0.294  12.425  0.00  0.00    +0.022 A 
ATOM     12  C   UNL     1      -2.574   0.841  11.684  0.00  0.00    +0.027 A 
ATOM     13  C   UNL     1      -1.651   0.980  10.607  0.00  0.00    +0.043 A 
ATOM     14  N   UNL     1      -1.482   1.956   9.765  0.00  0.00    -0.376 N 
ATOM     15  C   UNL     1      -0.348   1.629   8.901  0.00  0.00    +0.124 C 
ATOM     16  C   UNL     1      -0.740   1.589   7.425  0.00  0.00    +0.138 C 
ATOM     17 CL   UNL     1      -1.632  -2.708  13.255  0.00  0.00    -0.084 Cl
ATOM     18  H   UNL     1       2.118  -0.042   5.167  0.00  0.00    +0.151 HD
ATOM     19  H   UNL     1      -2.017   2.764   9.718  0.00  0.00    +0.160 HD
ENDROOT
BRANCH   1  20
ATOM     20  C   UNL     1       2.514   1.538   3.805  0.00  0.00    +0.201 C 
BRANCH  20  35
ATOM     21  C   UNL     1      -0.029   1.376   0.011  0.00  0.00    +0.007 A 
ATOM     22  C   UNL     1       1.189   2.065   0.002  0.00  0.00    +0.022 A 
ATOM     23  C   UNL     1       2.366   1.386  -0.049  0.00  0.00    +0.027 A 
ATOM     24  N   UNL     1       2.376   0.037  -0.149  0.00  0.00    -0.312 N 
ATOM     25  C   UNL     1       1.216  -0.657  -0.042  0.00  0.00    +0.251 A 
ATOM     26  O   UNL     1       1.244  -1.876   0.019  0.00  0.00    -0.268 OA
ATOM     27  C   UNL     1      -0.015   0.012   0.001  0.00  0.00    +0.070 A 
ATOM     28  C   UNL     1       3.587  -0.735  -0.431  0.00  0.00    +0.130 C 
ATOM     29  C   UNL     1       4.853   0.034  -0.099  0.00  0.00    +0.027 C 
ATOM     30  C   UNL     1       4.771   1.446  -0.680  0.00  0.00    +0.018 C 
ATOM     31  C   UNL     1       3.640   2.195   0.028  0.00  0.00    +0.054 C 
ATOM     32  C   UNL     1       4.012   2.341   1.513  0.00  0.00    +0.117 C 
ATOM     33  N   UNL     1       4.177   0.985   2.059  0.00  0.00    -0.299 N 
ATOM     34  C   UNL     1       5.110   0.088   1.401  0.00  0.00    +0.113 C 
ATOM     35  C   UNL     1       3.477   0.588   3.141  0.00  0.00    +0.233 C 
ATOM     36  O   UNL     1       3.624  -0.533   3.580  0.00  0.00    -0.274 OA
ENDBRANCH  20  35
ENDBRANCH   1  20
TORSDOF 2
