REMARK  Name = ZINC39280196
REMARK  6 active torsions:
REMARK  status: ('A' for Active; 'I' for Inactive)
REMARK    1  A    between atoms: C_7  and  C_10
REMARK    2  A    between atoms: C_10  and  C_11
REMARK    3  A    between atoms: C_11  and  N_12
REMARK    4  A    between atoms: C_13  and  C_15
REMARK    5  A    between atoms: C_17  and  N_31
REMARK    6  A    between atoms: C_22  and  C_26
REMARK                            x       y       z     vdW  Elec       q    Type
REMARK                         _______ _______ _______ _____ _____    ______ ____
ROOT
ATOM      1  C   UNL     1      -5.660   7.126  -2.507  0.00  0.00    +0.128 C 
ATOM      2  C   UNL     1      -5.185   7.923  -3.743  0.00  0.00    -0.019 C 
ATOM      3  C   UNL     1      -6.156   7.805  -4.890  0.00  0.00    -0.028 A 
ATOM      4  C   UNL     1      -5.885   8.039  -6.244  0.00  0.00    +0.007 A 
ATOM      5  C   UNL     1      -6.893   7.903  -7.175  0.00  0.00    +0.029 A 
ATOM      6  C   UNL     1      -8.173   7.535  -6.761  0.00  0.00    +0.079 A 
ATOM      7  N   UNL     1      -8.409   7.309  -5.472  0.00  0.00    -0.240 NA
ATOM      8  C   UNL     1      -7.458   7.425  -4.565  0.00  0.00    +0.100 A 
ATOM      9  S   UNL     1      -7.476   7.149  -2.805  0.00  0.00    -0.094 S 
ENDROOT
BRANCH   6  10
ATOM     10  C   UNL     1      -9.261   7.396  -7.750  0.00  0.00    +0.038 A 
ATOM     11  C   UNL     1     -10.572   7.053  -7.548  0.00  0.00    +0.017 A 
ATOM     12  C   UNL     1     -11.414   6.987  -8.636  0.00  0.00    +0.008 A 
ATOM     13  C   UNL     1     -10.921   7.262  -9.871  0.00  0.00    +0.046 A 
ATOM     14  S   UNL     1      -9.212   7.638  -9.518  0.00  0.00    -0.095 S 
ENDBRANCH   6  10
BRANCH   1  16
ATOM     15  N   UNL     1      -4.962   5.047  -1.362  0.00  0.00    -0.314 N 
ATOM     16  C   UNL     1      -5.120   5.719  -2.519  0.00  0.00    +0.225 C 
ATOM     17  O   UNL     1      -4.826   5.191  -3.571  0.00  0.00    -0.275 OA
ATOM     18  H   UNL     1      -5.197   5.469  -0.520  0.00  0.00    +0.149 HD
BRANCH  15  19
ATOM     19  C   UNL     1      -4.437   3.680  -1.374  0.00  0.00    +0.109 C 
BRANCH  19  20
ATOM     20  C   UNL     1      -4.358   3.151   0.060  0.00  0.00    +0.056 C 
BRANCH  20  27
ATOM     21  C   UNL     1      -0.017   1.384   0.010  0.00  0.00    +0.001 A 
ATOM     22  C   UNL     1       0.002  -0.004   0.002  0.00  0.00    +0.002 A 
ATOM     23  C   UNL     1      -1.173  -0.723   0.009  0.00  0.00    +0.026 A 
ATOM     24  C   UNL     1      -2.392  -0.053   0.024  0.00  0.00    +0.047 A 
ATOM     25  N   UNL     1      -3.704  -0.472   0.034  0.00  0.00    -0.360 N 
ATOM     26  C   UNL     1      -4.539   0.612   0.047  0.00  0.00    +0.087 A 
ATOM     27  C   UNL     1      -3.818   1.744   0.047  0.00  0.00    -0.021 A 
ATOM     28  C   UNL     1      -2.406   1.353   0.032  0.00  0.00    +0.003 A 
ATOM     29  C   UNL     1      -1.203   2.062   0.030  0.00  0.00    +0.010 A 
ATOM     30  H   UNL     1      -3.993  -1.398   0.030  0.00  0.00    +0.165 HD
ENDBRANCH  20  27
ENDBRANCH  19  20
ENDBRANCH  15  19
ENDBRANCH   1  16
BRANCH   2  31
ATOM     31  N   UNL     1      -5.049   9.339  -3.376  0.00  0.00    +0.384 N 
ATOM     32  H   UNL     1      -4.374   9.430  -2.632  0.00  0.00    -0.089 HD
ATOM     33  H   UNL     1      -4.739   9.866  -4.179  0.00  0.00    -0.089 HD
ATOM     34  H   UNL     1      -5.941   9.693  -3.066  0.00  0.00    -0.089 HD
ENDBRANCH   2  31
TORSDOF 6
