REMARK  Name = ZINC06244788
REMARK  10 active torsions:
REMARK  status: ('A' for Active; 'I' for Inactive)
REMARK    1  A    between atoms: C_1  and  C_2
REMARK    2  A    between atoms: C_5  and  C_40
REMARK    3  A    between atoms: C_9  and  C_14
REMARK    4  A    between atoms: C_14  and  C_16
REMARK    5  A    between atoms: C_14  and  N_72
REMARK    6  A    between atoms: N_20  and  C_21
REMARK    7  A    between atoms: C_27  and  C_28
REMARK    8  A    between atoms: C_27  and  N_72
REMARK    9  A    between atoms: C_34  and  C_35
REMARK   10  A    between atoms: C_34  and  N_72
REMARK                            x       y       z     vdW  Elec       q    Type
REMARK                         _______ _______ _______ _____ _____    ______ ____
ROOT
ATOM      1  C   UNL     1       2.572   3.576   0.093  0.00  0.00    +0.040 C 
ENDROOT
BRANCH   1  10
ATOM      2  C   UNL     1      -2.579   4.114   0.638  0.00  0.00    +0.044 C 
ATOM      3  C   UNL     1      -2.250   2.665   0.892  0.00  0.00    -0.041 A 
ATOM      4  C   UNL     1      -3.245   1.780   1.199  0.00  0.00    +0.004 A 
ATOM      5  C   UNL     1      -2.953   0.444   1.434  0.00  0.00    +0.005 A 
ATOM      6  C   UNL     1      -1.655  -0.016   1.363  0.00  0.00    -0.026 A 
ATOM      7  C   UNL     1      -0.627   0.866   1.048  0.00  0.00    +0.052 A 
ATOM      8  C   UNL     1      -0.926   2.221   0.814  0.00  0.00    +0.002 A 
ATOM      9  C   UNL     1       0.164   3.143   0.488  0.00  0.00    +0.018 A 
ATOM     10  C   UNL     1       1.427   2.655   0.427  0.00  0.00    +0.011 A 
ATOM     11  C   UNL     1       1.675   1.288   0.674  0.00  0.00    +0.251 A 
ATOM     12  O   UNL     1       2.818   0.870   0.614  0.00  0.00    -0.268 OA
ATOM     13  N   UNL     1       0.680   0.434   0.975  0.00  0.00    -0.322 N 
ATOM     14  H   UNL     1       0.885  -0.500   1.139  0.00  0.00    +0.169 HD
ATOM     15  C   UNL     1      -1.353  -1.470   1.621  0.00  0.00    +0.046 C 
ENDBRANCH   1  10
BRANCH   1  16
ATOM     16  C   UNL     1       3.494   3.684   1.281  0.00  0.00    +0.143 A 
ATOM     17  N   UNL     1       4.348   2.779   1.692  0.00  0.00    -0.115 NA
ATOM     18  N   UNL     1       4.947   3.243   2.735  0.00  0.00    -0.023 NA
ATOM     19  N   UNL     1       4.497   4.420   2.998  0.00  0.00    -0.044 NA
ATOM     20  N   UNL     1       3.603   4.729   2.121  0.00  0.00    -0.227 N 
BRANCH  20  21
ATOM     21  C   UNL     1       2.847   5.982   2.054  0.00  0.00    +0.111 C 
ATOM     22  C   UNL     1       3.815   7.154   1.884  0.00  0.00    +0.027 C 
ATOM     23  C   UNL     1       3.025   8.463   1.814  0.00  0.00    +0.002 C 
ATOM     24  C   UNL     1       2.226   8.645   3.106  0.00  0.00    +0.000 C 
ATOM     25  C   UNL     1       1.257   7.473   3.276  0.00  0.00    +0.002 C 
ATOM     26  C   UNL     1       2.047   6.165   3.346  0.00  0.00    +0.027 C 
ENDBRANCH  20  21
ENDBRANCH   1  16
BRANCH   1  27
ATOM     27  N   UNL     1       3.329   3.016  -1.047  0.00  0.00    +0.397 N 
ATOM     28  H   UNL     1       3.840   2.183  -0.731  0.00  0.00    -0.079 HD
BRANCH  27  29
ATOM     29  C   UNL     1       2.399   2.627  -2.128  0.00  0.00    -0.039 C 
BRANCH  29  30
ATOM     30  C   UNL     1       3.127   1.726  -3.092  0.00  0.00    -0.046 A 
ATOM     31  C   UNL     1       3.845   2.264  -4.149  0.00  0.00    +0.005 A 
ATOM     32  C   UNL     1       4.503   1.398  -5.008  0.00  0.00    +0.020 A 
ATOM     33  C   UNL     1       4.415   0.036  -4.790  0.00  0.00    +0.111 A 
ATOM     34  N   UNL     1       3.719  -0.441  -3.776  0.00  0.00    -0.263 NA
ATOM     35  C   UNL     1       3.084   0.354  -2.936  0.00  0.00    +0.112 A 
ENDBRANCH  29  30
ENDBRANCH  27  29
BRANCH  27  36
ATOM     36  C   UNL     1       4.298   4.013  -1.549  0.00  0.00    -0.001 C 
BRANCH  36  37
ATOM     37  C   UNL     1       3.579   5.202  -2.132  0.00  0.00    +0.089 A 
ATOM     38  C   UNL     1       3.288   6.342  -1.481  0.00  0.00    +0.042 A 
ATOM     39  C   UNL     1       2.614   7.178  -2.401  0.00  0.00    +0.041 A 
ATOM     40  C   UNL     1       2.534   6.499  -3.559  0.00  0.00    +0.195 A 
ATOM     41  O   UNL     1       3.125   5.304  -3.392  0.00  0.00    -0.470 OA
ENDBRANCH  36  37
ENDBRANCH  27  36
ENDBRANCH   1  27
TORSDOF 8
