REMARK  Name = ZINC35767087
REMARK  7 active torsions:
REMARK  status: ('A' for Active; 'I' for Inactive)
REMARK    1  A    between atoms: C_1  and  C_2
REMARK    2  A    between atoms: C_2  and  C_4
REMARK    3  A    between atoms: C_2  and  S_16
REMARK    4  A    between atoms: N_6  and  C_7
REMARK    5  A    between atoms: C_10  and  C_13
REMARK    6  A    between atoms: C_13  and  C_15
REMARK    7  A    between atoms: S_16  and  C_17
REMARK                            x       y       z     vdW  Elec       q    Type
REMARK                         _______ _______ _______ _____ _____    ______ ____
ROOT
ATOM      1  S   UNL     1       0.553  -1.472   1.290  0.00  0.00    -0.073 S 
ENDROOT
BRANCH   1   2
ATOM      2  C   UNL     1      -0.234  -0.505   2.535  0.00  0.00    +0.192 A 
ATOM      3  N   UNL     1      -1.350   0.153   2.241  0.00  0.00    -0.207 NA
ATOM      4  C   UNL     1      -1.984   0.894   3.134  0.00  0.00    +0.129 A 
ATOM      5  C   UNL     1      -1.460   0.996   4.453  0.00  0.00    +0.051 A 
ATOM      6  C   UNL     1      -1.987   1.752   5.591  0.00  0.00    -0.025 A 
ATOM      7  C   UNL     1      -1.295   1.681   6.746  0.00  0.00    -0.004 A 
ATOM      8  S   UNL     1       0.081   0.619   6.396  0.00  0.00    -0.073 S 
ATOM      9  C   UNL     1      -0.276   0.272   4.693  0.00  0.00    +0.115 A 
ATOM     10  N   UNL     1       0.296  -0.451   3.750  0.00  0.00    -0.214 NA
ATOM     11  C   UNL     1      -1.621   2.356   8.043  0.00  0.00    +0.043 C 
ATOM     12  C   UNL     1      -2.664   3.449   7.771  0.00  0.00    +0.005 C 
ATOM     13  C   UNL     1      -3.782   2.857   6.908  0.00  0.00    +0.005 C 
ATOM     14  C   UNL     1      -3.260   2.589   5.496  0.00  0.00    +0.037 C 
ATOM     15  N   UNL     1      -3.144   1.565   2.788  0.00  0.00    -0.343 N 
ATOM     16  H   UNL     1      -3.630   1.312   1.988  0.00  0.00    +0.144 HD
ATOM     17  H   UNL     1      -3.471   2.287   3.347  0.00  0.00    +0.144 HD
ENDBRANCH   1   2
BRANCH   1  19
ATOM     18  C   UNL     1      -0.455   0.213  -0.614  0.00  0.00    +0.029 C 
ATOM     19  C   UNL     1      -0.501  -1.250  -0.170  0.00  0.00    +0.137 C 
BRANCH  19  20
ATOM     20  C   UNL     1      -0.004  -2.131  -1.287  0.00  0.00    +0.230 C 
ATOM     21  O   UNL     1       1.133  -2.552  -1.267  0.00  0.00    -0.274 OA
ATOM     22  N   UNL     1      -0.824  -2.450  -2.308  0.00  0.00    -0.285 N 
ATOM     23  H   UNL     1      -1.753  -2.172  -2.290  0.00  0.00    +0.155 HD
BRANCH  22  24
ATOM     24  C   UNL     1      -0.336  -3.179  -3.390  0.00  0.00    +0.033 A 
ATOM     25  C   UNL     1      -0.800  -2.910  -4.675  0.00  0.00    +0.024 A 
ATOM     26  C   UNL     1      -0.322  -3.625  -5.742  0.00  0.00    +0.013 A 
ATOM     27  C   UNL     1       0.633  -4.628  -5.540  0.00  0.00    +0.017 A 
ATOM     28  C   UNL     1       1.097  -4.896  -4.245  0.00  0.00    +0.013 A 
ATOM     29  C   UNL     1       0.618  -4.172  -3.184  0.00  0.00    +0.024 A 
BRANCH  27  30
ATOM     30  C   UNL     1       1.148  -5.397  -6.680  0.00  0.00    +0.160 C 
ATOM     31  O   UNL     1       0.744  -5.163  -7.800  0.00  0.00    -0.292 OA
ATOM     32  C   UNL     1       2.176  -6.476  -6.459  0.00  0.00    +0.091 C 
ENDBRANCH  27  30
ENDBRANCH  22  24
ENDBRANCH  19  20
ENDBRANCH   1  19
TORSDOF 5
