REMARK  Name = ZINC17836911
REMARK  9 active torsions:
REMARK  status: ('A' for Active; 'I' for Inactive)
REMARK    1  A    between atoms: C_1  and  N_2
REMARK    2  A    between atoms: C_4  and  C_25
REMARK    3  A    between atoms: C_6  and  C_7
REMARK    4  A    between atoms: N_9  and  N_10
REMARK    5  A    between atoms: C_11  and  C_12
REMARK    6  A    between atoms: C_12  and  O_13
REMARK    7  A    between atoms: O_13  and  C_14
REMARK    8  A    between atoms: C_18  and  C_20
REMARK    9  A    between atoms: C_25  and  C_27
REMARK                            x       y       z     vdW  Elec       q    Type
REMARK                         _______ _______ _______ _____ _____    ______ ____
ROOT
ATOM      1  C   UNL     1       0.319  -0.354   2.498  0.00  0.00    +0.278 C 
ATOM      2  O   UNL     1       0.472  -1.125   3.428  0.00  0.00    -0.267 OA
ATOM      3  N   UNL     1       0.177   0.965   2.732  0.00  0.00    -0.223 N 
ATOM      4  H   UNL     1       0.128   1.587   1.990  0.00  0.00    +0.175 HD
ENDROOT
BRANCH   1  10
ATOM      5  C   UNL     1       0.406  -3.326   1.671  0.00  0.00    +0.149 C 
ATOM      6  N   UNL     1       0.327  -2.189   0.750  0.00  0.00    -0.345 N 
ATOM      7  C   UNL     1       0.275  -2.276  -0.589  0.00  0.00    +0.097 A 
ATOM      8  C   UNL     1       0.207  -0.995  -1.106  0.00  0.00    +0.040 A 
ATOM      9  C   UNL     1       0.220  -0.103  -0.009  0.00  0.00    +0.044 A 
ATOM     10  C   UNL     1       0.288  -0.863   1.121  0.00  0.00    +0.106 A 
BRANCH   8  11
ATOM     11  C   UNL     1       0.135  -0.628  -2.531  0.00  0.00    +0.196 C 
ATOM     12  O   UNL     1       0.048  -1.496  -3.379  0.00  0.00    -0.287 OA
BRANCH  11  13
ATOM     13  C   UNL     1       0.169   0.793  -2.931  0.00  0.00    +0.041 A 
ATOM     14  C   UNL     1       1.332   1.341  -3.478  0.00  0.00    +0.014 A 
ATOM     15  C   UNL     1       1.357   2.668  -3.849  0.00  0.00    +0.021 A 
ATOM     16  C   UNL     1       0.232   3.460  -3.680  0.00  0.00    +0.042 A 
ATOM     17  C   UNL     1      -0.924   2.925  -3.139  0.00  0.00    +0.040 A 
ATOM     18  C   UNL     1      -0.965   1.595  -2.769  0.00  0.00    +0.053 A 
ATOM     19 CL   UNL     1      -2.418   0.923  -2.097  0.00  0.00    -0.083 Cl
ATOM     20 CL   UNL     1       0.273   5.130  -4.151  0.00  0.00    -0.083 Cl
ENDBRANCH  11  13
ENDBRANCH   8  11
ENDBRANCH   1  10
BRANCH   3  21
ATOM     21  N   UNL     1       0.101   1.439   4.049  0.00  0.00    -0.292 N 
ATOM     22  C   UNL     1      -0.035   2.706   4.274  0.00  0.00    +0.121 C 
ATOM     23  N   UNL     1      -0.105   3.592   3.215  0.00  0.00    -0.344 N 
ATOM     24  H   UNL     1      -0.053   3.265   2.304  0.00  0.00    +0.143 HD
ATOM     25  H   UNL     1      -0.207   4.542   3.384  0.00  0.00    +0.143 HD
ATOM     26  H   UNL     1       0.150   0.817   4.792  0.00  0.00    +0.186 HD
BRANCH  22  27
ATOM     27  C   UNL     1      -0.117   3.215   5.690  0.00  0.00    +0.299 C 
BRANCH  27  28
ATOM     28  O   UNL     1      -0.264   4.637   5.677  0.00  0.00    -0.485 OA
BRANCH  28  29
ATOM     29  C   UNL     1      -0.353   5.258   6.882  0.00  0.00    +0.122 A 
ATOM     30  C   UNL     1      -0.294   4.516   8.053  0.00  0.00    +0.046 A 
ATOM     31  C   UNL     1      -0.385   5.151   9.277  0.00  0.00    +0.004 A 
ATOM     32  C   UNL     1      -0.534   6.525   9.335  0.00  0.00    +0.012 A 
ATOM     33  C   UNL     1      -0.593   7.266   8.170  0.00  0.00    +0.058 A 
ATOM     34  C   UNL     1      -0.497   6.637   6.944  0.00  0.00    +0.058 A 
BRANCH  33  35
ATOM     35  C   UNL     1      -0.756   8.763   8.237  0.00  0.00    +0.418 C 
ATOM     36  F   UNL     1      -0.823   9.165   9.576  0.00  0.00    -0.166 F 
ATOM     37  F   UNL     1       0.338   9.379   7.620  0.00  0.00    -0.166 F 
ATOM     38  F   UNL     1      -1.933   9.134   7.579  0.00  0.00    -0.166 F 
ENDBRANCH  33  35
ENDBRANCH  28  29
ENDBRANCH  27  28
ENDBRANCH  22  27
ENDBRANCH   3  21
TORSDOF 8
