REMARK  Name = ZINC39657753
REMARK  8 active torsions:
REMARK  status: ('A' for Active; 'I' for Inactive)
REMARK    1  A    between atoms: C_4  and  S_30
REMARK    2  A    between atoms: C_5  and  C_7
REMARK    3  A    between atoms: C_7  and  N_8
REMARK    4  A    between atoms: C_9  and  C_11
REMARK    5  A    between atoms: C_22  and  C_24
REMARK    6  A    between atoms: S_30  and  C_31
REMARK    7  A    between atoms: C_36  and  C_37
REMARK    8  A    between atoms: C_37  and  O_38
REMARK                            x       y       z     vdW  Elec       q    Type
REMARK                         _______ _______ _______ _____ _____    ______ ____
ROOT
ATOM      1  N   UNL     1       0.510  -3.589   1.355  0.00  0.00    -0.311 N 
ATOM      2  C   UNL     1       1.737  -3.638   1.911  0.00  0.00    +0.218 C 
ATOM      3  O   UNL     1       2.723  -3.500   1.218  0.00  0.00    -0.275 OA
ATOM      4  H   UNL     1      -0.278  -3.699   1.910  0.00  0.00    +0.149 HD
ENDROOT
BRANCH   2   5
ATOM      5  C   UNL     1       1.884  -3.864   3.394  0.00  0.00    +0.100 C 
ATOM      6  C   UNL     1       3.159  -3.167   3.921  0.00  0.00    +0.121 C 
ATOM      7  N   UNL     1       3.697  -4.094   4.944  0.00  0.00    -0.296 N 
ATOM      8  C   UNL     1       3.482  -5.443   4.368  0.00  0.00    +0.115 C 
ATOM      9  C   UNL     1       2.100  -5.358   3.689  0.00  0.00    -0.004 C 
ATOM     10  C   UNL     1       1.016  -5.872   4.631  0.00  0.00    -0.010 C 
ATOM     11  C   UNL     1       1.220  -7.372   4.864  0.00  0.00    -0.082 C 
ATOM     12  N   UNL     1       1.158  -8.082   3.580  0.00  0.00    +0.379 N 
ATOM     13  C   UNL     1       2.260  -7.647   2.714  0.00  0.00    -0.082 C 
ATOM     14  C   UNL     1       2.101  -6.159   2.390  0.00  0.00    -0.010 C 
ATOM     15  C   UNL     1       4.256  -3.781   6.129  0.00  0.00    +0.247 C 
ATOM     16  O   UNL     1       4.273  -2.627   6.507  0.00  0.00    -0.270 OA
ATOM     17  H   UNL     1       1.231  -9.075   3.743  0.00  0.00    -0.086 HD
ATOM     18  H   UNL     1       0.278  -7.881   3.129  0.00  0.00    -0.086 HD
BRANCH  15  19
ATOM     19  C   UNL     1       4.849  -4.846   6.972  0.00  0.00    +0.040 A 
ATOM     20  C   UNL     1       5.281  -6.051   6.410  0.00  0.00    +0.033 A 
ATOM     21  C   UNL     1       5.829  -7.016   7.233  0.00  0.00    +0.111 A 
ATOM     22  N   UNL     1       5.946  -6.812   8.530  0.00  0.00    -0.263 NA
ATOM     23  C   UNL     1       5.552  -5.691   9.100  0.00  0.00    +0.111 A 
ATOM     24  C   UNL     1       4.998  -4.670   8.351  0.00  0.00    +0.033 A 
ENDBRANCH  15  19
ENDBRANCH   2   5
BRANCH   1  25
ATOM     25  C   UNL     1       0.367  -3.369  -0.086  0.00  0.00    +0.140 C 
BRANCH  25  30
ATOM     26  C   UNL     1      -3.022  -4.472  -1.332  0.00  0.00    +0.000 A 
ATOM     27  C   UNL     1      -3.783  -3.336  -1.120  0.00  0.00    +0.001 A 
ATOM     28  C   UNL     1      -3.204  -2.208  -0.573  0.00  0.00    +0.015 A 
ATOM     29  C   UNL     1      -1.856  -2.214  -0.236  0.00  0.00    +0.017 A 
ATOM     30  C   UNL     1      -1.095  -3.357  -0.450  0.00  0.00    -0.017 A 
ATOM     31  C   UNL     1      -1.680  -4.482  -0.997  0.00  0.00    +0.006 A 
BRANCH  29  32
ATOM     32  S   UNL     1      -1.113  -0.777   0.462  0.00  0.00    -0.089 S 
BRANCH  32  33
ATOM     33  C   UNL     1      -2.387   0.438   0.391  0.00  0.00    +0.018 A 
ATOM     34  C   UNL     1      -3.073   0.796   1.546  0.00  0.00    +0.015 A 
ATOM     35  C   UNL     1      -4.070   1.749   1.487  0.00  0.00    +0.001 A 
ATOM     36  C   UNL     1      -4.387   2.347   0.280  0.00  0.00    +0.000 A 
ATOM     37  C   UNL     1      -3.707   1.993  -0.871  0.00  0.00    +0.007 A 
ATOM     38  C   UNL     1      -2.704   1.045  -0.818  0.00  0.00    -0.008 A 
BRANCH  38  39
ATOM     39  C   UNL     1      -1.960   0.664  -2.072  0.00  0.00    +0.192 C 
BRANCH  39  40
ATOM     40  O   UNL     1      -2.465   1.420  -3.174  0.00  0.00    -0.390 OA
ATOM     41  H   UNL     1      -2.031   1.226  -4.016  0.00  0.00    +0.210 HD
ENDBRANCH  39  40
ENDBRANCH  38  39
ENDBRANCH  32  33
ENDBRANCH  29  32
ENDBRANCH  25  30
ENDBRANCH   1  25
TORSDOF 8
