REMARK  Name = ZINC65134132
REMARK  9 active torsions:
REMARK  status: ('A' for Active; 'I' for Inactive)
REMARK    1  A    between atoms: C_1  and  C_2
REMARK    2  A    between atoms: C_2  and  C_3
REMARK    3  A    between atoms: C_2  and  C_4
REMARK    4  A    between atoms: C_4  and  C_5
REMARK    5  A    between atoms: C_5  and  N_6
REMARK    6  A    between atoms: N_9  and  N_10
REMARK    7  A    between atoms: C_11  and  C_13
REMARK    8  A    between atoms: C_16  and  S_18
REMARK    9  A    between atoms: S_18  and  N_21
REMARK                            x       y       z     vdW  Elec       q    Type
REMARK                         _______ _______ _______ _____ _____    ______ ____
ROOT
ATOM      1  N   UNL     1      -6.056  -1.599  -1.214  0.00  0.00    -0.227 N 
ATOM      2  C   UNL     1      -7.321  -2.066  -1.205  0.00  0.00    +0.296 C 
ATOM      3  O   UNL     1      -8.055  -1.853  -2.152  0.00  0.00    -0.265 OA
ATOM      4  H   UNL     1      -5.471  -1.768  -0.460  0.00  0.00    +0.173 HD
ENDROOT
BRANCH   1   8
ATOM      5  N   UNL     1      -3.510  -0.638  -1.275  0.00  0.00    -0.298 N 
ATOM      6  C   UNL     1      -4.323  -0.403  -2.324  0.00  0.00    +0.316 C 
ATOM      7  O   UNL     1      -3.915   0.230  -3.279  0.00  0.00    -0.251 OA
ATOM      8  N   UNL     1      -5.587  -0.870  -2.315  0.00  0.00    -0.218 N 
ATOM      9  H   UNL     1      -3.834  -1.143  -0.513  0.00  0.00    +0.150 HD
ATOM     10  H   UNL     1      -6.172  -0.700  -3.070  0.00  0.00    +0.174 HD
BRANCH   5  11
ATOM     11  C   UNL     1      -2.135  -0.131  -1.286  0.00  0.00    +0.106 C 
BRANCH  11  12
ATOM     12  C   UNL     1      -1.433  -0.534   0.013  0.00  0.00    +0.022 C 
BRANCH  12  14
ATOM     13  C   UNL     1      -0.019   1.526   0.010  0.00  0.00    +0.007 C 
ATOM     14  C   UNL     1       0.002  -0.004   0.002  0.00  0.00    -0.016 C 
ATOM     15  C   UNL     1       0.742  -0.511   1.242  0.00  0.00    +0.007 C 
ENDBRANCH  12  14
ENDBRANCH  11  12
ENDBRANCH   5  11
ENDBRANCH   1   8
BRANCH   2  16
ATOM     16  C   UNL     1      -7.812  -2.829  -0.053  0.00  0.00    +0.193 A 
ATOM     17  C   UNL     1      -9.062  -3.361   0.083  0.00  0.00    +0.057 A 
ATOM     18  C   UNL     1      -9.094  -4.003   1.330  0.00  0.00    +0.072 A 
ATOM     19  C   UNL     1      -7.877  -3.837   1.894  0.00  0.00    +0.259 A 
ATOM     20  O   UNL     1      -7.106  -3.134   1.055  0.00  0.00    -0.432 OA
BRANCH  19  21
ATOM     21  S   UNL     1      -7.385  -4.452   3.471  0.00  0.00    +0.094 S 
ATOM     22  O   UNL     1      -6.314  -3.627   3.911  0.00  0.00    -0.150 OA
ATOM     23  O   UNL     1      -8.574  -4.625   4.229  0.00  0.00    -0.150 OA
BRANCH  21  24
ATOM     24  N   UNL     1      -6.751  -5.963   3.231  0.00  0.00    -0.174 NA
ATOM     25  C   UNL     1      -7.613  -7.152   3.278  0.00  0.00    +0.109 C 
ATOM     26  C   UNL     1      -7.419  -7.953   1.987  0.00  0.00    +0.017 C 
ATOM     27  C   UNL     1      -5.931  -8.261   1.801  0.00  0.00    +0.003 C 
ATOM     28  C   UNL     1      -5.148  -6.952   1.680  0.00  0.00    +0.017 C 
ATOM     29  C   UNL     1      -5.317  -6.139   2.962  0.00  0.00    +0.109 C 
ENDBRANCH  21  24
ENDBRANCH  19  21
ENDBRANCH   2  16
TORSDOF 7
