REMARK  Name = ZINC38639746
REMARK  9 active torsions:
REMARK  status: ('A' for Active; 'I' for Inactive)
REMARK    1  A    between atoms: C_1  and  C_2
REMARK    2  A    between atoms: C_6  and  N_12
REMARK    3  A    between atoms: C_9  and  C_11
REMARK    4  A    between atoms: C_13  and  C_15
REMARK    5  A    between atoms: C_15  and  S_16
REMARK    6  A    between atoms: S_16  and  C_17
REMARK    7  A    between atoms: N_23  and  C_24
REMARK    8  A    between atoms: C_27  and  O_30
REMARK    9  A    between atoms: O_30  and  C_31
REMARK                            x       y       z     vdW  Elec       q    Type
REMARK                         _______ _______ _______ _____ _____    ______ ____
ROOT
ATOM      1  S   UNL     1      -6.580  -6.347  -1.173  0.00  0.00    -0.117 S 
ENDROOT
BRANCH   1   2
ATOM      2  C   UNL     1      -6.440  -7.497  -2.570  0.00  0.00    +0.212 C 
ATOM      3  N   UNL     1      -5.079  -8.072  -2.659  0.00  0.00    -0.244 N 
ATOM      4  N   UNL     1      -4.389  -7.772  -3.812  0.00  0.00    -0.163 NA
ATOM      5  C   UNL     1      -4.879  -7.040  -4.765  0.00  0.00    +0.178 C 
ATOM      6  S   UNL     1      -6.510  -6.607  -4.179  0.00  0.00    -0.054 S 
ATOM      7  N   UNL     1      -4.275  -6.678  -5.963  0.00  0.00    -0.293 N 
ATOM      8  H   UNL     1      -4.699  -8.621  -1.954  0.00  0.00    +0.170 HD
ATOM      9  H   UNL     1      -4.718  -6.057  -6.561  0.00  0.00    +0.154 HD
BRANCH   7  10
ATOM     10  C   UNL     1      -3.027  -7.211  -6.306  0.00  0.00    +0.033 A 
ATOM     11  C   UNL     1      -2.649  -8.459  -5.830  0.00  0.00    +0.027 A 
ATOM     12  C   UNL     1      -1.417  -8.984  -6.170  0.00  0.00    +0.048 A 
ATOM     13  C   UNL     1      -0.558  -8.264  -6.986  0.00  0.00    +0.130 A 
ATOM     14  C   UNL     1      -0.934  -7.016  -7.462  0.00  0.00    +0.048 A 
ATOM     15  C   UNL     1      -2.168  -6.493  -7.128  0.00  0.00    +0.027 A 
BRANCH  13  16
ATOM     16  O   UNL     1       0.655  -8.781  -7.321  0.00  0.00    -0.406 OA
BRANCH  16  17
ATOM     17  C   UNL     1       1.489  -7.986  -8.165  0.00  0.00    +0.575 C 
ATOM     18  F   UNL     1       1.761  -6.766  -7.536  0.00  0.00    -0.133 F 
ATOM     19  F   UNL     1       2.689  -8.663  -8.407  0.00  0.00    -0.133 F 
ATOM     20  F   UNL     1       0.834  -7.749  -9.378  0.00  0.00    -0.133 F 
ENDBRANCH  16  17
ENDBRANCH  13  16
ENDBRANCH   7  10
ENDBRANCH   1   2
BRANCH   1  21
ATOM     21  C   UNL     1      -5.262  -5.136  -1.467  0.00  0.00    +0.167 C 
BRANCH  21  23
ATOM     22  N   UNL     1      -4.370  -3.105  -0.373  0.00  0.00    -0.285 N 
ATOM     23  C   UNL     1      -5.268  -4.110  -0.364  0.00  0.00    +0.225 C 
ATOM     24  O   UNL     1      -6.082  -4.187   0.532  0.00  0.00    -0.275 OA
ATOM     25  H   UNL     1      -3.719  -3.043  -1.090  0.00  0.00    +0.151 HD
BRANCH  22  30
ATOM     26  C   UNL     1      -1.672   1.745   0.623  0.00  0.00    +0.030 C 
ATOM     27  C   UNL     1      -1.448   0.233   0.569  0.00  0.00    +0.099 C 
ATOM     28  C   UNL     1      -2.772  -0.470   0.442  0.00  0.00    -0.011 C 
ATOM     29  C   UNL     1      -2.978  -1.672   1.007  0.00  0.00    +0.065 C 
ATOM     30  C   UNL     1      -4.375  -2.107   0.699  0.00  0.00    +0.243 C 
ATOM     31  O   UNL     1      -5.071  -0.916   0.271  0.00  0.00    -0.347 OA
ATOM     32  C   UNL     1      -4.033  -0.061  -0.256  0.00  0.00    +0.146 C 
ATOM     33  C   UNL     1      -3.892  -0.271  -1.765  0.00  0.00    +0.043 C 
ATOM     34  C   UNL     1      -1.905  -2.315   1.781  0.00  0.00    +0.258 C 
ATOM     35  O   UNL     1      -1.995  -3.459   2.184  0.00  0.00    -0.269 OA
ATOM     36  N   UNL     1      -0.808  -1.553   2.017  0.00  0.00    -0.247 N 
ATOM     37  N   UNL     1      -0.789  -0.211   1.804  0.00  0.00    -0.233 NA
ATOM     38  H   UNL     1      -0.004  -1.982   2.349  0.00  0.00    +0.169 HD
ATOM     39  H   UNL     1       0.150   0.153   1.864  0.00  0.00    +0.145 HD
ENDBRANCH  22  30
ENDBRANCH  21  23
ENDBRANCH   1  21
TORSDOF 7
