REMARK  Name = ZINC59041448
REMARK  10 active torsions:
REMARK  status: ('A' for Active; 'I' for Inactive)
REMARK    1  A    between atoms: C_1  and  C_2
REMARK    2  A    between atoms: C_2  and  O_3
REMARK    3  A    between atoms: O_3  and  C_4
REMARK    4  A    between atoms: C_4  and  C_6
REMARK    5  A    between atoms: C_10  and  N_15
REMARK    6  A    between atoms: N_18  and  C_19
REMARK    7  A    between atoms: C_19  and  C_21
REMARK    8  A    between atoms: C_19  and  C_22
REMARK    9  A    between atoms: C_25  and  S_28
REMARK   10  A    between atoms: S_28  and  N_31
REMARK                            x       y       z     vdW  Elec       q    Type
REMARK                         _______ _______ _______ _____ _____    ______ ____
ROOT
ATOM      1  N   UNL     1      -7.033  -6.844   0.043  0.00  0.00    -0.269 N 
ATOM      2  C   UNL     1      -8.364  -7.022   0.154  0.00  0.00    +0.304 C 
ATOM      3  O   UNL     1      -9.108  -6.060   0.161  0.00  0.00    -0.252 OA
ATOM      4  N   UNL     1      -8.871  -8.267   0.258  0.00  0.00    -0.293 N 
ATOM      5  H   UNL     1      -6.445  -7.612  -0.028  0.00  0.00    +0.156 HD
ATOM      6  H   UNL     1      -8.278  -9.034   0.253  0.00  0.00    +0.151 HD
ENDROOT
BRANCH   1  11
ATOM      7  C   UNL     1      -3.115  -2.295   1.082  0.00  0.00    +0.097 A 
ATOM      8  C   UNL     1      -3.494  -3.598   1.179  0.00  0.00    +0.031 A 
ATOM      9  C   UNL     1      -4.717  -4.015   0.626  0.00  0.00    -0.008 A 
ATOM     10  C   UNL     1      -5.281  -5.318   0.625  0.00  0.00    +0.032 A 
ATOM     11  C   UNL     1      -6.498  -5.549   0.031  0.00  0.00    +0.035 A 
ATOM     12  C   UNL     1      -7.212  -4.520  -0.584  0.00  0.00    +0.024 A 
ATOM     13  C   UNL     1      -6.694  -3.253  -0.599  0.00  0.00    +0.017 A 
ATOM     14  C   UNL     1      -5.474  -3.002  -0.009  0.00  0.00    +0.020 A 
ATOM     15  S   UNL     1      -4.474  -1.550   0.198  0.00  0.00    -0.082 S 
BRANCH   7  16
ATOM     16  C   UNL     1      -1.891  -1.658   1.585  0.00  0.00    +0.346 C 
ATOM     17  O   UNL     1      -1.058  -2.321   2.173  0.00  0.00    -0.244 OA
BRANCH  16  18
ATOM     18  O   UNL     1      -1.691  -0.338   1.395  0.00  0.00    -0.461 OA
BRANCH  18  20
ATOM     19  C   UNL     1      -0.430   1.713   1.603  0.00  0.00    +0.048 C 
ATOM     20  C   UNL     1      -0.479   0.215   1.911  0.00  0.00    +0.229 C 
ENDBRANCH  18  20
ENDBRANCH  16  18
ENDBRANCH   7  16
ENDBRANCH   1  11
BRANCH   4  21
ATOM     21  C   UNL     1     -10.319  -8.460   0.379  0.00  0.00    +0.102 C 
ATOM     22  C   UNL     1     -10.730  -8.329   1.847  0.00  0.00    +0.033 C 
BRANCH  21  23
ATOM     23  C   UNL     1     -10.686  -9.833  -0.124  0.00  0.00    -0.027 A 
ATOM     24  C   UNL     1      -9.878 -10.915   0.169  0.00  0.00    +0.007 A 
ATOM     25  C   UNL     1     -10.214 -12.174  -0.293  0.00  0.00    +0.029 A 
ATOM     26  C   UNL     1     -11.359 -12.350  -1.047  0.00  0.00    +0.105 A 
ATOM     27  C   UNL     1     -12.167 -11.268  -1.340  0.00  0.00    +0.029 A 
ATOM     28  C   UNL     1     -11.833 -10.010  -0.875  0.00  0.00    +0.007 A 
BRANCH  26  29
ATOM     29  S   UNL     1     -11.787 -13.954  -1.637  0.00  0.00    +0.056 S 
ATOM     30  O   UNL     1     -12.613 -13.761  -2.777  0.00  0.00    -0.153 OA
ATOM     31  O   UNL     1     -10.581 -14.704  -1.688  0.00  0.00    -0.153 OA
BRANCH  29  32
ATOM     32  N   UNL     1     -12.736 -14.664  -0.480  0.00  0.00    -0.204 NA
ATOM     33  H   UNL     1     -12.950 -14.182   0.335  0.00  0.00    +0.144 HD
ATOM     34  H   UNL     1     -13.079 -15.561  -0.617  0.00  0.00    +0.144 HD
ENDBRANCH  29  32
ENDBRANCH  26  29
ENDBRANCH  21  23
ENDBRANCH   4  21
TORSDOF 8
