REMARK  Name = ZINC27442008
REMARK  7 active torsions:
REMARK  status: ('A' for Active; 'I' for Inactive)
REMARK    1  A    between atoms: C_1  and  C_2
REMARK    2  A    between atoms: C_8  and  C_10
REMARK    3  A    between atoms: C_10  and  C_12
REMARK    4  A    between atoms: C_10  and  S_18
REMARK    5  A    between atoms: S_18  and  C_19
REMARK    6  A    between atoms: C_22  and  C_25
REMARK    7  A    between atoms: N_23  and  N_24
REMARK                            x       y       z     vdW  Elec       q    Type
REMARK                         _______ _______ _______ _____ _____    ______ ____
ROOT
ATOM      1  C   UNL     1       6.412   6.623  -0.035  0.00  0.00    +0.170 C 
ENDROOT
BRANCH   1   9
ATOM      2  C   UNL     1      10.303  12.409   0.235  0.00  0.00    +0.089 C 
ATOM      3  C   UNL     1      10.115  10.930   0.459  0.00  0.00    +0.136 A 
ATOM      4  C   UNL     1       9.002  10.208   0.197  0.00  0.00    +0.091 A 
ATOM      5  C   UNL     1       9.351   8.887   0.585  0.00  0.00    +0.168 A 
ATOM      6  N   UNL     1      10.580   8.950   1.026  0.00  0.00    -0.063 NA
ATOM      7  O   UNL     1      11.019  10.074   0.957  0.00  0.00    -0.358 OA
ATOM      8  N   UNL     1       8.543   7.753   0.516  0.00  0.00    -0.267 N 
ATOM      9  C   UNL     1       7.286   7.849   0.040  0.00  0.00    +0.236 C 
ATOM     10  O   UNL     1       6.857   8.922  -0.329  0.00  0.00    -0.274 OA
ATOM     11  H   UNL     1       8.931   6.779   0.850  0.00  0.00    +0.156 HD
ENDBRANCH   1   9
BRANCH   1  12
ATOM     12  C   UNL     1       6.774   5.822  -1.259  0.00  0.00    -0.025 A 
ATOM     13  C   UNL     1       6.656   6.388  -2.515  0.00  0.00    +0.005 A 
ATOM     14  C   UNL     1       6.993   5.654  -3.637  0.00  0.00    +0.000 A 
ATOM     15  C   UNL     1       7.439   4.353  -3.505  0.00  0.00    +0.000 A 
ATOM     16  C   UNL     1       7.552   3.785  -2.249  0.00  0.00    +0.000 A 
ATOM     17  C   UNL     1       7.219   4.520  -1.126  0.00  0.00    +0.005 A 
ENDBRANCH   1  12
BRANCH   1  18
ATOM     18  S   UNL     1       4.676   7.124  -0.134  0.00  0.00    -0.067 S 
BRANCH  18  19
ATOM     19  C   UNL     1       3.897   5.546  -0.057  0.00  0.00    +0.210 A 
ATOM     20  N   UNL     1       4.500   4.383   0.043  0.00  0.00    -0.121 NA
ATOM     21  N   UNL     1       3.632   3.436   0.074  0.00  0.00    -0.127 NA
ATOM     22  C   UNL     1       2.421   3.936  -0.005  0.00  0.00    +0.183 A 
ATOM     23  N   UNL     1       2.554   5.303  -0.097  0.00  0.00    -0.224 N 
BRANCH  22  24
ATOM     24  C   UNL     1       1.154   3.175  -0.002  0.00  0.00    +0.035 A 
ATOM     25  C   UNL     1       0.165   3.455  -0.946  0.00  0.00    +0.013 A 
ATOM     26  C   UNL     1      -1.016   2.741  -0.937  0.00  0.00    +0.001 A 
ATOM     27  C   UNL     1      -1.223   1.753   0.008  0.00  0.00    +0.001 A 
ATOM     28  C   UNL     1      -0.246   1.466   0.944  0.00  0.00    +0.016 A 
ATOM     29  C   UNL     1       0.940   2.172   0.947  0.00  0.00    +0.029 A 
ATOM     30 BR   UNL     1       2.273   1.783   2.231  0.00  0.00    -0.050 Br
ENDBRANCH  22  24
BRANCH  23  31
ATOM     31  N   UNL     1       1.551   6.224  -0.204  0.00  0.00    -0.295 N 
ATOM     32  H   UNL     1       0.501   5.895  -0.226  0.00  0.00    +0.163 HD
ATOM     33  H   UNL     1       1.792   7.295  -0.269  0.00  0.00    +0.163 HD
ENDBRANCH  23  31
ENDBRANCH  18  19
ENDBRANCH   1  18
TORSDOF 6
