REMARK  Name = ZINC16507887
REMARK  7 active torsions:
REMARK  status: ('A' for Active; 'I' for Inactive)
REMARK    1  A    between atoms: C_3  and  C_22
REMARK    2  A    between atoms: C_6  and  C_7
REMARK    3  A    between atoms: C_7  and  N_8
REMARK    4  A    between atoms: C_9  and  C_11
REMARK    5  A    between atoms: C_13  and  S_18
REMARK    6  A    between atoms: S_18  and  N_21
REMARK    7  A    between atoms: C_22  and  N_52
REMARK                            x       y       z     vdW  Elec       q    Type
REMARK                         _______ _______ _______ _____ _____    ______ ____
ROOT
ATOM      1  N   UNL     1      -0.018   1.461   0.010  0.00  0.00    -0.307 N 
ATOM      2  C   UNL     1       1.140   2.151   0.003  0.00  0.00    +0.245 C 
ATOM      3  O   UNL     1       2.201   1.557  -0.011  0.00  0.00    -0.270 OA
ATOM      4  H   UNL     1      -0.864   1.934   0.017  0.00  0.00    +0.149 HD
ENDROOT
BRANCH   2   5
ATOM      5  C   UNL     1       1.120   3.628   0.011  0.00  0.00    +0.052 A 
ATOM      6  C   UNL     1      -0.097   4.313   0.020  0.00  0.00    +0.042 A 
ATOM      7  C   UNL     1      -0.108   5.692   0.033  0.00  0.00    +0.106 A 
ATOM      8  C   UNL     1       1.082   6.398   0.025  0.00  0.00    +0.029 A 
ATOM      9  C   UNL     1       2.291   5.727   0.011  0.00  0.00    +0.018 A 
ATOM     10  C   UNL     1       2.318   4.346   0.003  0.00  0.00    +0.030 A 
ATOM     11 BR   UNL     1       3.972   3.430  -0.016  0.00  0.00    -0.050 Br
BRANCH   7  12
ATOM     12  S   UNL     1      -1.643   6.558   0.052  0.00  0.00    +0.056 S 
ATOM     13  O   UNL     1      -2.603   5.670   0.607  0.00  0.00    -0.153 OA
ATOM     14  O   UNL     1      -1.379   7.839   0.607  0.00  0.00    -0.153 OA
BRANCH  12  15
ATOM     15  N   UNL     1      -2.084   6.807  -1.524  0.00  0.00    -0.204 NA
ATOM     16  H   UNL     1      -3.023   6.854  -1.764  0.00  0.00    +0.144 HD
ATOM     17  H   UNL     1      -1.404   6.905  -2.209  0.00  0.00    +0.144 HD
ENDBRANCH  12  15
ENDBRANCH   7  12
ENDBRANCH   2   5
BRANCH   1  18
ATOM     18  C   UNL     1       0.002  -0.004   0.002  0.00  0.00    +0.139 C 
BRANCH  18  24
ATOM     19  C   UNL     1      -2.047  -0.777   1.215  0.00  0.00    +0.005 A 
ATOM     20  C   UNL     1      -3.345  -1.251   1.224  0.00  0.00    +0.002 A 
ATOM     21  C   UNL     1      -4.005  -1.483   0.032  0.00  0.00    -0.064 A 
ATOM     22  C   UNL     1      -3.369  -1.237  -1.170  0.00  0.00    +0.002 A 
ATOM     23  C   UNL     1      -2.072  -0.758  -1.179  0.00  0.00    +0.005 A 
ATOM     24  C   UNL     1      -1.412  -0.526   0.013  0.00  0.00    -0.030 A 
BRANCH  21  25
ATOM     25  C   UNL     1      -5.420  -2.004   0.043  0.00  0.00    -0.043 C 
BRANCH  25  31
ATOM     26  C   UNL     1      -4.844  -3.984  -1.225  0.00  0.00    -0.078 C 
ATOM     27  C   UNL     1      -4.705  -5.506  -1.142  0.00  0.00    -0.019 C 
ATOM     28  C   UNL     1      -6.080  -6.126  -0.881  0.00  0.00    -0.004 C 
ATOM     29  C   UNL     1      -6.659  -5.540   0.410  0.00  0.00    -0.019 C 
ATOM     30  C   UNL     1      -6.741  -4.018   0.282  0.00  0.00    -0.078 C 
ATOM     31  N   UNL     1      -5.382  -3.481   0.056  0.00  0.00    +0.382 N 
ATOM     32  H   UNL     1      -4.770  -3.792   0.820  0.00  0.00    -0.081 HD
ENDBRANCH  25  31
ENDBRANCH  21  25
ENDBRANCH  18  24
ENDBRANCH   1  18
TORSDOF 7
