REMARK  Name = ZINC20527696
REMARK  14 active torsions:
REMARK  status: ('A' for Active; 'I' for Inactive)
REMARK    1  A    between atoms: C_1  and  C_2
REMARK    2  A    between atoms: C_2  and  N_3
REMARK    3  A    between atoms: N_3  and  C_4
REMARK    4  A    between atoms: N_3  and  C_6
REMARK    5  A    between atoms: C_4  and  C_5
REMARK    6  A    between atoms: C_9  and  C_12
REMARK    7  A    between atoms: N_13  and  N_14
REMARK    8  A    between atoms: C_18  and  S_21
REMARK    9  A    between atoms: N_19  and  N_20
REMARK   10  A    between atoms: S_21  and  C_22
REMARK   11  A    between atoms: C_22  and  C_23
REMARK   12  A    between atoms: N_25  and  C_26
REMARK   13  A    between atoms: C_29  and  C_33
REMARK   14  A    between atoms: C_30  and  C_32
REMARK                            x       y       z     vdW  Elec       q    Type
REMARK                         _______ _______ _______ _____ _____    ______ ____
ROOT
ATOM      1  N   UNL     1       0.060   0.011  -0.531  0.00  0.00    -0.204 N 
ATOM      2  C   UNL     1       0.034   1.394  -0.426  0.00  0.00    +0.254 A 
ATOM      3  N   UNL     1      -1.033   2.131  -0.230  0.00  0.00    -0.109 NA
ATOM      4  N   UNL     1      -0.629   3.472  -0.184  0.00  0.00    -0.119 NA
ATOM      5  C   UNL     1       0.670   3.511  -0.361  0.00  0.00    +0.210 A 
ATOM      6  N   UNL     1       1.113   2.228  -0.515  0.00  0.00    -0.211 N 
ATOM      7  H   UNL     1       1.015  -0.509  -0.702  0.00  0.00    +0.177 HD
ENDROOT
BRANCH   6   8
ATOM      8  N   UNL     1       2.408   1.846  -0.721  0.00  0.00    -0.294 N 
ATOM      9  H   UNL     1       3.204   2.604  -0.776  0.00  0.00    +0.163 HD
ATOM     10  H   UNL     1       2.656   0.780  -0.833  0.00  0.00    +0.163 HD
ENDBRANCH   6   8
BRANCH   1  12
ATOM     11  C   UNL     1      -1.102  -2.018  -0.519  0.00  0.00    +0.138 C 
ATOM     12  N   UNL     1      -1.127  -0.723  -0.420  0.00  0.00    -0.188 NA
BRANCH  11  16
ATOM     13  C   UNL     1      -4.702  -4.243  -0.182  0.00  0.00    +0.030 A 
ATOM     14  C   UNL     1      -3.497  -4.902  -0.398  0.00  0.00    +0.024 A 
ATOM     15  C   UNL     1      -2.327  -4.184  -0.507  0.00  0.00    +0.011 A 
ATOM     16  C   UNL     1      -2.352  -2.790  -0.402  0.00  0.00    -0.005 A 
ATOM     17  C   UNL     1      -3.565  -2.132  -0.180  0.00  0.00    +0.011 A 
ATOM     18  C   UNL     1      -4.731  -2.857  -0.076  0.00  0.00    +0.024 A 
BRANCH  13  19
ATOM     19  N   UNL     1      -5.886  -4.975  -0.071  0.00  0.00    -0.330 N 
BRANCH  19  21
ATOM     20  C   UNL     1      -7.797  -3.937  -1.189  0.00  0.00    +0.024 C 
ATOM     21  C   UNL     1      -7.157  -4.282   0.156  0.00  0.00    +0.102 C 
ENDBRANCH  19  21
BRANCH  19  22
ATOM     22  C   UNL     1      -5.857  -6.435  -0.182  0.00  0.00    +0.102 C 
ATOM     23  C   UNL     1      -5.649  -7.048   1.205  0.00  0.00    +0.024 C 
ENDBRANCH  19  22
ENDBRANCH  13  19
ENDBRANCH  11  16
ENDBRANCH   1  12
BRANCH   5  24
ATOM     24  S   UNL     1       1.668   4.963  -0.393  0.00  0.00    -0.075 S 
BRANCH  24  25
ATOM     25  C   UNL     1       0.486   6.314  -0.131  0.00  0.00    +0.173 C 
BRANCH  25  26
ATOM     26  C   UNL     1       1.219   7.630  -0.136  0.00  0.00    +0.227 C 
ATOM     27  O   UNL     1       2.421   7.655  -0.300  0.00  0.00    -0.275 OA
ATOM     28  N   UNL     1       0.539   8.781   0.041  0.00  0.00    -0.285 N 
ATOM     29  H   UNL     1      -0.559   8.767   0.103  0.00  0.00    +0.155 HD
BRANCH  28  30
ATOM     30  C   UNL     1       1.231   9.993   0.147  0.00  0.00    +0.034 A 
ATOM     31  C   UNL     1       2.483  10.030   0.747  0.00  0.00    +0.023 A 
ATOM     32  C   UNL     1       3.166  11.226   0.844  0.00  0.00    +0.005 A 
ATOM     33  C   UNL     1       2.598  12.389   0.355  0.00  0.00    -0.047 A 
ATOM     34  C   UNL     1       1.349  12.357  -0.238  0.00  0.00    -0.046 A 
ATOM     35  C   UNL     1       0.664  11.162  -0.343  0.00  0.00    +0.027 A 
ATOM     36  C   UNL     1       0.735  13.626  -0.769  0.00  0.00    +0.044 C 
ATOM     37  C   UNL     1       3.343  13.694   0.468  0.00  0.00    +0.044 C 
ENDBRANCH  28  30
ENDBRANCH  25  26
ENDBRANCH  24  25
ENDBRANCH   5  24
TORSDOF 10
