REMARK  Name = ZINC38799252
REMARK  7 active torsions:
REMARK  status: ('A' for Active; 'I' for Inactive)
REMARK    1  A    between atoms: C_1  and  C_2
REMARK    2  A    between atoms: C_2  and  C_14
REMARK    3  A    between atoms: N_3  and  N_4
REMARK    4  A    between atoms: C_5  and  C_6
REMARK    5  A    between atoms: C_5  and  C_13
REMARK    6  A    between atoms: C_9  and  N_12
REMARK    7  A    between atoms: C_17  and  N_20
REMARK                            x       y       z     vdW  Elec       q    Type
REMARK                         _______ _______ _______ _____ _____    ______ ____
ROOT
ATOM      1  C   UNL     1      -0.018   1.503   0.010  0.00  0.00    +0.068 C 
ATOM      2  C   UNL     1       0.002  -0.004   0.002  0.00  0.00    +0.068 C 
ATOM      3  N   UNL     1       0.022  -0.664   1.131  0.00  0.00    -0.154 NA
ENDROOT
BRANCH   2   4
ATOM      4  C   UNL     1      -0.000  -0.732  -1.274  0.00  0.00    -0.002 A 
ATOM      5  C   UNL     1      -0.015  -0.027  -2.484  0.00  0.00    +0.011 A 
ATOM      6  C   UNL     1      -0.017  -0.713  -3.677  0.00  0.00    +0.023 A 
ATOM      7  C   UNL     1      -0.004  -2.105  -3.682  0.00  0.00    +0.025 A 
ATOM      8  C   UNL     1       0.011  -2.809  -2.482  0.00  0.00    +0.023 A 
ATOM      9  C   UNL     1       0.019  -2.132  -1.284  0.00  0.00    +0.011 A 
BRANCH   7  10
ATOM     10  N   UNL     1      -0.006  -2.794  -4.892  0.00  0.00    -0.358 N 
ATOM     11  H   UNL     1      -0.016  -2.305  -5.729  0.00  0.00    +0.142 HD
ATOM     12  H   UNL     1       0.003  -3.764  -4.897  0.00  0.00    +0.142 HD
ENDBRANCH   7  10
ENDBRANCH   2   4
BRANCH   3  13
ATOM     13  N   UNL     1       0.024  -0.025   2.252  0.00  0.00    -0.154 NA
ATOM     14  C   UNL     1       0.043  -0.685   3.381  0.00  0.00    +0.068 C 
ATOM     15  C   UNL     1       0.064  -2.192   3.373  0.00  0.00    +0.068 C 
BRANCH  14  16
ATOM     16  C   UNL     1       0.046   0.042   4.657  0.00  0.00    -0.002 A 
ATOM     17  C   UNL     1       0.072  -0.662   5.867  0.00  0.00    +0.011 A 
ATOM     18  C   UNL     1       0.075   0.023   7.060  0.00  0.00    +0.023 A 
ATOM     19  C   UNL     1       0.050   1.415   7.065  0.00  0.00    +0.025 A 
ATOM     20  C   UNL     1       0.023   2.120   5.865  0.00  0.00    +0.023 A 
ATOM     21  C   UNL     1       0.027   1.442   4.667  0.00  0.00    +0.011 A 
BRANCH  19  22
ATOM     22  N   UNL     1       0.052   2.105   8.275  0.00  0.00    -0.358 N 
ATOM     23  H   UNL     1       0.071   1.615   9.113  0.00  0.00    +0.142 HD
ATOM     24  H   UNL     1       0.035   3.075   8.281  0.00  0.00    +0.142 HD
ENDBRANCH  19  22
ENDBRANCH  14  16
ENDBRANCH   3  13
TORSDOF 5
