REMARK  Name = ZINC65127312
REMARK  10 active torsions:
REMARK  status: ('A' for Active; 'I' for Inactive)
REMARK    1  A    between atoms: C_1  and  C_2
REMARK    2  A    between atoms: C_2  and  C_3
REMARK    3  A    between atoms: C_3  and  C_4
REMARK    4  A    between atoms: C_4  and  C_5
REMARK    5  A    between atoms: C_5  and  N_6
REMARK    6  A    between atoms: N_9  and  N_10
REMARK    7  A    between atoms: C_11  and  C_13
REMARK    8  A    between atoms: N_22  and  C_25
REMARK    9  A    between atoms: C_25  and  C_26
REMARK   10  A    between atoms: C_25  and  C_27
REMARK                            x       y       z     vdW  Elec       q    Type
REMARK                         _______ _______ _______ _____ _____    ______ ____
ROOT
ATOM      1  N   UNL     1       1.536  -6.734   2.410  0.00  0.00    -0.229 N 
ATOM      2  C   UNL     1       1.554  -8.082   2.402  0.00  0.00    +0.260 C 
ATOM      3  O   UNL     1       2.098  -8.687   3.306  0.00  0.00    -0.269 OA
ATOM      4  H   UNL     1       1.103  -6.251   1.689  0.00  0.00    +0.173 HD
ENDROOT
BRANCH   2   5
ATOM      5  C   UNL     1       0.913  -8.825   1.294  0.00  0.00    +0.040 A 
ATOM      6  C   UNL     1       0.292  -8.138   0.250  0.00  0.00    +0.014 A 
ATOM      7  C   UNL     1      -0.307  -8.819  -0.782  0.00  0.00    +0.016 A 
ATOM      8  C   UNL     1      -0.305 -10.225  -0.807  0.00  0.00    +0.065 A 
ATOM      9  C   UNL     1       0.325 -10.893   0.252  0.00  0.00    +0.122 A 
ATOM     10  C   UNL     1       0.927 -10.224   1.278  0.00  0.00    +0.042 A 
ATOM     11  S   UNL     1       0.110 -12.605  -0.149  0.00  0.00    +0.078 S 
ATOM     12  O   UNL     1      -0.767 -13.168   0.817  0.00  0.00    -0.150 OA
ATOM     13  O   UNL     1       1.391 -13.142  -0.450  0.00  0.00    -0.150 OA
ATOM     14  N   UNL     1      -0.736 -12.469  -1.586  0.00  0.00    -0.165 N 
ATOM     15  C   UNL     1      -0.876 -11.151  -1.798  0.00  0.00    +0.268 C 
ATOM     16  O   UNL     1      -1.458 -10.735  -2.780  0.00  0.00    -0.268 OA
BRANCH  14  17
ATOM     17  C   UNL     1      -1.221 -13.559  -2.436  0.00  0.00    +0.095 C 
ATOM     18  C   UNL     1      -2.744 -13.470  -2.559  0.00  0.00    +0.030 C 
ATOM     19  C   UNL     1      -0.589 -13.443  -3.824  0.00  0.00    +0.030 C 
ENDBRANCH  14  17
ENDBRANCH   2   5
BRANCH   1  23
ATOM     20  N   UNL     1       1.523  -4.012   2.465  0.00  0.00    -0.298 N 
ATOM     21  C   UNL     1       2.125  -4.684   3.466  0.00  0.00    +0.316 C 
ATOM     22  O   UNL     1       2.652  -4.074   4.376  0.00  0.00    -0.251 OA
ATOM     23  N   UNL     1       2.143  -6.031   3.459  0.00  0.00    -0.218 N 
ATOM     24  H   UNL     1       1.102  -4.499   1.738  0.00  0.00    +0.150 HD
ATOM     25  H   UNL     1       2.577  -6.514   4.179  0.00  0.00    +0.174 HD
BRANCH  20  26
ATOM     26  C   UNL     1       1.503  -2.548   2.473  0.00  0.00    +0.106 C 
BRANCH  26  27
ATOM     27  C   UNL     1       0.763  -2.041   1.233  0.00  0.00    +0.019 C 
BRANCH  27  28
ATOM     28  C   UNL     1       0.742  -0.511   1.242  0.00  0.00    +0.001 C 
BRANCH  28  30
ATOM     29  C   UNL     1      -0.019   1.526   0.010  0.00  0.00    +0.004 C 
ATOM     30  C   UNL     1       0.002  -0.004   0.002  0.00  0.00    -0.003 C 
ENDBRANCH  28  30
ENDBRANCH  27  28
ENDBRANCH  26  27
ENDBRANCH  20  26
ENDBRANCH   1  23
TORSDOF 7
