REMARK  Name = ZINC67271772
REMARK  6 active torsions:
REMARK  status: ('A' for Active; 'I' for Inactive)
REMARK    1  A    between atoms: C_1  and  C_2
REMARK    2  A    between atoms: C_2  and  C_3
REMARK    3  A    between atoms: C_2  and  N_4
REMARK    4  A    between atoms: C_8  and  C_11
REMARK    5  A    between atoms: C_11  and  N_12
REMARK    6  A    between atoms: C_13  and  C_15
REMARK                            x       y       z     vdW  Elec       q    Type
REMARK                         _______ _______ _______ _____ _____    ______ ____
ROOT
ATOM      1  N   UNL     1      -5.701  -0.320  -2.271  0.00  0.00    -0.315 N 
ATOM      2  C   UNL     1      -6.550   0.029  -3.257  0.00  0.00    +0.216 C 
ATOM      3  O   UNL     1      -6.138   0.626  -4.229  0.00  0.00    -0.276 OA
ATOM      4  H   UNL     1      -6.030  -0.798  -1.494  0.00  0.00    +0.149 HD
ENDROOT
BRANCH   2   5
ATOM      5  C   UNL     1      -8.012  -0.323  -3.153  0.00  0.00    +0.075 C 
ATOM      6  C   UNL     1      -8.164  -1.842  -3.051  0.00  0.00    +0.015 C 
ATOM      7  C   UNL     1      -9.649  -2.198  -2.935  0.00  0.00    +0.036 C 
ATOM      8  C   UNL     1     -10.395  -1.675  -4.157  0.00  0.00    +0.112 C 
ATOM      9  C   UNL     1     -10.234  -0.165  -4.283  0.00  0.00    +0.036 C 
ATOM     10  C   UNL     1      -8.748   0.184  -4.395  0.00  0.00    +0.015 C 
ATOM     11  C   UNL     1     -11.858  -2.046  -4.080  0.00  0.00    +0.244 C 
ATOM     12  O   UNL     1     -12.656  -1.712  -3.231  0.00  0.00    -0.273 OA
ATOM     13  N   UNL     1     -12.090  -2.826  -5.156  0.00  0.00    -0.238 N 
ATOM     14  C   UNL     1     -10.983  -2.994  -5.891  0.00  0.00    +0.307 C 
ATOM     15  O   UNL     1     -10.942  -3.657  -6.909  0.00  0.00    -0.252 OA
ATOM     16  N   UNL     1      -9.921  -2.346  -5.375  0.00  0.00    -0.285 N 
ATOM     17  H   UNL     1     -12.951  -3.217  -5.371  0.00  0.00    +0.159 HD
ATOM     18  H   UNL     1      -9.021  -2.327  -5.736  0.00  0.00    +0.151 HD
ENDBRANCH   2   5
BRANCH   1  19
ATOM     19  C   UNL     1      -4.280   0.022  -2.372  0.00  0.00    +0.106 C 
BRANCH  19  24
ATOM     20  N   UNL     1      -1.376  -0.512   0.012  0.00  0.00    +0.381 N 
ATOM     21  C   UNL     1      -1.355  -1.980   0.013  0.00  0.00    -0.078 C 
ATOM     22  C   UNL     1      -2.785  -2.515   0.106  0.00  0.00    -0.018 C 
ATOM     23  C   UNL     1      -3.590  -2.015  -1.097  0.00  0.00    +0.001 C 
ATOM     24  C   UNL     1      -3.543  -0.485  -1.130  0.00  0.00    -0.011 C 
ATOM     25  C   UNL     1      -2.085  -0.025  -1.177  0.00  0.00    -0.074 C 
ATOM     26  H   UNL     1      -1.848  -0.185   0.842  0.00  0.00    -0.081 HD
BRANCH  20  28
ATOM     27  C   UNL     1      -0.019   1.526   0.010  0.00  0.00    -0.014 C 
ATOM     28  C   UNL     1       0.002  -0.004   0.002  0.00  0.00    -0.075 C 
ATOM     29  C   UNL     1       0.742  -0.511   1.242  0.00  0.00    -0.014 C 
ENDBRANCH  20  28
ENDBRANCH  19  24
ENDBRANCH   1  19
TORSDOF 4
