REMARK  Name = ZINC01444154
REMARK  8 active torsions:
REMARK  status: ('A' for Active; 'I' for Inactive)
REMARK    1  A    between atoms: C_1  and  C_2
REMARK    2  A    between atoms: N_8  and  C_36
REMARK    3  A    between atoms: N_12  and  N_13
REMARK    4  A    between atoms: C_14  and  C_16
REMARK    5  A    between atoms: C_16  and  N_27
REMARK    6  A    between atoms: C_17  and  C_18
REMARK    7  A    between atoms: C_21  and  N_24
REMARK    8  A    between atoms: C_28  and  C_30
REMARK                            x       y       z     vdW  Elec       q    Type
REMARK                         _______ _______ _______ _____ _____    ______ ____
ROOT
ATOM      1  C   UNL     1       1.133  -6.849   6.646  0.00  0.00    +0.098 C 
ATOM      2  C   UNL     1       1.735  -8.007   7.006  0.00  0.00    +0.036 C 
ENDROOT
BRANCH   2   3
ATOM      3  C   UNL     1       1.867  -8.355   8.429  0.00  0.00    -0.023 A 
ATOM      4  C   UNL     1       1.200  -7.604   9.402  0.00  0.00    +0.010 A 
ATOM      5  C   UNL     1       1.329  -7.937  10.734  0.00  0.00    +0.033 A 
ATOM      6  C   UNL     1       2.117  -9.011  11.109  0.00  0.00    +0.126 A 
ATOM      7  C   UNL     1       2.780  -9.760  10.152  0.00  0.00    +0.033 A 
ATOM      8  C   UNL     1       2.657  -9.443   8.816  0.00  0.00    +0.010 A 
BRANCH   6   9
ATOM      9  N   UNL     1       2.250  -9.361  12.541  0.00  0.00    +0.056 N 
ATOM     10  O   UNL     1       1.672  -8.710  13.379  0.00  0.00    -0.126 OA
ATOM     11  O   UNL     1       2.938 -10.299  12.872  0.00  0.00    -0.126 OA
ENDBRANCH   6   9
ENDBRANCH   2   3
BRANCH   1  13
ATOM     12  N   UNL     1       0.253  -5.423   4.872  0.00  0.00    -0.201 N 
ATOM     13  C   UNL     1       0.852  -6.576   5.231  0.00  0.00    +0.277 C 
ATOM     14  O   UNL     1       1.161  -7.391   4.382  0.00  0.00    -0.267 OA
ATOM     15  H   UNL     1       0.007  -4.774   5.549  0.00  0.00    +0.178 HD
BRANCH  12  27
ATOM     16  C   UNL     1      -2.648  -0.322   0.928  0.00  0.00    +0.046 C 
ATOM     17  C   UNL     1      -1.999  -1.676   0.803  0.00  0.00    -0.027 A 
ATOM     18  C   UNL     1      -1.846  -2.255  -0.441  0.00  0.00    +0.020 A 
ATOM     19  C   UNL     1      -1.252  -3.499  -0.572  0.00  0.00    +0.019 A 
ATOM     20  C   UNL     1      -0.806  -4.174   0.548  0.00  0.00    +0.027 A 
ATOM     21  C   UNL     1      -0.955  -3.599   1.805  0.00  0.00    +0.030 A 
ATOM     22  C   UNL     1      -1.550  -2.338   1.941  0.00  0.00    +0.049 A 
ATOM     23  N   UNL     1      -1.577  -1.984   3.286  0.00  0.00    -0.268 N 
ATOM     24  C   UNL     1      -1.026  -2.939   4.055  0.00  0.00    +0.271 C 
ATOM     25  O   UNL     1      -0.910  -2.905   5.266  0.00  0.00    -0.268 OA
ATOM     26  C   UNL     1      -0.597  -4.042   3.172  0.00  0.00    +0.153 C 
ATOM     27  N   UNL     1      -0.014  -5.164   3.521  0.00  0.00    -0.174 NA
ATOM     28  C   UNL     1      -2.134  -0.730   3.799  0.00  0.00    +0.138 C 
ATOM     29 BR   UNL     1      -1.052  -4.275  -2.285  0.00  0.00    -0.050 Br
ENDBRANCH  12  27
ENDBRANCH   1  13
BRANCH   1  30
ATOM     30  N   UNL     1       0.778  -5.912   7.621  0.00  0.00    -0.277 N 
ATOM     31  C   UNL     1      -0.499  -5.492   7.719  0.00  0.00    +0.248 C 
ATOM     32  O   UNL     1      -1.359  -5.992   7.021  0.00  0.00    -0.270 OA
ATOM     33  H   UNL     1       1.451  -5.565   8.228  0.00  0.00    +0.155 HD
BRANCH  31  34
ATOM     34  C   UNL     1      -0.853  -4.422   8.676  0.00  0.00    +0.037 A 
ATOM     35  C   UNL     1       0.147  -3.764   9.393  0.00  0.00    +0.013 A 
ATOM     36  C   UNL     1      -0.191  -2.766  10.284  0.00  0.00    +0.001 A 
ATOM     37  C   UNL     1      -1.518  -2.419  10.468  0.00  0.00    +0.000 A 
ATOM     38  C   UNL     1      -2.514  -3.068   9.761  0.00  0.00    +0.001 A 
ATOM     39  C   UNL     1      -2.189  -4.063   8.862  0.00  0.00    +0.013 A 
ENDBRANCH  31  34
ENDBRANCH   1  30
TORSDOF 6
