REMARK  Name = ZINC37578182
REMARK  13 active torsions:
REMARK  status: ('A' for Active; 'I' for Inactive)
REMARK    1  A    between atoms: C_1  and  C_2
REMARK    2  A    between atoms: C_2  and  C_3
REMARK    3  A    between atoms: C_3  and  C_5
REMARK    4  A    between atoms: C_3  and  N_6
REMARK    5  A    between atoms: N_6  and  C_7
REMARK    6  A    between atoms: C_7  and  C_8
REMARK    7  A    between atoms: C_8  and  C_9
REMARK    8  A    between atoms: N_11  and  C_12
REMARK    9  A    between atoms: C_12  and  C_13
REMARK   10  A    between atoms: C_13  and  N_14
REMARK   11  A    between atoms: C_20  and  C_22
REMARK   12  A    between atoms: N_30  and  C_33
REMARK   13  A    between atoms: C_33  and  C_34
REMARK                            x       y       z     vdW  Elec       q    Type
REMARK                         _______ _______ _______ _____ _____    ______ ____
ROOT
ATOM      1  N   UNL     1      -0.254  -0.332  -2.554  0.00  0.00    -0.293 N 
ATOM      2  C   UNL     1      -1.470  -0.909  -2.633  0.00  0.00    +0.267 C 
ATOM      3  O   UNL     1      -1.985  -1.381  -1.638  0.00  0.00    -0.268 OA
ENDROOT
BRANCH   2   4
ATOM      4  C   UNL     1      -2.177  -0.968  -3.929  0.00  0.00    +0.148 A 
ATOM      5  C   UNL     1      -3.493  -1.436  -4.143  0.00  0.00    +0.067 A 
ATOM      6  C   UNL     1      -3.702  -1.297  -5.474  0.00  0.00    +0.124 A 
ATOM      7  N   UNL     1      -2.562  -0.776  -6.028  0.00  0.00    -0.258 N 
ATOM      8  N   UNL     1      -1.696  -0.587  -5.100  0.00  0.00    -0.166 NA
ATOM      9  C   UNL     1      -2.417  -0.501  -7.459  0.00  0.00    +0.146 C 
ATOM     10  C   UNL     1      -2.317  -1.817  -8.239  0.00  0.00    +0.042 C 
ATOM     11  C   UNL     1      -3.335  -2.819  -7.696  0.00  0.00    +0.110 C 
ATOM     12  N   UNL     1      -4.650  -2.242  -7.463  0.00  0.00    -0.292 N 
ATOM     13  C   UNL     1      -4.896  -1.613  -6.288  0.00  0.00    +0.265 C 
ATOM     14  O   UNL     1      -6.022  -1.328  -5.928  0.00  0.00    -0.268 OA
BRANCH  12  15
ATOM     15  C   UNL     1      -5.694  -2.340  -8.486  0.00  0.00    +0.143 C 
BRANCH  15  16
ATOM     16  C   UNL     1      -6.491  -3.601  -8.271  0.00  0.00    -0.030 A 
ATOM     17  C   UNL     1      -6.100  -4.778  -8.881  0.00  0.00    +0.005 A 
ATOM     18  C   UNL     1      -6.830  -5.934  -8.685  0.00  0.00    +0.000 A 
ATOM     19  C   UNL     1      -7.952  -5.914  -7.877  0.00  0.00    +0.000 A 
ATOM     20  C   UNL     1      -8.343  -4.738  -7.266  0.00  0.00    +0.000 A 
ATOM     21  C   UNL     1      -7.610  -3.582  -7.460  0.00  0.00    +0.005 A 
ENDBRANCH  15  16
ENDBRANCH  12  15
ENDBRANCH   2   4
BRANCH   1  22
ATOM     22  C   UNL     1       0.497  -0.376  -1.297  0.00  0.00    +0.073 C 
ATOM     23  C   UNL     1       0.692  -1.832  -0.871  0.00  0.00    +0.028 C 
BRANCH  22  25
ATOM     24  C   UNL     1      -0.390   1.852  -0.594  0.00  0.00    +0.005 C 
ATOM     25  C   UNL     1      -0.279   0.374  -0.213  0.00  0.00    +0.019 C 
ENDBRANCH  22  25
ENDBRANCH   1  22
BRANCH   1  26
ATOM     26  C   UNL     1       0.316   0.339  -3.725  0.00  0.00    +0.117 C 
BRANCH  26  27
ATOM     27  C   UNL     1       1.063  -0.683  -4.585  0.00  0.00    +0.114 C 
BRANCH  27  28
ATOM     28  C   UNL     1       1.650   0.007  -5.789  0.00  0.00    +0.214 C 
ATOM     29  O   UNL     1       1.486   1.199  -5.945  0.00  0.00    -0.276 OA
ATOM     30  N   UNL     1       2.357  -0.699  -6.693  0.00  0.00    -0.317 N 
ATOM     31  H   UNL     1       2.488  -1.652  -6.568  0.00  0.00    +0.149 HD
BRANCH  30  32
ATOM     32  C   UNL     1       2.927  -0.029  -7.864  0.00  0.00    +0.085 C 
BRANCH  32  33
ATOM     33  C   UNL     1       3.675  -1.050  -8.723  0.00  0.00    -0.060 C 
BRANCH  33  34
ATOM     34  N   UNL     1       4.246  -0.377  -9.897  0.00  0.00    +0.381 N 
ATOM     35  C   UNL     1       3.161   0.134 -10.743  0.00  0.00    -0.079 C 
ATOM     36  C   UNL     1       3.751   0.905 -11.926  0.00  0.00    -0.019 C 
ATOM     37  C   UNL     1       4.642  -0.032 -12.746  0.00  0.00    -0.004 C 
ATOM     38  C   UNL     1       5.726  -0.616 -11.836  0.00  0.00    -0.019 C 
ATOM     39  C   UNL     1       5.063  -1.332 -10.657  0.00  0.00    -0.079 C 
ATOM     40  H   UNL     1       4.824   0.392  -9.595  0.00  0.00    -0.082 HD
ENDBRANCH  33  34
ENDBRANCH  32  33
ENDBRANCH  30  32
ENDBRANCH  27  28
ENDBRANCH  26  27
ENDBRANCH   1  26
TORSDOF 11
