REMARK  Name = ZINC34861397
REMARK  15 active torsions:
REMARK  status: ('A' for Active; 'I' for Inactive)
REMARK    1  A    between atoms: C_1  and  C_2
REMARK    2  A    between atoms: C_2  and  C_3
REMARK    3  A    between atoms: C_3  and  C_4
REMARK    4  A    between atoms: C_4  and  N_5
REMARK    5  A    between atoms: C_6  and  C_37
REMARK    6  A    between atoms: C_7  and  C_31
REMARK    7  A    between atoms: C_8  and  C_13
REMARK    8  A    between atoms: C_17  and  N_19
REMARK    9  A    between atoms: N_22  and  C_23
REMARK   10  A    between atoms: C_26  and  C_30
REMARK   11  A    between atoms: C_27  and  C_29
REMARK   12  A    between atoms: C_31  and  O_33
REMARK   13  A    between atoms: O_33  and  C_34
REMARK   14  A    between atoms: C_34  and  C_35
REMARK   15  A    between atoms: C_34  and  C_36
REMARK                            x       y       z     vdW  Elec       q    Type
REMARK                         _______ _______ _______ _____ _____    ______ ____
ROOT
ATOM      1  C   UNL     1       3.479  -2.645   6.076  0.00  0.00    -0.021 A 
ATOM      2  C   UNL     1       3.140  -1.316   6.256  0.00  0.00    +0.006 A 
ATOM      3  C   UNL     1       3.546  -0.643   7.393  0.00  0.00    +0.002 A 
ATOM      4  C   UNL     1       4.293  -1.297   8.354  0.00  0.00    +0.023 A 
ATOM      5  C   UNL     1       4.636  -2.631   8.177  0.00  0.00    +0.035 A 
ATOM      6  C   UNL     1       4.221  -3.305   7.035  0.00  0.00    +0.029 A 
ENDROOT
BRANCH   1  10
ATOM      7  N   UNL     1       2.109  -2.208   2.503  0.00  0.00    -0.259 N 
ATOM      8  C   UNL     1       3.451  -2.438   2.604  0.00  0.00    +0.024 C 
ATOM      9  C   UNL     1       3.980  -3.003   3.711  0.00  0.00    +0.078 C 
ATOM     10  C   UNL     1       3.034  -3.374   4.835  0.00  0.00    +0.144 C 
ATOM     11  N   UNL     1       1.605  -3.085   4.627  0.00  0.00    -0.288 N 
ATOM     12  C   UNL     1       1.229  -2.511   3.467  0.00  0.00    +0.307 C 
ATOM     13  O   UNL     1       0.052  -2.264   3.287  0.00  0.00    -0.252 OA
ATOM     14  C   UNL     1       4.357  -2.053   1.463  0.00  0.00    +0.061 C 
ATOM     15  H   UNL     1       0.951  -3.299   5.310  0.00  0.00    +0.151 HD
BRANCH   9  16
ATOM     16  C   UNL     1       5.370  -3.242   3.816  0.00  0.00    +0.339 C 
ATOM     17  O   UNL     1       6.112  -2.937   2.901  0.00  0.00    -0.245 OA
BRANCH  16  18
ATOM     18  O   UNL     1       5.875  -3.809   4.932  0.00  0.00    -0.459 OA
BRANCH  18  19
ATOM     19  C   UNL     1       7.288  -4.021   4.970  0.00  0.00    +0.171 C 
ATOM     20  C   UNL     1       7.777  -3.938   6.418  0.00  0.00    +0.052 C 
ATOM     21  C   UNL     1       7.611  -5.404   4.402  0.00  0.00    +0.052 C 
ENDBRANCH  18  19
ENDBRANCH  16  18
ENDBRANCH   9  16
BRANCH   7  22
ATOM     22  C   UNL     1       1.603  -1.591   1.275  0.00  0.00    +0.115 C 
BRANCH  22  23
ATOM     23  C   UNL     1       1.383  -2.672   0.214  0.00  0.00    +0.019 C 
BRANCH  23  25
ATOM     24  C   UNL     1       0.635  -3.108  -2.129  0.00  0.00    +0.004 C 
ATOM     25  C   UNL     1       0.855  -2.027  -1.069  0.00  0.00    -0.002 C 
ENDBRANCH  23  25
ENDBRANCH  22  23
ENDBRANCH   7  22
ENDBRANCH   1  10
BRANCH   5  26
ATOM     26  N   UNL     1       5.392  -3.296   9.148  0.00  0.00    -0.269 N 
ATOM     27  C   UNL     1       6.332  -2.627   9.845  0.00  0.00    +0.308 C 
ATOM     28  O   UNL     1       6.587  -1.471   9.567  0.00  0.00    -0.252 OA
ATOM     29  N   UNL     1       6.988  -3.239  10.851  0.00  0.00    -0.269 N 
ATOM     30  H   UNL     1       5.240  -4.239   9.320  0.00  0.00    +0.156 HD
ATOM     31  H   UNL     1       6.841  -4.182  11.022  0.00  0.00    +0.156 HD
BRANCH  29  32
ATOM     32  C   UNL     1       7.881  -2.513  11.647  0.00  0.00    +0.035 A 
ATOM     33  C   UNL     1       7.642  -1.172  11.916  0.00  0.00    +0.023 A 
ATOM     34  C   UNL     1       8.525  -0.459  12.703  0.00  0.00    +0.005 A 
ATOM     35  C   UNL     1       9.647  -1.079  13.221  0.00  0.00    -0.047 A 
ATOM     36  C   UNL     1       9.888  -2.414  12.955  0.00  0.00    -0.046 A 
ATOM     37  C   UNL     1       9.005  -3.134  12.174  0.00  0.00    +0.027 A 
ATOM     38  C   UNL     1      11.113  -3.085  13.522  0.00  0.00    +0.044 C 
ATOM     39  C   UNL     1      10.610  -0.297  14.078  0.00  0.00    +0.044 C 
ENDBRANCH  29  32
ENDBRANCH   5  26
TORSDOF 9
