REMARK  Name = ZINC63480010
REMARK  4 active torsions:
REMARK  status: ('A' for Active; 'I' for Inactive)
REMARK    1  A    between atoms: C_1  and  C_2
REMARK    2  A    between atoms: C_5  and  N_8
REMARK    3  A    between atoms: C_13  and  C_31
REMARK    4  A    between atoms: C_31  and  C_32
REMARK                            x       y       z     vdW  Elec       q    Type
REMARK                         _______ _______ _______ _____ _____    ______ ____
ROOT
ATOM      1  N   UNL     1       0.059  -4.172  -0.021  0.00  0.00    -0.210 N 
ATOM      2  C   UNL     1      -0.030  -4.891  -1.146  0.00  0.00    +0.232 C 
ATOM      3  O   UNL     1      -0.133  -4.433  -2.264  0.00  0.00    -0.274 OA
ATOM      4  C   UNL     1       0.018  -6.364  -0.807  0.00  0.00    +0.107 C 
ATOM      5  C   UNL     1      -1.361  -6.994  -1.097  0.00  0.00    +0.072 C 
ATOM      6  N   UNL     1      -1.661  -7.824   0.100  0.00  0.00    -0.295 NA
ATOM      7  C   UNL     1      -1.159  -7.021   1.231  0.00  0.00    +0.136 C 
ATOM      8  C   UNL     1       0.158  -6.370   0.741  0.00  0.00    +0.123 C 
ATOM      9  C   UNL     1       0.172  -4.901   1.096  0.00  0.00    +0.233 C 
ATOM     10  O   UNL     1       0.269  -4.452   2.218  0.00  0.00    -0.274 OA
ATOM     11  C   UNL     1      -0.927  -7.872   2.448  0.00  0.00    +0.006 A 
ATOM     12  C   UNL     1      -0.131  -8.966   2.701  0.00  0.00    +0.046 A 
ATOM     13  C   UNL     1      -0.135  -9.550   3.958  0.00  0.00    +0.124 A 
ATOM     14  C   UNL     1      -0.940  -9.028   4.956  0.00  0.00    +0.040 A 
ATOM     15  C   UNL     1      -1.738  -7.931   4.705  0.00  0.00    +0.026 A 
ATOM     16  C   UNL     1      -1.740  -7.340   3.444  0.00  0.00    +0.039 A 
ATOM     17  N   UNL     1      -2.450  -6.240   2.953  0.00  0.00    -0.283 N 
ATOM     18  C   UNL     1      -2.164  -5.988   1.661  0.00  0.00    +0.243 C 
ATOM     19  O   UNL     1      -2.628  -5.101   0.976  0.00  0.00    -0.273 OA
ATOM     20  F   UNL     1       0.646 -10.624   4.208  0.00  0.00    -0.205 F 
ATOM     21  H   UNL     1      -2.652  -7.990   0.186  0.00  0.00    +0.124 HD
ATOM     22  H   UNL     1      -3.075  -5.719   3.481  0.00  0.00    +0.155 HD
ENDROOT
BRANCH   1  27
ATOM     23  C   UNL     1      -0.016   1.503   0.009  0.00  0.00    +0.044 C 
ATOM     24  C   UNL     1       0.004  -0.004   0.001  0.00  0.00    -0.050 A 
ATOM     25  C   UNL     1       1.155  -0.681   0.358  0.00  0.00    +0.005 A 
ATOM     26  C   UNL     1       1.177  -2.062   0.352  0.00  0.00    +0.024 A 
ATOM     27  C   UNL     1       0.040  -2.771  -0.013  0.00  0.00    +0.044 A 
ATOM     28  C   UNL     1      -1.115  -2.088  -0.371  0.00  0.00    +0.024 A 
ATOM     29  C   UNL     1      -1.131  -0.707  -0.358  0.00  0.00    +0.005 A 
ENDBRANCH   1  27
BRANCH   5  30
ATOM     30  C   UNL     1      -1.293  -7.869  -2.351  0.00  0.00    +0.052 C 
BRANCH  30  31
ATOM     31  C   UNL     1      -2.673  -8.375  -2.686  0.00  0.00    -0.040 C 
ATOM     32  C   UNL     1      -3.549  -7.829  -3.559  0.00  0.00    -0.001 A 
ATOM     33  C   UNL     1      -3.483  -6.646  -4.426  0.00  0.00    +0.010 A 
ATOM     34  C   UNL     1      -4.544  -6.346  -5.208  0.00  0.00    +0.001 A 
ATOM     35  C   UNL     1      -5.703  -7.134  -5.213  0.00  0.00    +0.002 A 
ATOM     36  C   UNL     1      -5.839  -8.236  -4.444  0.00  0.00    +0.026 A 
ATOM     37  C   UNL     1      -4.784  -8.645  -3.583  0.00  0.00    +0.043 A 
ATOM     38  N   UNL     1      -4.675  -9.656  -2.755  0.00  0.00    -0.380 N 
ATOM     39  C   UNL     1      -3.355  -9.599  -2.117  0.00  0.00    +0.144 C 
ATOM     40  H   UNL     1      -5.353 -10.332  -2.595  0.00  0.00    +0.160 HD
ENDBRANCH  30  31
ENDBRANCH   5  30
TORSDOF 3
