REMARK  Name = ZINC09191810
REMARK  2 active torsions:
REMARK  status: ('A' for Active; 'I' for Inactive)
REMARK    1  A    between atoms: C_15  and  C_17
REMARK    2  A    between atoms: N_22  and  C_25
REMARK                            x       y       z     vdW  Elec       q    Type
REMARK                         _______ _______ _______ _____ _____    ______ ____
ROOT
ATOM      1  C   UNL     1       1.855   5.856   0.749  0.00  0.00    +0.001 A 
ATOM      2  C   UNL     1       0.605   6.419   0.566  0.00  0.00    +0.000 A 
ATOM      3  C   UNL     1      -0.447   5.647   0.102  0.00  0.00    +0.006 A 
ATOM      4  C   UNL     1      -0.251   4.314  -0.179  0.00  0.00    -0.021 A 
ATOM      5  C   UNL     1       1.012   3.736  -0.001  0.00  0.00    -0.019 A 
ATOM      6  C   UNL     1       2.066   4.522   0.470  0.00  0.00    +0.008 A 
ATOM      7  C   UNL     1       1.230   2.308  -0.308  0.00  0.00    +0.022 C 
ATOM      8  C   UNL     1       0.167   1.488  -0.425  0.00  0.00    +0.054 C 
ATOM      9  C   UNL     1      -1.382   3.450  -0.673  0.00  0.00    +0.100 C 
ATOM     10  C   UNL     1      -2.710   3.854  -0.030  0.00  0.00    +0.113 C 
ATOM     11  C   UNL     1      -3.075   2.678   0.923  0.00  0.00    +0.118 C 
ATOM     12  C   UNL     1      -2.272   1.488   0.358  0.00  0.00    +0.155 C 
ATOM     13  C   UNL     1      -4.545   2.466   0.616  0.00  0.00    +0.232 C 
ATOM     14  O   UNL     1      -5.333   1.861   1.310  0.00  0.00    -0.274 OA
ATOM     15  N   UNL     1      -4.828   3.060  -0.553  0.00  0.00    -0.210 N 
ATOM     16  C   UNL     1      -3.822   3.790  -1.057  0.00  0.00    +0.232 C 
ATOM     17  O   UNL     1      -3.805   4.312  -2.151  0.00  0.00    -0.274 OA
ATOM     18  N   UNL     1      -1.248   2.020  -0.582  0.00  0.00    -0.383 NA
ATOM     19  H   UNL     1      -1.535   1.675  -1.505  0.00  0.00    +0.127 HD
ENDROOT
BRANCH  15  20
ATOM     20  C   UNL     1      -6.068   2.928  -1.194  0.00  0.00    +0.045 A 
ATOM     21  C   UNL     1      -7.208   3.478  -0.622  0.00  0.00    +0.024 A 
ATOM     22  C   UNL     1      -8.429   3.348  -1.254  0.00  0.00    +0.003 A 
ATOM     23  C   UNL     1      -8.518   2.670  -2.456  0.00  0.00    +0.015 A 
ATOM     24  C   UNL     1      -7.384   2.121  -3.029  0.00  0.00    +0.020 A 
ATOM     25  C   UNL     1      -6.159   2.253  -2.403  0.00  0.00    +0.039 A 
ATOM     26 BR   UNL     1      -7.510   1.195  -4.673  0.00  0.00    -0.050 Br
ENDBRANCH  15  20
BRANCH  12  27
ATOM     27  C   UNL     1      -3.091   0.750  -0.670  0.00  0.00    +0.230 C 
ATOM     28  O   UNL     1      -2.901   0.946  -1.851  0.00  0.00    -0.274 OA
ATOM     29  N   UNL     1      -4.034  -0.128  -0.275  0.00  0.00    -0.328 N 
ATOM     30  H   UNL     1      -4.186  -0.285   0.670  0.00  0.00    +0.145 HD
ATOM     31  H   UNL     1      -4.561  -0.603  -0.937  0.00  0.00    +0.145 HD
ENDBRANCH  12  27
TORSDOF 2
