REMARK  Name = ZINC04308495
REMARK  7 active torsions:
REMARK  status: ('A' for Active; 'I' for Inactive)
REMARK    1  A    between atoms: C_1  and  C_2
REMARK    2  A    between atoms: C_2  and  C_3
REMARK    3  A    between atoms: C_3  and  C_23
REMARK    4  A    between atoms: N_6  and  C_10
REMARK    5  A    between atoms: C_10  and  C_11
REMARK    6  A    between atoms: N_16  and  C_17
REMARK    7  A    between atoms: C_17  and  C_18
REMARK                            x       y       z     vdW  Elec       q    Type
REMARK                         _______ _______ _______ _____ _____    ______ ____
ROOT
ATOM      1  C   UNL     1       6.422  -0.322  -0.695  0.00  0.00    +0.138 C 
ATOM      2  C   UNL     1       5.312   0.599  -1.160  0.00  0.00    +0.251 C 
ATOM      3  O   UNL     1       5.003   0.854  -2.305  0.00  0.00    -0.272 OA
ATOM      4  N   UNL     1       4.741   1.077  -0.037  0.00  0.00    -0.215 N 
ATOM      5  C   UNL     1       5.333   0.595   1.061  0.00  0.00    +0.310 C 
ATOM      6  O   UNL     1       4.996   0.885   2.193  0.00  0.00    -0.252 OA
ATOM      7  N   UNL     1       6.340  -0.249   0.774  0.00  0.00    -0.281 N 
ATOM      8  H   UNL     1       6.904  -0.716   1.410  0.00  0.00    +0.152 HD
ENDROOT
BRANCH   1   9
ATOM      9  C   UNL     1       7.761   0.174  -1.180  0.00  0.00    -0.015 A 
ATOM     10  C   UNL     1       8.262  -0.264  -2.391  0.00  0.00    +0.009 A 
ATOM     11  C   UNL     1       9.487   0.194  -2.839  0.00  0.00    +0.039 A 
ATOM     12  C   UNL     1      10.216   1.084  -2.068  0.00  0.00    +0.123 A 
ATOM     13  C   UNL     1       9.715   1.518  -0.853  0.00  0.00    +0.039 A 
ATOM     14  C   UNL     1       8.488   1.062  -0.410  0.00  0.00    +0.009 A 
ATOM     15  F   UNL     1      11.416   1.527  -2.502  0.00  0.00    -0.205 F 
ENDBRANCH   1   9
BRANCH   1  17
ATOM     16  C   UNL     1       4.834  -2.249  -0.629  0.00  0.00    +0.007 C 
ATOM     17  C   UNL     1       6.173  -1.752  -1.178  0.00  0.00    +0.037 C 
ENDBRANCH   1  17
BRANCH   4  18
ATOM     18  C   UNL     1       3.614   2.014  -0.022  0.00  0.00    +0.214 C 
BRANCH  18  19
ATOM     19  C   UNL     1       2.320   1.243  -0.013  0.00  0.00    +0.238 C 
ATOM     20  O   UNL     1       2.336   0.031  -0.020  0.00  0.00    -0.274 OA
ATOM     21  N   UNL     1       1.143   1.901   0.001  0.00  0.00    -0.239 N 
ATOM     22  C   UNL     1      -0.014   1.211   0.009  0.00  0.00    +0.306 C 
ATOM     23  O   UNL     1       0.002  -0.004   0.002  0.00  0.00    -0.252 OA
ATOM     24  N   UNL     1      -1.191   1.869   0.018  0.00  0.00    -0.292 N 
ATOM     25  H   UNL     1       1.130   2.871   0.007  0.00  0.00    +0.159 HD
ATOM     26  H   UNL     1      -1.204   2.839   0.023  0.00  0.00    +0.151 HD
BRANCH  24  27
ATOM     27  C   UNL     1      -2.449   1.119   0.020  0.00  0.00    +0.180 C 
BRANCH  27  28
ATOM     28  C   UNL     1      -3.608   2.083   0.030  0.00  0.00    +0.122 A 
ATOM     29  C   UNL     1      -4.218   2.592  -1.055  0.00  0.00    +0.046 A 
ATOM     30  C   UNL     1      -5.244   3.445  -0.586  0.00  0.00    +0.041 A 
ATOM     31  C   UNL     1      -5.199   3.406   0.757  0.00  0.00    +0.195 A 
ATOM     32  O   UNL     1      -4.210   2.575   1.125  0.00  0.00    -0.466 OA
ENDBRANCH  27  28
ENDBRANCH  24  27
ENDBRANCH  18  19
ENDBRANCH   4  18
TORSDOF 6
