REMARK  Name = ZINC39530931
REMARK  5 active torsions:
REMARK  status: ('A' for Active; 'I' for Inactive)
REMARK    1  A    between atoms: C_1  and  C_2
REMARK    2  A    between atoms: C_8  and  C_10
REMARK    3  A    between atoms: C_16  and  C_18
REMARK    4  A    between atoms: C_18  and  N_19
REMARK    5  A    between atoms: C_21  and  C_25
REMARK                            x       y       z     vdW  Elec       q    Type
REMARK                         _______ _______ _______ _____ _____    ______ ____
ROOT
ATOM      1  C   UNL     1       0.051  -2.693   2.513  0.00  0.00    +0.041 C 
ATOM      2  C   UNL     1      -1.201  -2.315   3.308  0.00  0.00    +0.028 C 
ATOM      3  C   UNL     1      -1.199  -3.065   4.643  0.00  0.00    +0.108 C 
ATOM      4  N   UNL     1       0.065  -2.787   5.340  0.00  0.00    -0.300 N 
ATOM      5  C   UNL     1       1.329  -3.029   4.632  0.00  0.00    +0.108 C 
ATOM      6  C   UNL     1       1.298  -2.280   3.296  0.00  0.00    +0.028 C 
ATOM      7  C   UNL     1       0.064  -2.318   6.603  0.00  0.00    +0.229 C 
ATOM      8  O   UNL     1      -0.987  -2.121   7.176  0.00  0.00    -0.274 OA
ENDROOT
BRANCH   1  16
ATOM      9  C   UNL     1      -0.018   1.503   0.010  0.00  0.00    +0.086 C 
ATOM     10  C   UNL     1       0.002  -0.004   0.002  0.00  0.00    +0.107 A 
ATOM     11  N   UNL     1       0.005  -0.656  -1.177  0.00  0.00    -0.311 N 
ATOM     12  H   UNL     1      -0.005  -0.156  -2.009  0.00  0.00    +0.170 HD
ATOM     13  C   UNL     1       0.024  -2.006  -1.200  0.00  0.00    +0.252 A 
ATOM     14  O   UNL     1       0.027  -2.611  -2.260  0.00  0.00    -0.268 OA
ATOM     15  C   UNL     1       0.039  -2.702   0.026  0.00  0.00    +0.093 A 
ATOM     16  C   UNL     1       0.035  -1.983   1.183  0.00  0.00    +0.052 A 
ATOM     17  N   UNL     1       0.022  -0.648   1.138  0.00  0.00    -0.239 NA
ENDBRANCH   1  16
BRANCH   7  18
ATOM     18  C   UNL     1       1.368  -2.037   7.304  0.00  0.00    +0.181 C 
BRANCH  18  19
ATOM     19  N   UNL     1       1.099  -1.539   8.659  0.00  0.00    -0.261 NA
ATOM     20  N   UNL     1       0.549  -0.184   8.619  0.00  0.00    -0.247 NA
ATOM     21  C   UNL     1       1.472   0.667   9.406  0.00  0.00    +0.152 C 
ATOM     22  N   UNL     1       2.165  -0.293  10.306  0.00  0.00    -0.328 NA
ATOM     23  N   UNL     1       2.330  -1.479   9.451  0.00  0.00    +0.411 N 
ATOM     24  H   UNL     1      -0.382  -0.161   9.005  0.00  0.00    +0.141 HD
ATOM     25  H   UNL     1       3.060   0.069  10.599  0.00  0.00    +0.106 HD
ATOM     26  H   UNL     1       2.425  -2.309  10.016  0.00  0.00    -0.031 HD
ATOM     27  H   UNL     1       3.131  -1.369   8.847  0.00  0.00    -0.031 HD
BRANCH  21  28
ATOM     28  C   UNL     1       0.700   1.684  10.206  0.00  0.00    -0.017 A 
ATOM     29  C   UNL     1      -0.512   2.157   9.738  0.00  0.00    +0.006 A 
ATOM     30  C   UNL     1      -1.220   3.090  10.472  0.00  0.00    +0.000 A 
ATOM     31  C   UNL     1      -0.717   3.549  11.675  0.00  0.00    +0.000 A 
ATOM     32  C   UNL     1       0.494   3.075  12.144  0.00  0.00    +0.000 A 
ATOM     33  C   UNL     1       1.200   2.139  11.412  0.00  0.00    +0.006 A 
ENDBRANCH  21  28
ENDBRANCH  18  19
ENDBRANCH   7  18
TORSDOF 4
