REMARK  Name = ZINC08133621
REMARK  11 active torsions:
REMARK  status: ('A' for Active; 'I' for Inactive)
REMARK    1  A    between atoms: C_1  and  C_2
REMARK    2  A    between atoms: C_5  and  C_8
REMARK    3  A    between atoms: C_8  and  C_10
REMARK    4  A    between atoms: C_8  and  N_59
REMARK    5  A    between atoms: C_16  and  C_17
REMARK    6  A    between atoms: C_16  and  N_59
REMARK    7  A    between atoms: N_19  and  C_20
REMARK    8  A    between atoms: N_19  and  C_21
REMARK    9  A    between atoms: C_21  and  C_22
REMARK   10  A    between atoms: N_24  and  C_25
REMARK   11  A    between atoms: C_28  and  C_31
REMARK                            x       y       z     vdW  Elec       q    Type
REMARK                         _______ _______ _______ _____ _____    ______ ____
ROOT
ATOM      1  C   UNL     1       4.872   4.132   0.481  0.00  0.00    +0.016 C 
ENDROOT
BRANCH   1   2
ATOM      2  C   UNL     1       3.876   3.028   0.723  0.00  0.00    +0.199 C 
ATOM      3  O   UNL     1       3.487   2.797   1.849  0.00  0.00    -0.278 OA
ATOM      4  N   UNL     1       3.416   2.296  -0.311  0.00  0.00    -0.297 N 
ATOM      5  C   UNL     1       3.885   2.575  -1.671  0.00  0.00    +0.132 C 
BRANCH   4   6
ATOM      6  C   UNL     1       2.448   1.223  -0.076  0.00  0.00    +0.203 C 
BRANCH   6   7
ATOM      7  C   UNL     1       1.050   1.777  -0.174  0.00  0.00    +0.235 C 
ATOM      8  O   UNL     1       0.879   2.953  -0.417  0.00  0.00    -0.274 OA
ATOM      9  N   UNL     1      -0.011   0.966   0.007  0.00  0.00    -0.284 N 
ATOM     10  H   UNL     1       0.122   0.012   0.124  0.00  0.00    +0.155 HD
BRANCH   9  11
ATOM     11  C   UNL     1      -1.305   1.499   0.022  0.00  0.00    +0.033 A 
ATOM     12  C   UNL     1      -1.528   2.769   0.536  0.00  0.00    +0.023 A 
ATOM     13  C   UNL     1      -2.806   3.295   0.544  0.00  0.00    +0.005 A 
ATOM     14  C   UNL     1      -3.863   2.552   0.052  0.00  0.00    -0.050 A 
ATOM     15  C   UNL     1      -3.645   1.284  -0.456  0.00  0.00    +0.005 A 
ATOM     16  C   UNL     1      -2.369   0.756  -0.472  0.00  0.00    +0.023 A 
ATOM     17  C   UNL     1      -5.257   3.126   0.068  0.00  0.00    +0.044 C 
ENDBRANCH   9  11
ENDBRANCH   6   7
ENDBRANCH   4   6
ENDBRANCH   1   2
BRANCH   1  18
ATOM     18  N   UNL     1       5.208   4.770   1.768  0.00  0.00    +0.392 N 
ATOM     19  H   UNL     1       4.355   5.157   2.188  0.00  0.00    -0.084 HD
ATOM     20  H   UNL     1       5.613   4.068   2.399  0.00  0.00    -0.084 HD
BRANCH  18  21
ATOM     21  C   UNL     1       6.184   5.857   1.561  0.00  0.00    -0.009 C 
BRANCH  21  26
ATOM     22  C   UNL     1       5.701   9.683   5.865  0.00  0.00    +0.044 C 
ATOM     23  C   UNL     1       5.827   8.685   4.743  0.00  0.00    -0.050 A 
ATOM     24  C   UNL     1       6.034   9.124   3.449  0.00  0.00    +0.003 A 
ATOM     25  C   UNL     1       6.150   8.209   2.419  0.00  0.00    +0.002 A 
ATOM     26  C   UNL     1       6.058   6.855   2.684  0.00  0.00    -0.057 A 
ATOM     27  C   UNL     1       5.846   6.417   3.977  0.00  0.00    +0.002 A 
ATOM     28  C   UNL     1       5.736   7.331   5.008  0.00  0.00    +0.003 A 
ENDBRANCH  21  26
BRANCH  21  29
ATOM     29  C   UNL     1       7.579   5.287   1.550  0.00  0.00    -0.057 A 
ATOM     30  C   UNL     1       7.923   4.285   2.439  0.00  0.00    +0.002 A 
ATOM     31  C   UNL     1       9.201   3.759   2.426  0.00  0.00    +0.000 A 
ATOM     32  C   UNL     1      10.137   4.239   1.530  0.00  0.00    +0.000 A 
ATOM     33  C   UNL     1       9.795   5.244   0.645  0.00  0.00    +0.000 A 
ATOM     34  C   UNL     1       8.515   5.768   0.655  0.00  0.00    +0.002 A 
ENDBRANCH  21  29
ENDBRANCH  18  21
ENDBRANCH   1  18
TORSDOF 8
