REMARK  Name = ZINC08917507
REMARK  7 active torsions:
REMARK  status: ('A' for Active; 'I' for Inactive)
REMARK    1  A    between atoms: C_1  and  C_2
REMARK    2  A    between atoms: C_6  and  N_8
REMARK    3  A    between atoms: C_13  and  C_15
REMARK    4  A    between atoms: N_17  and  C_18
REMARK    5  A    between atoms: C_19  and  C_27
REMARK    6  A    between atoms: N_29  and  C_30
REMARK    7  A    between atoms: C_30  and  C_31
REMARK                            x       y       z     vdW  Elec       q    Type
REMARK                         _______ _______ _______ _____ _____    ______ ____
ROOT
ATOM      1  C   UNL     1      -0.051  -0.022   0.780  0.00  0.00    +0.085 A 
ATOM      2  C   UNL     1       1.291  -0.324   0.966  0.00  0.00    +0.069 A 
ATOM      3  C   UNL     1       2.210   0.786   1.146  0.00  0.00    -0.023 A 
ATOM      4  C   UNL     1       1.645   2.013   1.111  0.00  0.00    -0.004 A 
ATOM      5  S   UNL     1      -0.079   1.710   0.845  0.00  0.00    -0.077 S 
ATOM      6  C   UNL     1       2.338   3.331   1.267  0.00  0.00    +0.043 C 
ATOM      7  C   UNL     1       3.737   3.077   1.846  0.00  0.00    +0.005 C 
ATOM      8  C   UNL     1       4.402   1.948   1.052  0.00  0.00    +0.005 C 
ATOM      9  C   UNL     1       3.710   0.619   1.359  0.00  0.00    +0.037 C 
ENDROOT
BRANCH   1  12
ATOM     10  C   UNL     1      -2.359  -0.410   0.424  0.00  0.00    +0.273 C 
ATOM     11  O   UNL     1      -2.554   0.790   0.443  0.00  0.00    -0.268 OA
ATOM     12  N   UNL     1      -1.111  -0.893   0.589  0.00  0.00    -0.274 N 
ATOM     13  H   UNL     1      -0.956  -1.850   0.574  0.00  0.00    +0.156 HD
BRANCH  10  19
ATOM     14  N   UNL     1      -4.251  -3.471   0.022  0.00  0.00    -0.239 N 
ATOM     15  C   UNL     1      -5.541  -3.092  -0.153  0.00  0.00    +0.117 A 
ATOM     16  C   UNL     1      -5.887  -1.783  -0.152  0.00  0.00    +0.073 A 
ATOM     17  C   UNL     1      -4.857  -0.826   0.044  0.00  0.00    +0.212 A 
ATOM     18  O   UNL     1      -5.096   0.371   0.062  0.00  0.00    -0.285 OA
ATOM     19  C   UNL     1      -3.488  -1.338   0.220  0.00  0.00    +0.193 A 
ATOM     20  N   UNL     1      -3.291  -2.640   0.197  0.00  0.00    -0.158 NA
BRANCH  14  26
ATOM     21  C   UNL     1      -5.782  -8.138   0.231  0.00  0.00    +0.044 C 
ATOM     22  C   UNL     1      -4.676  -7.122   0.111  0.00  0.00    -0.048 A 
ATOM     23  C   UNL     1      -3.363  -7.541  -0.009  0.00  0.00    +0.003 A 
ATOM     24  C   UNL     1      -2.345  -6.612  -0.119  0.00  0.00    +0.002 A 
ATOM     25  C   UNL     1      -2.636  -5.261  -0.108  0.00  0.00    +0.028 A 
ATOM     26  C   UNL     1      -3.953  -4.838   0.011  0.00  0.00    +0.066 A 
ATOM     27  C   UNL     1      -4.973  -5.774   0.127  0.00  0.00    +0.031 A 
ENDBRANCH  14  26
ENDBRANCH  10  19
ENDBRANCH   1  12
BRANCH   2  28
ATOM     28  C   UNL     1       1.762  -1.712   0.980  0.00  0.00    +0.247 C 
ATOM     29  O   UNL     1       2.111  -2.247  -0.056  0.00  0.00    -0.270 OA
ATOM     30  N   UNL     1       1.810  -2.396   2.140  0.00  0.00    -0.307 N 
ATOM     31  H   UNL     1       1.532  -1.970   2.966  0.00  0.00    +0.149 HD
BRANCH  30  32
ATOM     32  C   UNL     1       2.281  -3.783   2.155  0.00  0.00    +0.139 C 
BRANCH  32  33
ATOM     33  C   UNL     1       2.236  -4.315   3.564  0.00  0.00    -0.030 A 
ATOM     34  C   UNL     1       3.338  -4.181   4.388  0.00  0.00    +0.005 A 
ATOM     35  C   UNL     1       3.295  -4.664   5.683  0.00  0.00    +0.000 A 
ATOM     36  C   UNL     1       2.154  -5.290   6.150  0.00  0.00    +0.000 A 
ATOM     37  C   UNL     1       1.055  -5.429   5.323  0.00  0.00    +0.000 A 
ATOM     38  C   UNL     1       1.096  -4.941   4.030  0.00  0.00    +0.005 A 
ENDBRANCH  32  33
ENDBRANCH  30  32
ENDBRANCH   2  28
TORSDOF 6
