REMARK  Name = ZINC21408833
REMARK  6 active torsions:
REMARK  status: ('A' for Active; 'I' for Inactive)
REMARK    1  A    between atoms: C_1  and  C_2
REMARK    2  A    between atoms: C_5  and  N_8
REMARK    3  A    between atoms: C_9  and  C_29
REMARK    4  A    between atoms: C_11  and  C_16
REMARK    5  A    between atoms: N_18  and  N_19
REMARK    6  A    between atoms: C_20  and  C_22
REMARK                            x       y       z     vdW  Elec       q    Type
REMARK                         _______ _______ _______ _____ _____    ______ ____
ROOT
ATOM      1  N   UNL     1      -2.266  -0.435  -0.789  0.00  0.00    -0.263 N 
ATOM      2  C   UNL     1      -1.163  -0.983   0.009  0.00  0.00    +0.130 C 
ATOM      3  C   UNL     1      -1.723  -1.131   1.441  0.00  0.00    +0.111 C 
ATOM      4  C   UNL     1      -2.843  -0.065   1.453  0.00  0.00    +0.111 C 
ATOM      5  C   UNL     1      -3.222   0.092  -0.003  0.00  0.00    +0.221 C 
ATOM      6  O   UNL     1      -4.239   0.617  -0.404  0.00  0.00    -0.275 OA
ENDROOT
BRANCH   1  11
ATOM      7  C   UNL     1      -2.473  -0.528  -6.457  0.00  0.00    +0.044 C 
ATOM      8  C   UNL     1      -2.418  -0.503  -4.951  0.00  0.00    -0.050 A 
ATOM      9  C   UNL     1      -1.282  -0.939  -4.295  0.00  0.00    +0.005 A 
ATOM     10  C   UNL     1      -1.228  -0.917  -2.915  0.00  0.00    +0.024 A 
ATOM     11  C   UNL     1      -2.317  -0.458  -2.187  0.00  0.00    +0.037 A 
ATOM     12  C   UNL     1      -3.460  -0.027  -2.849  0.00  0.00    +0.024 A 
ATOM     13  C   UNL     1      -3.505  -0.046  -4.229  0.00  0.00    +0.005 A 
ENDBRANCH   1  11
BRANCH   2  14
ATOM     14  C   UNL     1       0.007  -0.033   0.002  0.00  0.00    +0.011 A 
ATOM     15  C   UNL     1       1.334  -0.312  -0.011  0.00  0.00    +0.013 A 
ATOM     16  C   UNL     1       2.239   0.733  -0.015  0.00  0.00    +0.008 A 
ATOM     17  C   UNL     1       1.773   2.006  -0.004  0.00  0.00    +0.045 A 
ATOM     18  S   UNL     1       0.006   1.753   0.011  0.00  0.00    -0.100 S 
ENDBRANCH   2  14
BRANCH   3  19
ATOM     19  C   UNL     1      -2.288  -2.511   1.658  0.00  0.00    +0.235 C 
ATOM     20  O   UNL     1      -2.259  -3.326   0.761  0.00  0.00    -0.274 OA
ATOM     21  N   UNL     1      -2.827  -2.838   2.850  0.00  0.00    -0.234 N 
ATOM     22  H   UNL     1      -2.853  -2.098   3.663  0.00  0.00    +0.173 HD
BRANCH  21  23
ATOM     23  N   UNL     1      -3.353  -4.121   3.052  0.00  0.00    -0.229 N 
ATOM     24  C   UNL     1      -3.891  -4.448   4.243  0.00  0.00    +0.276 C 
ATOM     25  O   UNL     1      -3.920  -3.630   5.143  0.00  0.00    -0.267 OA
ATOM     26  H   UNL     1      -3.326  -4.861   2.238  0.00  0.00    +0.173 HD
BRANCH  24  27
ATOM     27  C   UNL     1      -4.442  -5.791   4.455  0.00  0.00    +0.104 A 
ATOM     28  C   UNL     1      -5.014  -6.263   5.617  0.00  0.00    +0.047 A 
ATOM     29  C   UNL     1      -5.402  -7.585   5.377  0.00  0.00    +0.036 A 
ATOM     30  C   UNL     1      -5.060  -7.894   4.102  0.00  0.00    +0.098 A 
ATOM     31  N   UNL     1      -4.476  -6.811   3.532  0.00  0.00    -0.356 N 
ATOM     32  H   UNL     1      -4.063  -6.655   2.524  0.00  0.00    +0.166 HD
ATOM     33 BR   UNL     1      -6.247  -8.740   6.613  0.00  0.00    -0.049 Br
ENDBRANCH  24  27
ENDBRANCH  21  23
ENDBRANCH   3  19
TORSDOF 5
