REMARK  Name = ZINC44713571
REMARK  4 active torsions:
REMARK  status: ('A' for Active; 'I' for Inactive)
REMARK    1  A    between atoms: C_8  and  C_11
REMARK    2  A    between atoms: C_11  and  N_12
REMARK    3  A    between atoms: C_13  and  C_15
REMARK    4  A    between atoms: C_26  and  C_28
REMARK                            x       y       z     vdW  Elec       q    Type
REMARK                         _______ _______ _______ _____ _____    ______ ____
ROOT
ATOM      1  C   UNL     1       5.140  -5.256  -3.042  0.00  0.00    +0.100 C 
ATOM      2  C   UNL     1       3.905  -5.628  -3.892  0.00  0.00    +0.121 C 
ATOM      3  N   UNL     1       4.375  -6.719  -4.778  0.00  0.00    -0.297 N 
ATOM      4  C   UNL     1       5.257  -7.540  -3.915  0.00  0.00    +0.115 C 
ATOM      5  C   UNL     1       6.025  -6.513  -3.059  0.00  0.00    -0.004 C 
ATOM      6  C   UNL     1       7.376  -6.200  -3.696  0.00  0.00    -0.010 C 
ATOM      7  C   UNL     1       8.258  -7.451  -3.651  0.00  0.00    -0.082 C 
ATOM      8  N   UNL     1       8.438  -7.874  -2.257  0.00  0.00    +0.379 N 
ATOM      9  C   UNL     1       7.145  -8.262  -1.680  0.00  0.00    -0.082 C 
ATOM     10  C   UNL     1       6.216  -7.046  -1.642  0.00  0.00    -0.010 C 
ATOM     11  C   UNL     1       4.069  -6.919  -6.075  0.00  0.00    +0.260 C 
ATOM     12  O   UNL     1       3.400  -6.103  -6.673  0.00  0.00    -0.271 OA
ATOM     13  H   UNL     1       9.069  -8.661  -2.224  0.00  0.00    -0.086 HD
ATOM     14  H   UNL     1       8.828  -7.112  -1.722  0.00  0.00    -0.086 HD
ENDROOT
BRANCH  11  15
ATOM     15  C   UNL     1       4.558  -8.156  -6.782  0.00  0.00    +0.296 C 
ATOM     16  C   UNL     1       3.860  -9.394  -6.203  0.00  0.00    +0.283 C 
ATOM     17  O   UNL     1       4.336 -10.547  -6.905  0.00  0.00    -0.484 OA
ATOM     18  C   UNL     1       4.388 -10.458  -8.263  0.00  0.00    +0.162 A 
ATOM     19  C   UNL     1       4.484 -11.618  -9.017  0.00  0.00    +0.049 A 
ATOM     20  C   UNL     1       4.540 -11.544 -10.396  0.00  0.00    +0.004 A 
ATOM     21  C   UNL     1       4.501 -10.315 -11.027  0.00  0.00    +0.004 A 
ATOM     22  C   UNL     1       4.403  -9.155 -10.281  0.00  0.00    +0.049 A 
ATOM     23  C   UNL     1       4.345  -9.223  -8.897  0.00  0.00    +0.163 A 
ATOM     24  O   UNL     1       4.242  -8.072  -8.176  0.00  0.00    -0.473 OA
ENDBRANCH  11  15
BRANCH   1  26
ATOM     25  N   UNL     1       5.524  -4.164  -0.855  0.00  0.00    -0.309 N 
ATOM     26  C   UNL     1       4.726  -4.925  -1.631  0.00  0.00    +0.219 C 
ATOM     27  O   UNL     1       3.675  -5.343  -1.193  0.00  0.00    -0.275 OA
ATOM     28  H   UNL     1       6.364  -3.829  -1.205  0.00  0.00    +0.149 HD
BRANCH  25  29
ATOM     29  C   UNL     1       5.122  -3.843   0.516  0.00  0.00    +0.157 C 
BRANCH  29  37
ATOM     30  C   UNL     1       9.087   0.069   2.969  0.00  0.00    +0.001 A 
ATOM     31  C   UNL     1       9.764  -1.096   3.303  0.00  0.00    +0.002 A 
ATOM     32  C   UNL     1       9.256  -2.329   2.955  0.00  0.00    +0.026 A 
ATOM     33  C   UNL     1       8.053  -2.409   2.262  0.00  0.00    +0.047 A 
ATOM     34  C   UNL     1       7.370  -1.226   1.926  0.00  0.00    -0.000 A 
ATOM     35  C   UNL     1       7.904   0.012   2.288  0.00  0.00    +0.010 A 
ATOM     36  C   UNL     1       6.161  -1.645   1.213  0.00  0.00    +0.032 A 
ATOM     37  C   UNL     1       6.180  -2.986   1.163  0.00  0.00    +0.034 A 
ATOM     38  N   UNL     1       7.303  -3.461   1.784  0.00  0.00    -0.357 N 
ATOM     39  H   UNL     1       7.536  -4.398   1.875  0.00  0.00    +0.166 HD
ENDBRANCH  29  37
ENDBRANCH  25  29
ENDBRANCH   1  26
TORSDOF 4
