REMARK  Name = ZINC14070278
REMARK  7 active torsions:
REMARK  status: ('A' for Active; 'I' for Inactive)
REMARK    1  A    between atoms: C_3  and  S_23
REMARK    2  A    between atoms: C_6  and  N_7
REMARK    3  A    between atoms: C_8  and  C_10
REMARK    4  A    between atoms: C_10  and  C_11
REMARK    5  A    between atoms: C_11  and  N_12
REMARK    6  A    between atoms: S_23  and  N_26
REMARK    7  A    between atoms: N_26  and  C_27
REMARK                            x       y       z     vdW  Elec       q    Type
REMARK                         _______ _______ _______ _____ _____    ______ ____
ROOT
ATOM      1  C   UNL     1       6.217  -1.824  -1.209  0.00  0.00    +0.025 A 
ATOM      2  C   UNL     1       4.893  -2.060  -1.525  0.00  0.00    +0.030 A 
ATOM      3  C   UNL     1       4.048  -2.629  -0.590  0.00  0.00    +0.109 A 
ATOM      4  C   UNL     1       4.524  -2.958   0.666  0.00  0.00    +0.030 A 
ATOM      5  C   UNL     1       5.848  -2.729   0.987  0.00  0.00    +0.025 A 
ATOM      6  C   UNL     1       6.699  -2.158   0.050  0.00  0.00    +0.033 A 
ENDROOT
BRANCH   6   7
ATOM      7  N   UNL     1       8.039  -1.920   0.373  0.00  0.00    -0.285 N 
ATOM      8  C   UNL     1       8.680  -0.855  -0.148  0.00  0.00    +0.219 C 
ATOM      9  O   UNL     1       8.070  -0.051  -0.821  0.00  0.00    -0.275 OA
ATOM     10  H   UNL     1       8.508  -2.522   0.972  0.00  0.00    +0.155 HD
BRANCH   8  11
ATOM     11  C   UNL     1      10.153  -0.663   0.105  0.00  0.00    +0.115 C 
BRANCH  11  12
ATOM     12  C   UNL     1      10.628   0.613  -0.593  0.00  0.00    +0.127 C 
BRANCH  12  13
ATOM     13  N   UNL     1      12.060   0.799  -0.346  0.00  0.00    -0.224 N 
ATOM     14  C   UNL     1      13.037   0.306  -1.137  0.00  0.00    +0.247 C 
ATOM     15  O   UNL     1      12.905  -0.351  -2.147  0.00  0.00    -0.273 OA
ATOM     16  C   UNL     1      14.329   0.746  -0.496  0.00  0.00    +0.113 C 
ATOM     17  C   UNL     1      15.150   1.621  -1.452  0.00  0.00    +0.035 C 
ATOM     18  C   UNL     1      16.620   1.245  -1.134  0.00  0.00    +0.003 C 
ATOM     19  C   UNL     1      16.536  -0.278  -0.860  0.00  0.00    +0.003 C 
ATOM     20  C   UNL     1      15.196  -0.455  -0.112  0.00  0.00    +0.035 C 
ATOM     21  N   UNL     1      13.911   1.503   0.686  0.00  0.00    -0.285 N 
ATOM     22  C   UNL     1      12.563   1.486   0.688  0.00  0.00    +0.309 C 
ATOM     23  O   UNL     1      11.881   2.029   1.535  0.00  0.00    -0.252 OA
ATOM     24  H   UNL     1      14.489   1.935   1.335  0.00  0.00    +0.151 HD
ENDBRANCH  12  13
ENDBRANCH  11  12
ENDBRANCH   8  11
ENDBRANCH   6   7
BRANCH   3  25
ATOM     25  S   UNL     1       2.361  -2.929  -0.997  0.00  0.00    +0.072 S 
ATOM     26  O   UNL     1       2.065  -2.118  -2.126  0.00  0.00    -0.150 OA
ATOM     27  O   UNL     1       1.628  -2.841   0.217  0.00  0.00    -0.150 OA
BRANCH  25  28
ATOM     28  N   UNL     1       2.251  -4.502  -1.503  0.00  0.00    -0.216 N 
ATOM     29  H   UNL     1       1.698  -5.131  -1.014  0.00  0.00    +0.174 HD
BRANCH  28  30
ATOM     30  C   UNL     1       2.955  -4.923  -2.634  0.00  0.00    +0.048 A 
ATOM     31  C   UNL     1       3.679  -6.108  -2.603  0.00  0.00    +0.026 A 
ATOM     32  C   UNL     1       4.374  -6.521  -3.722  0.00  0.00    +0.022 A 
ATOM     33  C   UNL     1       4.350  -5.755  -4.875  0.00  0.00    +0.041 A 
ATOM     34  C   UNL     1       3.630  -4.574  -4.909  0.00  0.00    +0.022 A 
ATOM     35  C   UNL     1       2.933  -4.156  -3.792  0.00  0.00    +0.026 A 
ATOM     36 CL   UNL     1       5.226  -6.278  -6.280  0.00  0.00    -0.084 Cl
ENDBRANCH  28  30
ENDBRANCH  25  28
ENDBRANCH   3  25
TORSDOF 7
