REMARK  Name = ZINC09129726
REMARK  5 active torsions:
REMARK  status: ('A' for Active; 'I' for Inactive)
REMARK    1  A    between atoms: C_16  and  C_18
REMARK    2  A    between atoms: C_18  and  C_19
REMARK    3  A    between atoms: C_19  and  C_20
REMARK    4  A    between atoms: N_25  and  C_28
REMARK    5  A    between atoms: C_28  and  C_29
REMARK                            x       y       z     vdW  Elec       q    Type
REMARK                         _______ _______ _______ _____ _____    ______ ____
ROOT
ATOM      1  C   UNL     1       3.959  -4.107  -0.623  0.00  0.00    +0.002 A 
ATOM      2  C   UNL     1       2.861  -3.274  -0.497  0.00  0.00    +0.004 A 
ATOM      3  C   UNL     1       2.776  -2.126  -1.251  0.00  0.00    -0.026 A 
ATOM      4  C   UNL     1       3.788  -1.787  -2.143  0.00  0.00    +0.054 A 
ATOM      5  C   UNL     1       4.891  -2.630  -2.265  0.00  0.00    +0.062 A 
ATOM      6  C   UNL     1       4.971  -3.782  -1.508  0.00  0.00    +0.022 A 
ATOM      7 CL   UNL     1       6.167  -2.232  -3.373  0.00  0.00    -0.082 Cl
ATOM      8  N   UNL     1       3.483  -0.585  -2.788  0.00  0.00    -0.285 N 
ATOM      9  C   UNL     1       2.303  -0.077  -2.381  0.00  0.00    +0.211 C 
ATOM     10  O   UNL     1       1.788   0.952  -2.763  0.00  0.00    -0.277 OA
ATOM     11  C   UNL     1       1.750  -1.033  -1.359  0.00  0.00    +0.050 C 
ATOM     12  C   UNL     1       1.519  -0.341  -0.010  0.00  0.00    +0.088 C 
ATOM     13  C   UNL     1       0.002  -0.004   0.002  0.00  0.00    +0.073 C 
ATOM     14  C   UNL     1      -0.526  -0.510  -1.358  0.00  0.00    -0.057 C 
ATOM     15  C   UNL     1      -0.018   1.508   0.010  0.00  0.00    +0.224 C 
ATOM     16  O   UNL     1      -1.017   2.195   0.019  0.00  0.00    -0.275 OA
ATOM     17  N   UNL     1       1.237   1.970   0.001  0.00  0.00    -0.239 N 
ATOM     18  C   UNL     1       2.179   1.019  -0.013  0.00  0.00    +0.225 C 
ATOM     19  O   UNL     1       3.374   1.218  -0.024  0.00  0.00    -0.275 OA
ATOM     20  H   UNL     1       4.053  -0.166  -3.450  0.00  0.00    +0.155 HD
ATOM     21  N   UNL     1       0.445  -1.530  -1.757  0.00  0.00    +0.394 N 
ATOM     22  H   UNL     1       0.243  -2.418  -1.281  0.00  0.00    -0.083 HD
ATOM     23  H   UNL     1       0.414  -1.672  -2.773  0.00  0.00    -0.083 HD
ENDROOT
BRANCH  14  24
ATOM     24  C   UNL     1      -1.928  -1.101  -1.197  0.00  0.00    -0.006 C 
BRANCH  24  25
ATOM     25  C   UNL     1      -2.481  -1.481  -2.572  0.00  0.00    +0.094 C 
BRANCH  25  26
ATOM     26  C   UNL     1      -3.862  -2.064  -2.414  0.00  0.00    +0.210 C 
ATOM     27  O   UNL     1      -4.355  -2.165  -1.311  0.00  0.00    -0.276 OA
ATOM     28  N   UNL     1      -4.549  -2.472  -3.500  0.00  0.00    -0.329 N 
ATOM     29  H   UNL     1      -4.155  -2.391  -4.382  0.00  0.00    +0.145 HD
ATOM     30  H   UNL     1      -5.438  -2.847  -3.398  0.00  0.00    +0.145 HD
ENDBRANCH  25  26
ENDBRANCH  24  25
ENDBRANCH  14  24
BRANCH  17  31
ATOM     31  C   UNL     1       1.555   3.400   0.004  0.00  0.00    +0.148 C 
BRANCH  31  32
ATOM     32  C   UNL     1       1.680   3.891   1.447  0.00  0.00    +0.136 C 
ATOM     33  C   UNL     1       1.901   5.419   1.463  0.00  0.00    +0.035 C 
ATOM     34  C   UNL     1       2.936   5.591   2.608  0.00  0.00    +0.031 C 
ATOM     35  C   UNL     1       3.766   4.292   2.450  0.00  0.00    +0.160 C 
ATOM     36  O   UNL     1       2.816   3.283   2.071  0.00  0.00    -0.375 OA
ENDBRANCH  31  32
ENDBRANCH  17  31
TORSDOF 5
