REMARK  Name = ZINC15884927
REMARK  4 active torsions:
REMARK  status: ('A' for Active; 'I' for Inactive)
REMARK    1  A    between atoms: C_3  and  C_7
REMARK    2  A    between atoms: N_9  and  C_10
REMARK    3  A    between atoms: C_10  and  C_11
REMARK    4  A    between atoms: N_13  and  N_14
REMARK                            x       y       z     vdW  Elec       q    Type
REMARK                         _______ _______ _______ _____ _____    ______ ____
ROOT
ATOM      1  C   UNL     1       7.224   0.972  -0.062  0.00  0.00    +0.249 C 
ATOM      2  O   UNL     1       6.957  -0.211  -0.066  0.00  0.00    -0.272 OA
ATOM      3  N   UNL     1       8.511   1.372  -0.073  0.00  0.00    -0.205 N 
ATOM      4  H   UNL     1       8.724   2.318  -0.070  0.00  0.00    +0.177 HD
ENDROOT
BRANCH   3   5
ATOM      5  N   UNL     1       9.540   0.422  -0.088  0.00  0.00    -0.174 NA
ATOM      6  C   UNL     1      10.791   0.811  -0.098  0.00  0.00    +0.153 C 
ATOM      7  C   UNL     1      12.002  -0.043  -0.120  0.00  0.00    +0.030 A 
ATOM      8  C   UNL     1      12.195  -1.420  -0.136  0.00  0.00    +0.027 A 
ATOM      9  C   UNL     1      13.478  -1.932  -0.155  0.00  0.00    +0.020 A 
ATOM     10  C   UNL     1      14.567  -1.075  -0.159  0.00  0.00    +0.032 A 
ATOM     11  C   UNL     1      14.384   0.294  -0.144  0.00  0.00    +0.041 A 
ATOM     12  C   UNL     1      13.099   0.827  -0.125  0.00  0.00    +0.057 A 
ATOM     13  N   UNL     1      12.645   2.142  -0.107  0.00  0.00    -0.279 N 
ATOM     14  C   UNL     1      11.302   2.197  -0.097  0.00  0.00    +0.269 C 
ATOM     15  O   UNL     1      10.627   3.209  -0.085  0.00  0.00    -0.268 OA
ATOM     16 BR   UNL     1      15.884   1.446  -0.149  0.00  0.00    -0.048 Br
ATOM     17 BR   UNL     1      13.748  -3.803  -0.176  0.00  0.00    -0.050 Br
ATOM     18  H   UNL     1      13.224   2.920  -0.107  0.00  0.00    +0.155 HD
ENDBRANCH   3   5
BRANCH   1  19
ATOM     19  C   UNL     1       6.117   1.994  -0.047  0.00  0.00    +0.202 C 
BRANCH  19  22
ATOM     20  C   UNL     1       3.680   2.028  -0.023  0.00  0.00    +0.246 C 
ATOM     21  O   UNL     1       3.727   3.243  -0.017  0.00  0.00    -0.270 OA
ATOM     22  N   UNL     1       4.821   1.310  -0.037  0.00  0.00    -0.303 N 
ATOM     23  H   UNL     1       4.784   0.341  -0.042  0.00  0.00    +0.150 HD
BRANCH  20  26
ATOM     24  C   UNL     1      -0.017   1.379   0.010  0.00  0.00    +0.020 A 
ATOM     25  C   UNL     1       1.181   2.073   0.002  0.00  0.00    +0.016 A 
ATOM     26  C   UNL     1       2.373   1.339  -0.013  0.00  0.00    +0.055 A 
ATOM     27  C   UNL     1       2.306  -0.055  -0.020  0.00  0.00    +0.123 A 
ATOM     28  N   UNL     1       1.141  -0.670  -0.013  0.00  0.00    -0.263 NA
ATOM     29  C   UNL     1       0.002  -0.004   0.002  0.00  0.00    +0.111 A 
ENDBRANCH  20  26
ENDBRANCH  19  22
ENDBRANCH   1  19
TORSDOF 4
