REMARK  Name = ZINC22575479
REMARK  7 active torsions:
REMARK  status: ('A' for Active; 'I' for Inactive)
REMARK    1  A    between atoms: C_3  and  N_32
REMARK    2  A    between atoms: C_6  and  C_7
REMARK    3  A    between atoms: C_7  and  S_8
REMARK    4  A    between atoms: S_8  and  C_9
REMARK    5  A    between atoms: C_14  and  C_24
REMARK    6  A    between atoms: C_27  and  O_31
REMARK    7  A    between atoms: C_28  and  O_30
REMARK                            x       y       z     vdW  Elec       q    Type
REMARK                         _______ _______ _______ _____ _____    ______ ____
ROOT
ATOM      1  C   UNL     1      -3.334  -1.974  -1.519  0.00  0.00    +0.211 A 
ATOM      2  N   UNL     1      -3.902  -2.319  -0.354  0.00  0.00    -0.187 NA
ATOM      3  C   UNL     1      -5.005  -2.978  -0.586  0.00  0.00    +0.219 A 
ATOM      4  N   UNL     1      -5.170  -3.065  -1.929  0.00  0.00    -0.220 N 
ATOM      5  N   UNL     1      -4.084  -2.410  -2.508  0.00  0.00    -0.141 NA
ATOM      6  C   UNL     1      -6.307  -3.727  -2.555  0.00  0.00    +0.176 C 
ATOM      7  C   UNL     1      -7.046  -4.565  -1.534  0.00  0.00    +0.041 C 
ATOM      8  C   UNL     1      -6.827  -4.437  -0.208  0.00  0.00    +0.020 C 
ATOM      9  N   UNL     1      -5.918  -3.537   0.293  0.00  0.00    -0.287 N 
ATOM     10  C   UNL     1      -7.575  -5.292   0.787  0.00  0.00    +0.052 C 
ATOM     11  C   UNL     1      -8.963  -5.629   0.238  0.00  0.00    +0.014 C 
ATOM     12  C   UNL     1      -8.788  -6.359  -1.098  0.00  0.00    +0.080 C 
ATOM     13  C   UNL     1      -7.982  -5.492  -2.026  0.00  0.00    +0.163 C 
ATOM     14  O   UNL     1      -8.143  -5.596  -3.226  0.00  0.00    -0.292 OA
ATOM     15  H   UNL     1      -5.916  -3.300   1.233  0.00  0.00    +0.155 HD
ENDROOT
BRANCH   6  16
ATOM     16  C   UNL     1      -7.243  -2.689  -3.118  0.00  0.00    -0.015 A 
ATOM     17  C   UNL     1      -7.815  -1.749  -2.281  0.00  0.00    +0.010 A 
ATOM     18  C   UNL     1      -8.674  -0.795  -2.792  0.00  0.00    +0.049 A 
ATOM     19  C   UNL     1      -8.964  -0.778  -4.147  0.00  0.00    +0.158 A 
ATOM     20  C   UNL     1      -8.387  -1.723  -4.990  0.00  0.00    +0.159 A 
ATOM     21  C   UNL     1      -7.523  -2.674  -4.472  0.00  0.00    +0.055 A 
BRANCH  20  22
ATOM     22  O   UNL     1      -8.668  -1.711  -6.321  0.00  0.00    -0.503 OA
ATOM     23  H   UNL     1      -8.065  -1.166  -6.845  0.00  0.00    +0.292 HD
ENDBRANCH  20  22
BRANCH  19  24
ATOM     24  O   UNL     1      -9.809   0.160  -4.652  0.00  0.00    -0.503 OA
ATOM     25  H   UNL     1      -9.369   0.973  -4.937  0.00  0.00    +0.292 HD
ENDBRANCH  19  24
ENDBRANCH   6  16
BRANCH   1  26
ATOM     26  S   UNL     1      -1.828  -1.075  -1.697  0.00  0.00    -0.080 S 
BRANCH  26  27
ATOM     27  C   UNL     1      -1.293  -0.775   0.010  0.00  0.00    +0.112 C 
BRANCH  27  33
ATOM     28  C   UNL     1      -0.017   1.378   0.010  0.00  0.00    +0.007 A 
ATOM     29  C   UNL     1       1.171   2.086   0.002  0.00  0.00    +0.033 A 
ATOM     30  C   UNL     1       2.377   1.411  -0.013  0.00  0.00    +0.126 A 
ATOM     31  C   UNL     1       2.396   0.029  -0.020  0.00  0.00    +0.033 A 
ATOM     32  C   UNL     1       1.208  -0.679  -0.012  0.00  0.00    +0.007 A 
ATOM     33  C   UNL     1       0.002  -0.004   0.002  0.00  0.00    -0.037 A 
BRANCH  30  34
ATOM     34  N   UNL     1       3.649   2.168  -0.022  0.00  0.00    +0.056 N 
ATOM     35  O   UNL     1       3.633   3.377  -0.016  0.00  0.00    -0.126 OA
ATOM     36  O   UNL     1       4.704   1.578  -0.035  0.00  0.00    -0.126 OA
ENDBRANCH  30  34
ENDBRANCH  27  33
ENDBRANCH  26  27
ENDBRANCH   1  26
TORSDOF 7
