REMARK  Name = ZINC08569252
REMARK  11 active torsions:
REMARK  status: ('A' for Active; 'I' for Inactive)
REMARK    1  A    between atoms: C_1  and  C_2
REMARK    2  A    between atoms: C_2  and  O_3
REMARK    3  A    between atoms: O_3  and  C_4
REMARK    4  A    between atoms: C_6  and  C_18
REMARK    5  A    between atoms: C_9  and  O_10
REMARK    6  A    between atoms: O_10  and  C_11
REMARK    7  A    between atoms: C_11  and  C_13
REMARK    8  A    between atoms: C_21  and  C_32
REMARK    9  A    between atoms: C_27  and  N_31
REMARK   10  A    between atoms: C_28  and  C_29
REMARK   11  A    between atoms: C_35  and  C_38
REMARK                            x       y       z     vdW  Elec       q    Type
REMARK                         _______ _______ _______ _____ _____    ______ ____
ROOT
ATOM      1  C   UNL     1       0.258  -4.781   0.036  0.00  0.00    +0.102 C 
ATOM      2  C   UNL     1       0.237  -5.934  -0.933  0.00  0.00    +0.054 A 
ATOM      3  C   UNL     1       0.376  -5.923  -2.324  0.00  0.00    +0.100 A 
ATOM      4  N   UNL     1       0.290  -7.169  -2.751  0.00  0.00    -0.171 NA
ATOM      5  N   UNL     1       0.095  -8.004  -1.639  0.00  0.00    -0.246 N 
ATOM      6  H   UNL     1      -0.003  -8.969  -1.661  0.00  0.00    +0.192 HD
ATOM      7  C   UNL     1       0.066  -7.229  -0.536  0.00  0.00    +0.223 A 
ATOM      8  O   UNL     1      -0.097  -7.580   0.764  0.00  0.00    -0.423 OA
ATOM      9  C   UNL     1       0.186  -6.653   1.702  0.00  0.00    +0.200 C 
ATOM     10  C   UNL     1       0.366  -5.340   1.433  0.00  0.00    +0.098 C 
ENDROOT
BRANCH   3  11
ATOM     11  C   UNL     1       0.582  -4.723  -3.172  0.00  0.00    +0.003 A 
ATOM     12  C   UNL     1      -0.107  -4.589  -4.375  0.00  0.00    +0.010 A 
ATOM     13  C   UNL     1       0.089  -3.470  -5.159  0.00  0.00    +0.004 A 
ATOM     14  C   UNL     1       0.968  -2.483  -4.753  0.00  0.00    -0.050 A 
ATOM     15  C   UNL     1       1.655  -2.611  -3.559  0.00  0.00    +0.004 A 
ATOM     16  C   UNL     1       1.462  -3.722  -2.764  0.00  0.00    +0.010 A 
ATOM     17  C   UNL     1       1.177  -1.264  -5.613  0.00  0.00    +0.044 C 
ENDBRANCH   3  11
BRANCH   1  20
ATOM     18  C   UNL     1      -2.122  -1.887  -0.454  0.00  0.00    +0.163 A 
ATOM     19  C   UNL     1      -0.953  -2.623  -0.332  0.00  0.00    +0.054 A 
ATOM     20  C   UNL     1      -1.014  -3.983  -0.095  0.00  0.00    -0.031 A 
ATOM     21  C   UNL     1      -2.239  -4.614   0.021  0.00  0.00    +0.008 A 
ATOM     22  C   UNL     1      -3.408  -3.886  -0.099  0.00  0.00    +0.050 A 
ATOM     23  C   UNL     1      -3.355  -2.521  -0.331  0.00  0.00    +0.173 A 
BRANCH  18  24
ATOM     24  O   UNL     1      -2.064  -0.549  -0.687  0.00  0.00    -0.489 OA
BRANCH  24  26
ATOM     25  C   UNL     1      -0.899   1.535  -1.061  0.00  0.00    +0.048 C 
ATOM     26  C   UNL     1      -0.764   0.034  -0.802  0.00  0.00    +0.226 C 
ENDBRANCH  24  26
ENDBRANCH  18  24
BRANCH  23  27
ATOM     27  O   UNL     1      -4.504  -1.803  -0.443  0.00  0.00    -0.418 OA
BRANCH  27  28
ATOM     28  C   UNL     1      -4.942  -1.498  -1.682  0.00  0.00    +0.351 C 
ATOM     29  O   UNL     1      -4.364  -1.940  -2.657  0.00  0.00    -0.244 OA
BRANCH  28  30
ATOM     30  C   UNL     1      -6.113  -0.637  -1.853  0.00  0.00    +0.097 A 
ATOM     31  C   UNL     1      -6.722  -0.212  -3.025  0.00  0.00    +0.022 A 
ATOM     32  C   UNL     1      -7.819   0.601  -2.866  0.00  0.00    +0.008 A 
ATOM     33  C   UNL     1      -8.223   0.926  -1.613  0.00  0.00    +0.046 A 
ATOM     34  S   UNL     1      -7.133   0.133  -0.610  0.00  0.00    -0.090 S 
ENDBRANCH  28  30
ENDBRANCH  27  28
ENDBRANCH  23  27
ENDBRANCH   1  20
BRANCH   9  35
ATOM     35  N   UNL     1       0.299  -7.066   3.006  0.00  0.00    -0.328 N 
ATOM     36  H   UNL     1       0.177  -8.002   3.231  0.00  0.00    +0.145 HD
ATOM     37  H   UNL     1       0.502  -6.423   3.703  0.00  0.00    +0.145 HD
ENDBRANCH   9  35
BRANCH  10  38
ATOM     38  C   UNL     1       0.668  -4.448   2.512  0.00  0.00    +0.101 C 
ATOM     39  N   UNL     1       0.908  -3.741   3.368  0.00  0.00    -0.191 NA
ENDBRANCH  10  38
TORSDOF 9
