REMARK  Name = ZINC13545175
REMARK  12 active torsions:
REMARK  status: ('A' for Active; 'I' for Inactive)
REMARK    1  A    between atoms: C_1  and  C_2
REMARK    2  A    between atoms: C_2  and  C_4
REMARK    3  A    between atoms: C_2  and  N_10
REMARK    4  A    between atoms: N_10  and  C_11
REMARK    5  A    between atoms: C_11  and  N_13
REMARK    6  A    between atoms: N_13  and  N_14
REMARK    7  A    between atoms: N_14  and  S_15
REMARK    8  A    between atoms: S_15  and  C_18
REMARK    9  A    between atoms: C_21  and  C_24
REMARK   10  A    between atoms: C_24  and  C_25
REMARK   11  A    between atoms: C_24  and  C_26
REMARK   12  A    between atoms: C_24  and  C_27
REMARK                            x       y       z     vdW  Elec       q    Type
REMARK                         _______ _______ _______ _____ _____    ______ ____
ROOT
ATOM      1  N   UNL     1      -3.924  -1.457   0.078  0.00  0.00    -0.109 NA
ATOM      2  H   UNL     1      -3.498  -2.097   0.669  0.00  0.00    +0.172 HD
ENDROOT
BRANCH   1   3
ATOM      3  S   UNL     1      -5.373  -0.776   0.502  0.00  0.00    +0.074 S 
ATOM      4  O   UNL     1      -5.795  -1.428   1.692  0.00  0.00    -0.152 OA
ATOM      5  O   UNL     1      -5.198   0.632   0.425  0.00  0.00    -0.152 OA
BRANCH   3   6
ATOM      6  C   UNL     1      -6.537  -1.208  -0.748  0.00  0.00    +0.107 A 
ATOM      7  C   UNL     1      -6.704  -0.390  -1.850  0.00  0.00    +0.029 A 
ATOM      8  C   UNL     1      -7.617  -0.729  -2.830  0.00  0.00    +0.006 A 
ATOM      9  C   UNL     1      -8.365  -1.885  -2.709  0.00  0.00    -0.042 A 
ATOM     10  C   UNL     1      -8.198  -2.704  -1.607  0.00  0.00    +0.006 A 
ATOM     11  C   UNL     1      -7.281  -2.367  -0.629  0.00  0.00    +0.029 A 
BRANCH   9  12
ATOM     12  C   UNL     1      -9.361  -2.254  -3.778  0.00  0.00    -0.013 C 
ATOM     13  C   UNL     1      -8.637  -2.420  -5.115  0.00  0.00    +0.015 C 
ATOM     14  C   UNL     1     -10.048  -3.568  -3.402  0.00  0.00    +0.015 C 
ATOM     15  C   UNL     1     -10.410  -1.147  -3.900  0.00  0.00    +0.015 C 
ENDBRANCH   9  12
ENDBRANCH   3   6
ENDBRANCH   1   3
BRANCH   1  16
ATOM     16  N   UNL     1      -3.315  -1.109  -1.135  0.00  0.00    -0.243 N 
ATOM     17  H   UNL     1      -3.804  -1.204  -1.968  0.00  0.00    +0.170 HD
BRANCH  16  18
ATOM     18  C   UNL     1      -2.051  -0.643  -1.145  0.00  0.00    +0.146 C 
ATOM     19  S   UNL     1      -1.307  -0.217  -2.627  0.00  0.00    -0.018 S 
BRANCH  18  20
ATOM     20  N   UNL     1      -1.372  -0.511   0.012  0.00  0.00    -0.319 N 
ATOM     21  H   UNL     1      -1.794  -0.752   0.852  0.00  0.00    +0.148 HD
BRANCH  20  23
ATOM     22  C   UNL     1      -0.019   1.526   0.010  0.00  0.00    +0.033 C 
ATOM     23  C   UNL     1       0.002  -0.004   0.002  0.00  0.00    +0.099 C 
BRANCH  23  24
ATOM     24  C   UNL     1       0.731  -0.503   1.223  0.00  0.00    -0.028 A 
ATOM     25  C   UNL     1       0.081  -0.558   2.442  0.00  0.00    +0.005 A 
ATOM     26  C   UNL     1       0.749  -1.016   3.562  0.00  0.00    +0.000 A 
ATOM     27  C   UNL     1       2.068  -1.420   3.463  0.00  0.00    +0.000 A 
ATOM     28  C   UNL     1       2.718  -1.365   2.244  0.00  0.00    +0.000 A 
ATOM     29  C   UNL     1       2.048  -0.911   1.123  0.00  0.00    +0.005 A 
ENDBRANCH  23  24
ENDBRANCH  20  23
ENDBRANCH  18  20
ENDBRANCH  16  18
ENDBRANCH   1  16
TORSDOF 8
