REMARK  Name = ZINC35734534
REMARK  5 active torsions:
REMARK  status: ('A' for Active; 'I' for Inactive)
REMARK    1  A    between atoms: C_1  and  C_2
REMARK    2  A    between atoms: C_2  and  C_4
REMARK    3  A    between atoms: C_2  and  N_10
REMARK    4  A    between atoms: N_10  and  C_11
REMARK    5  A    between atoms: C_16  and  N_17
REMARK                            x       y       z     vdW  Elec       q    Type
REMARK                         _______ _______ _______ _____ _____    ______ ____
ROOT
ATOM      1  C   UNL     1      -2.079  -0.648  -1.192  0.00  0.00    +0.050 A 
ATOM      2  C   UNL     1      -1.474  -0.309  -2.393  0.00  0.00    +0.051 A 
ATOM      3  C   UNL     1      -2.174  -0.445  -3.581  0.00  0.00    +0.078 A 
ATOM      4  C   UNL     1      -3.483  -0.922  -3.570  0.00  0.00    +0.144 A 
ATOM      5  C   UNL     1      -4.088  -1.261  -2.372  0.00  0.00    +0.072 A 
ATOM      6  C   UNL     1      -3.386  -1.131  -1.182  0.00  0.00    +0.049 A 
ATOM      7  O   UNL     1      -4.158  -1.049  -4.745  0.00  0.00    -0.481 OA
ATOM      8  C   UNL     1      -3.856  -0.095  -5.767  0.00  0.00    +0.325 C 
ATOM      9  C   UNL     1      -2.361   0.053  -5.894  0.00  0.00    +0.255 C 
ATOM     10  O   UNL     1      -1.864   0.315  -6.970  0.00  0.00    -0.272 OA
ATOM     11  N   UNL     1      -1.577  -0.108  -4.806  0.00  0.00    -0.280 N 
ATOM     12  H   UNL     1      -0.616   0.008  -4.870  0.00  0.00    +0.155 HD
ENDROOT
BRANCH   6  13
ATOM     13  N   UNL     1      -3.995  -1.479   0.032  0.00  0.00    -0.356 N 
ATOM     14  H   UNL     1      -3.506  -1.384   0.865  0.00  0.00    +0.142 HD
ATOM     15  H   UNL     1      -4.905  -1.815   0.039  0.00  0.00    +0.142 HD
ENDBRANCH   6  13
BRANCH   1  16
ATOM     16  N   UNL     1      -1.372  -0.511   0.012  0.00  0.00    -0.337 N 
ATOM     17  H   UNL     1      -1.794  -0.752   0.852  0.00  0.00    +0.146 HD
BRANCH  16  19
ATOM     18  C   UNL     1      -0.019   1.526   0.010  0.00  0.00    +0.030 C 
ATOM     19  C   UNL     1       0.002  -0.004   0.002  0.00  0.00    +0.096 C 
BRANCH  19  20
ATOM     20  C   UNL     1       0.742  -0.511   1.242  0.00  0.00    +0.138 C 
ATOM     21  C   UNL     1       2.224  -0.061   1.204  0.00  0.00    +0.035 C 
ATOM     22  C   UNL     1       2.576  -0.081   2.717  0.00  0.00    +0.031 C 
ATOM     23  C   UNL     1       1.245   0.351   3.369  0.00  0.00    +0.160 C 
ATOM     24  O   UNL     1       0.196   0.087   2.428  0.00  0.00    -0.375 OA
ENDBRANCH  19  20
ENDBRANCH  16  19
ENDBRANCH   1  16
TORSDOF 4
