REMARK  Name = ZINC12571103
REMARK  12 active torsions:
REMARK  status: ('A' for Active; 'I' for Inactive)
REMARK    1  A    between atoms: C_1  and  C_2
REMARK    2  A    between atoms: C_5  and  O_9
REMARK    3  A    between atoms: O_9  and  C_10
REMARK    4  A    between atoms: C_10  and  C_11
REMARK    5  A    between atoms: N_13  and  C_14
REMARK    6  A    between atoms: C_14  and  N_16
REMARK    7  A    between atoms: N_16  and  N_17
REMARK    8  A    between atoms: C_18  and  C_20
REMARK    9  A    between atoms: C_20  and  C_21
REMARK   10  A    between atoms: C_21  and  C_22
REMARK   11  A    between atoms: N_24  and  C_25
REMARK   12  A    between atoms: C_25  and  C_26
REMARK                            x       y       z     vdW  Elec       q    Type
REMARK                         _______ _______ _______ _____ _____    ______ ____
ROOT
ATOM      1  N   UNL     1      -0.211  11.519  -5.971  0.00  0.00    -0.246 N 
ATOM      2  H   UNL     1      -0.210  10.893  -6.712  0.00  0.00    +0.172 HD
ENDROOT
BRANCH   1   3
ATOM      3  N   UNL     1      -0.193  11.045  -4.653  0.00  0.00    -0.235 N 
ATOM      4  C   UNL     1      -0.172   9.719  -4.414  0.00  0.00    +0.230 C 
ATOM      5  O   UNL     1      -0.170   8.936  -5.340  0.00  0.00    -0.274 OA
ATOM      6  H   UNL     1      -0.194  11.671  -3.912  0.00  0.00    +0.173 HD
BRANCH   4   7
ATOM      7  C   UNL     1      -0.152   9.209  -2.996  0.00  0.00    +0.106 C 
BRANCH   7   8
ATOM      8  C   UNL     1      -0.131   7.679  -3.004  0.00  0.00    +0.105 C 
BRANCH   8   9
ATOM      9  C   UNL     1      -0.111   7.169  -1.586  0.00  0.00    +0.214 C 
ATOM     10  O   UNL     1      -0.113   7.952  -0.660  0.00  0.00    -0.276 OA
ATOM     11  N   UNL     1      -0.090   5.843  -1.347  0.00  0.00    -0.311 N 
ATOM     12  H   UNL     1      -0.089   5.216  -2.088  0.00  0.00    +0.149 HD
BRANCH  11  13
ATOM     13  C   UNL     1      -0.070   5.347   0.031  0.00  0.00    +0.139 C 
BRANCH  13  14
ATOM     14  C   UNL     1      -0.050   3.840   0.023  0.00  0.00    -0.030 A 
ATOM     15  C   UNL     1       1.156   3.165   0.008  0.00  0.00    +0.005 A 
ATOM     16  C   UNL     1       1.175   1.783   0.000  0.00  0.00    +0.000 A 
ATOM     17  C   UNL     1      -0.013   1.076   0.008  0.00  0.00    +0.000 A 
ATOM     18  C   UNL     1      -1.219   1.751   0.017  0.00  0.00    +0.000 A 
ATOM     19  C   UNL     1      -1.238   3.133   0.030  0.00  0.00    +0.005 A 
ENDBRANCH  13  14
ENDBRANCH  11  13
ENDBRANCH   8   9
ENDBRANCH   7   8
ENDBRANCH   4   7
ENDBRANCH   1   3
BRANCH   1  20
ATOM     20  C   UNL     1      -0.232  12.845  -6.210  0.00  0.00    +0.153 C 
ATOM     21  S   UNL     1      -0.255  13.425  -7.821  0.00  0.00    -0.017 S 
BRANCH  20  24
ATOM     22  C   UNL     1      -0.254  15.042  -5.420  0.00  0.00    +0.256 C 
ATOM     23  O   UNL     1      -0.271  15.452  -6.560  0.00  0.00    -0.272 OA
ATOM     24  N   UNL     1      -0.234  13.716  -5.181  0.00  0.00    -0.264 N 
ATOM     25  H   UNL     1      -0.221  13.387  -4.268  0.00  0.00    +0.157 HD
BRANCH  22  26
ATOM     26  C   UNL     1      -0.257  16.015  -4.269  0.00  0.00    +0.325 C 
BRANCH  26  27
ATOM     27  O   UNL     1      -0.280  17.351  -4.775  0.00  0.00    -0.482 OA
BRANCH  27  32
ATOM     28  C   UNL     1      -0.298  21.520  -0.986  0.00  0.00    +0.044 C 
ATOM     29  C   UNL     1      -0.293  20.405  -2.000  0.00  0.00    -0.049 A 
ATOM     30  C   UNL     1      -0.272  19.088  -1.578  0.00  0.00    +0.007 A 
ATOM     31  C   UNL     1      -0.268  18.064  -2.505  0.00  0.00    +0.047 A 
ATOM     32  C   UNL     1      -0.285  18.357  -3.861  0.00  0.00    +0.135 A 
ATOM     33  C   UNL     1      -0.301  19.679  -4.282  0.00  0.00    +0.060 A 
ATOM     34  C   UNL     1      -0.310  20.700  -3.350  0.00  0.00    +0.022 A 
ATOM     35 BR   UNL     1      -0.317  20.084  -6.130  0.00  0.00    -0.047 Br
ENDBRANCH  27  32
ENDBRANCH  26  27
ENDBRANCH  22  26
ENDBRANCH  20  24
ENDBRANCH   1  20
TORSDOF 11
