REMARK  Name = ZINC32933160
REMARK  8 active torsions:
REMARK  status: ('A' for Active; 'I' for Inactive)
REMARK    1  A    between atoms: C_1  and  C_2
REMARK    2  A    between atoms: C_4  and  N_20
REMARK    3  A    between atoms: C_6  and  C_7
REMARK    4  A    between atoms: N_9  and  N_10
REMARK    5  A    between atoms: C_11  and  C_13
REMARK    6  A    between atoms: C_15  and  C_19
REMARK    7  A    between atoms: C_17  and  C_18
REMARK    8  A    between atoms: C_21  and  C_23
REMARK                            x       y       z     vdW  Elec       q    Type
REMARK                         _______ _______ _______ _____ _____    ______ ____
ROOT
ATOM      1  C   UNL     1       8.265   5.294  -0.049  0.00  0.00    +0.045 C 
ATOM      2  C   UNL     1       8.740   3.864  -0.062  0.00  0.00    -0.029 A 
ATOM      3  C   UNL     1      10.074   3.556  -0.076  0.00  0.00    +0.035 A 
ATOM      4  C   UNL     1      10.449   2.229  -0.086  0.00  0.00    +0.073 A 
ATOM      5  S   UNL     1       8.932   1.391  -0.070  0.00  0.00    -0.069 S 
ATOM      6  C   UNL     1       7.843   2.805  -0.059  0.00  0.00    +0.080 A 
ENDROOT
BRANCH   6   7
ATOM      7  C   UNL     1       6.382   2.839  -0.044  0.00  0.00    +0.267 C 
ATOM      8  O   UNL     1       5.798   3.907  -0.033  0.00  0.00    -0.268 OA
ATOM      9  N   UNL     1       5.681   1.688  -0.044  0.00  0.00    -0.230 N 
ATOM     10  H   UNL     1       6.209   0.722  -0.055  0.00  0.00    +0.173 HD
BRANCH   9  11
ATOM     11  N   UNL     1       4.281   1.720  -0.030  0.00  0.00    -0.230 N 
ATOM     12  C   UNL     1       3.580   0.569  -0.029  0.00  0.00    +0.263 C 
ATOM     13  O   UNL     1       4.163  -0.498  -0.041  0.00  0.00    -0.269 OA
ATOM     14  H   UNL     1       3.753   2.685  -0.019  0.00  0.00    +0.173 HD
BRANCH  12  15
ATOM     15  C   UNL     1       2.107   0.603  -0.015  0.00  0.00    +0.079 A 
ATOM     16  C   UNL     1       1.246   1.795  -0.000  0.00  0.00    +0.057 A 
ATOM     17  C   UNL     1      -0.016   1.338   0.009  0.00  0.00    +0.103 A 
ATOM     18  O   UNL     1       0.002  -0.004   0.002  0.00  0.00    -0.464 OA
ATOM     19  C   UNL     1       1.257  -0.464  -0.012  0.00  0.00    +0.114 A 
ATOM     20  C   UNL     1       1.664  -1.915  -0.025  0.00  0.00    +0.087 C 
ATOM     21  C   UNL     1      -1.256   2.195   0.020  0.00  0.00    +0.086 C 
ENDBRANCH  12  15
ENDBRANCH   9  11
ENDBRANCH   6   7
BRANCH   4  22
ATOM     22  N   UNL     1      11.730   1.695  -0.101  0.00  0.00    -0.276 N 
ATOM     23  C   UNL     1      11.903   0.358  -0.110  0.00  0.00    +0.250 C 
ATOM     24  O   UNL     1      10.936  -0.380  -0.104  0.00  0.00    -0.270 OA
ATOM     25  H   UNL     1      12.605   2.362  -0.106  0.00  0.00    +0.156 HD
BRANCH  23  26
ATOM     26  C   UNL     1      13.265  -0.211  -0.125  0.00  0.00    +0.055 A 
ATOM     27  C   UNL     1      14.377   0.634  -0.131  0.00  0.00    +0.017 A 
ATOM     28  C   UNL     1      15.646   0.098  -0.146  0.00  0.00    +0.039 A 
ATOM     29  C   UNL     1      15.822  -1.278  -0.155  0.00  0.00    +0.125 A 
ATOM     30  C   UNL     1      14.723  -2.122  -0.149  0.00  0.00    +0.059 A 
ATOM     31  C   UNL     1      13.447  -1.597  -0.128  0.00  0.00    +0.056 A 
ATOM     32 CL   UNL     1      12.070  -2.655  -0.113  0.00  0.00    -0.083 Cl
ATOM     33  F   UNL     1      17.069  -1.797  -0.169  0.00  0.00    -0.205 F 
ENDBRANCH  23  26
ENDBRANCH   4  22
TORSDOF 5
