REMARK  Name = ZINC36093664
REMARK  4 active torsions:
REMARK  status: ('A' for Active; 'I' for Inactive)
REMARK    1  A    between atoms: C_4  and  C_7
REMARK    2  A    between atoms: N_9  and  N_10
REMARK    3  A    between atoms: C_11  and  C_12
REMARK    4  A    between atoms: C_17  and  O_18
REMARK                            x       y       z     vdW  Elec       q    Type
REMARK                         _______ _______ _______ _____ _____    ______ ____
ROOT
ATOM      1  N   UNL     1       6.060  -0.640  -0.465  0.00  0.00    -0.187 NA
ATOM      2  C   UNL     1       7.137   0.021  -0.166  0.00  0.00    +0.142 C 
ENDROOT
BRANCH   2   3
ATOM      3  C   UNL     1       7.118   1.494  -0.158  0.00  0.00    +0.038 A 
ATOM      4  C   UNL     1       5.921   2.180   0.067  0.00  0.00    +0.027 A 
ATOM      5  C   UNL     1       5.910   3.560   0.074  0.00  0.00    +0.015 A 
ATOM      6  C   UNL     1       7.081   4.268  -0.142  0.00  0.00    +0.032 A 
ATOM      7  C   UNL     1       8.271   3.601  -0.366  0.00  0.00    +0.056 A 
ATOM      8  C   UNL     1       8.300   2.216  -0.370  0.00  0.00    +0.139 A 
ATOM      9  I   UNL     1      10.033   4.686  -0.693  0.00  0.00    -0.040 I 
ATOM     10  I   UNL     1       4.116   4.587   0.411  0.00  0.00    -0.044 I 
BRANCH   8  11
ATOM     11  O   UNL     1       9.470   1.559  -0.585  0.00  0.00    -0.505 OA
ATOM     12  H   UNL     1       9.615   1.304  -1.506  0.00  0.00    +0.292 HD
ENDBRANCH   8  11
ENDBRANCH   2   3
BRANCH   1  15
ATOM     13  C   UNL     1       3.802  -0.636  -1.218  0.00  0.00    +0.283 C 
ATOM     14  O   UNL     1       3.718  -1.814  -0.930  0.00  0.00    -0.267 OA
ATOM     15  N   UNL     1       4.957   0.027  -1.012  0.00  0.00    -0.202 N 
ATOM     16  H   UNL     1       5.024   0.967  -1.242  0.00  0.00    +0.178 HD
BRANCH  13  20
ATOM     17  C   UNL     1       0.498   1.299  -2.841  0.00  0.00    +0.130 A 
ATOM     18  C   UNL     1       1.686   1.983  -2.628  0.00  0.00    +0.131 A 
ATOM     19  N   UNL     1       2.726   1.359  -2.113  0.00  0.00    -0.247 NA
ATOM     20  C   UNL     1       2.636   0.070  -1.796  0.00  0.00    +0.145 A 
ATOM     21  C   UNL     1       1.440  -0.615  -2.011  0.00  0.00    +0.143 A 
ATOM     22  N   UNL     1       0.403   0.019  -2.528  0.00  0.00    -0.259 NA
ENDBRANCH  13  20
ENDBRANCH   1  15
TORSDOF 4
