REMARK  Name = ZINC44963742
REMARK  11 active torsions:
REMARK  status: ('A' for Active; 'I' for Inactive)
REMARK    1  A    between atoms: C_1  and  C_2
REMARK    2  A    between atoms: C_2  and  C_4
REMARK    3  A    between atoms: C_2  and  C_10
REMARK    4  A    between atoms: C_4  and  C_5
REMARK    5  A    between atoms: C_5  and  C_6
REMARK    6  A    between atoms: C_6  and  C_7
REMARK    7  A    between atoms: C_7  and  C_8
REMARK    8  A    between atoms: C_7  and  C_9
REMARK    9  A    between atoms: C_16  and  C_35
REMARK   10  A    between atoms: C_27  and  C_34
REMARK   11  A    between atoms: C_30  and  O_33
REMARK                            x       y       z     vdW  Elec       q    Type
REMARK                         _______ _______ _______ _____ _____    ______ ____
ROOT
ATOM      1  C   UNL     1       0.519  -0.671  -1.254  0.00  0.00    -0.002 C 
ATOM      2  C   UNL     1       0.119  -2.155  -1.031  0.00  0.00    +0.004 C 
ATOM      3  C   UNL     1       1.437  -2.928  -0.744  0.00  0.00    +0.005 C 
ATOM      4  C   UNL     1       2.400  -1.794  -0.347  0.00  0.00    +0.006 C 
ATOM      5  C   UNL     1       2.054  -0.723  -1.399  0.00  0.00    -0.025 C 
ATOM      6  C   UNL     1       2.807   0.545  -1.117  0.00  0.00    +0.007 C 
ATOM      7  C   UNL     1       4.295   0.280  -0.856  0.00  0.00    +0.005 C 
ATOM      8  C   UNL     1       4.713  -1.161  -1.087  0.00  0.00    +0.010 C 
ATOM      9  C   UNL     1       3.864  -2.154  -0.312  0.00  0.00    +0.067 C 
ATOM     10  C   UNL     1       4.304  -2.147   1.143  0.00  0.00    +0.160 C 
ATOM     11  O   UNL     1       3.485  -2.147   2.043  0.00  0.00    -0.292 OA
ATOM     12  C   UNL     1       5.736  -2.143   1.434  0.00  0.00    +0.046 C 
ATOM     13  C   UNL     1       6.609  -1.765   0.503  0.00  0.00    -0.058 C 
ATOM     14  C   UNL     1       6.210  -1.341  -0.873  0.00  0.00    -0.007 C 
ATOM     15  C   UNL     1       6.941  -0.051  -1.257  0.00  0.00    +0.014 C 
ATOM     16  C   UNL     1       8.442  -0.176  -1.004  0.00  0.00    +0.032 C 
ATOM     17  C   UNL     1       8.697  -0.431   0.483  0.00  0.00    +0.119 C 
ATOM     18  C   UNL     1       8.081  -1.775   0.876  0.00  0.00    +0.062 C 
ATOM     19  C   UNL     1       6.658  -2.438  -1.848  0.00  0.00    +0.016 C 
ATOM     20  C   UNL     1       2.312  -1.205  -2.834  0.00  0.00    +0.012 C 
ENDROOT
BRANCH   1  22
ATOM     21  C   UNL     1      -1.447   0.141   0.045  0.00  0.00    +0.008 C 
ATOM     22  C   UNL     1       0.078   0.177  -0.069  0.00  0.00    -0.010 C 
BRANCH  22  23
ATOM     23  C   UNL     1       0.698  -0.380   1.215  0.00  0.00    +0.003 C 
BRANCH  23  24
ATOM     24  C   UNL     1       0.045   0.288   2.427  0.00  0.00    +0.001 C 
BRANCH  24  25
ATOM     25  C   UNL     1       0.665  -0.269   3.711  0.00  0.00    +0.003 C 
BRANCH  25  26
ATOM     26  C   UNL     1       0.013   0.399   4.923  0.00  0.00    -0.017 C 
ATOM     27  C   UNL     1      -1.465   0.009   4.986  0.00  0.00    +0.007 C 
ATOM     28  C   UNL     1       0.717  -0.064   6.200  0.00  0.00    +0.007 C 
ENDBRANCH  25  26
ENDBRANCH  24  25
ENDBRANCH  23  24
ENDBRANCH  22  23
ENDBRANCH   1  22
BRANCH  17  29
ATOM     29  O   UNL     1      10.106  -0.462   0.727  0.00  0.00    -0.391 OA
ATOM     30  H   UNL     1      10.342  -0.620   1.651  0.00  0.00    +0.210 HD
ENDBRANCH  17  29
TORSDOF 6
