REMARK  Name = ZINC46838949
REMARK  10 active torsions:
REMARK  status: ('A' for Active; 'I' for Inactive)
REMARK    1  A    between atoms: C_1  and  C_2
REMARK    2  A    between atoms: C_5  and  S_24
REMARK    3  A    between atoms: C_7  and  C_8
REMARK    4  A    between atoms: N_10  and  C_11
REMARK    5  A    between atoms: C_13  and  N_18
REMARK    6  A    between atoms: C_16  and  C_17
REMARK    7  A    between atoms: C_19  and  C_21
REMARK    8  A    between atoms: C_21  and  C_22
REMARK    9  A    between atoms: C_21  and  C_23
REMARK   10  A    between atoms: S_24  and  N_27
REMARK                            x       y       z     vdW  Elec       q    Type
REMARK                         _______ _______ _______ _____ _____    ______ ____
ROOT
ATOM      1  C   UNL     1      -0.977  -0.089   2.737  0.00  0.00    +0.249 C 
ATOM      2  O   UNL     1      -1.554   0.961   2.943  0.00  0.00    -0.270 OA
ATOM      3  N   UNL     1      -0.042  -0.525   3.605  0.00  0.00    -0.281 N 
ATOM      4  H   UNL     1       0.466  -1.328   3.408  0.00  0.00    +0.155 HD
ENDROOT
BRANCH   1  11
ATOM      5  C   UNL     1      -2.907   0.914   0.830  0.00  0.00    +0.044 C 
ATOM      6  C   UNL     1      -2.229  -0.414   0.609  0.00  0.00    -0.038 A 
ATOM      7  C   UNL     1      -2.522  -1.161  -0.513  0.00  0.00    +0.006 A 
ATOM      8  C   UNL     1      -1.901  -2.381  -0.717  0.00  0.00    +0.029 A 
ATOM      9  C   UNL     1      -0.982  -2.858   0.201  0.00  0.00    +0.106 A 
ATOM     10  C   UNL     1      -0.680  -2.121   1.326  0.00  0.00    +0.041 A 
ATOM     11  C   UNL     1      -1.300  -0.887   1.536  0.00  0.00    +0.042 A 
BRANCH   9  12
ATOM     12  S   UNL     1      -0.197  -4.412  -0.069  0.00  0.00    +0.056 S 
ATOM     13  O   UNL     1       0.214  -4.887   1.206  0.00  0.00    -0.153 OA
ATOM     14  O   UNL     1      -1.056  -5.159  -0.920  0.00  0.00    -0.153 OA
BRANCH  12  15
ATOM     15  N   UNL     1       1.186  -4.119  -0.932  0.00  0.00    -0.204 NA
ATOM     16  H   UNL     1       1.416  -3.211  -1.186  0.00  0.00    +0.144 HD
ATOM     17  H   UNL     1       1.766  -4.854  -1.184  0.00  0.00    +0.144 HD
ENDBRANCH  12  15
ENDBRANCH   9  12
ENDBRANCH   1  11
BRANCH   3  18
ATOM     18  C   UNL     1       0.196   0.179   4.789  0.00  0.00    +0.038 A 
ATOM     19  C   UNL     1       0.062   1.561   4.815  0.00  0.00    +0.047 A 
ATOM     20  C   UNL     1       0.298   2.256   5.992  0.00  0.00    +0.035 A 
ATOM     21  C   UNL     1       0.668   1.568   7.141  0.00  0.00    +0.024 A 
ATOM     22  C   UNL     1       0.801   0.193   7.112  0.00  0.00    +0.007 A 
ATOM     23  C   UNL     1       0.561  -0.503   5.943  0.00  0.00    -0.029 A 
ATOM     24  C   UNL     1       0.701  -2.003   5.918  0.00  0.00    +0.045 C 
BRANCH  20  25
ATOM     25  N   UNL     1       0.165   3.648   6.021  0.00  0.00    -0.285 N 
ATOM     26  C   UNL     1      -0.323   4.255   7.121  0.00  0.00    +0.220 C 
ATOM     27  O   UNL     1      -0.568   3.604   8.115  0.00  0.00    -0.275 OA
ATOM     28  H   UNL     1       0.423   4.177   5.250  0.00  0.00    +0.155 HD
BRANCH  26  29
ATOM     29  C   UNL     1      -0.564   5.743   7.117  0.00  0.00    +0.069 C 
ATOM     30  C   UNL     1      -1.575   6.093   6.023  0.00  0.00    +0.017 C 
ATOM     31  C   UNL     1      -1.115   6.174   8.478  0.00  0.00    +0.017 C 
ENDBRANCH  26  29
ENDBRANCH  20  25
ENDBRANCH   3  18
TORSDOF 6
