REMARK  Name = ZINC16694910
REMARK  9 active torsions:
REMARK  status: ('A' for Active; 'I' for Inactive)
REMARK    1  A    between atoms: C_1  and  C_2
REMARK    2  A    between atoms: C_2  and  C_3
REMARK    3  A    between atoms: C_3  and  C_28
REMARK    4  A    between atoms: N_6  and  C_10
REMARK    5  A    between atoms: C_10  and  C_11
REMARK    6  A    between atoms: C_17  and  C_19
REMARK    7  A    between atoms: C_22  and  C_25
REMARK    8  A    between atoms: C_25  and  C_26
REMARK    9  A    between atoms: C_25  and  C_27
REMARK                            x       y       z     vdW  Elec       q    Type
REMARK                         _______ _______ _______ _____ _____    ______ ____
ROOT
ATOM      1  C   UNL     1       2.908   1.439  -1.437  0.00  0.00    +0.237 C 
ATOM      2  O   UNL     1       2.150   1.685  -2.351  0.00  0.00    -0.274 OA
ATOM      3  N   UNL     1       4.167   1.033  -1.696  0.00  0.00    -0.262 N 
ATOM      4  C   UNL     1       4.596   0.896  -3.010  0.00  0.00    +0.188 A 
ATOM      5  N   UNL     1       3.936   1.105  -4.138  0.00  0.00    -0.125 NA
ATOM      6  N   UNL     1       4.474   0.939  -5.268  0.00  0.00    -0.140 NA
ATOM      7  C   UNL     1       5.734   0.533  -5.358  0.00  0.00    +0.134 A 
ATOM      8  S   UNL     1       6.146   0.397  -3.622  0.00  0.00    -0.030 S 
ATOM      9  H   UNL     1       4.773   0.836  -0.965  0.00  0.00    +0.157 HD
ENDROOT
BRANCH   7  10
ATOM     10  C   UNL     1       6.562   0.268  -6.553  0.00  0.00    +0.009 A 
ATOM     11  C   UNL     1       7.885  -0.153  -6.410  0.00  0.00    +0.011 A 
ATOM     12  C   UNL     1       8.652  -0.403  -7.529  0.00  0.00    +0.004 A 
ATOM     13  C   UNL     1       8.114  -0.228  -8.792  0.00  0.00    -0.045 A 
ATOM     14  C   UNL     1       6.805   0.194  -8.941  0.00  0.00    +0.004 A 
ATOM     15  C   UNL     1       6.027   0.443  -7.830  0.00  0.00    +0.011 A 
BRANCH  13  16
ATOM     16  C   UNL     1       8.959  -0.498 -10.011  0.00  0.00    +0.013 C 
ATOM     17  C   UNL     1      10.183   0.421  -9.997  0.00  0.00    +0.012 C 
ATOM     18  C   UNL     1       9.417  -1.957 -10.001  0.00  0.00    +0.012 C 
ENDBRANCH  13  16
ENDBRANCH   7  10
BRANCH   1  19
ATOM     19  C   UNL     1       2.443   1.587  -0.011  0.00  0.00    +0.214 C 
BRANCH  19  23
ATOM     20  C   UNL     1      -1.235   2.107   0.018  0.00  0.00    +0.138 C 
ATOM     21  C   UNL     1      -0.014   1.208   0.009  0.00  0.00    +0.251 C 
ATOM     22  O   UNL     1       0.002  -0.004   0.002  0.00  0.00    -0.272 OA
ATOM     23  N   UNL     1       1.048   2.037   0.003  0.00  0.00    -0.215 N 
ATOM     24  C   UNL     1       0.673   3.321   0.013  0.00  0.00    +0.310 C 
ATOM     25  O   UNL     1       1.453   4.253   0.010  0.00  0.00    -0.252 OA
ATOM     26  N   UNL     1      -0.664   3.465   0.026  0.00  0.00    -0.281 N 
ATOM     27  H   UNL     1      -1.157   4.301   0.035  0.00  0.00    +0.152 HD
BRANCH  20  28
ATOM     28  C   UNL     1      -2.067   1.885  -1.218  0.00  0.00    -0.015 A 
ATOM     29  C   UNL     1      -3.075   0.940  -1.213  0.00  0.00    +0.006 A 
ATOM     30  C   UNL     1      -3.841   0.740  -2.346  0.00  0.00    +0.000 A 
ATOM     31  C   UNL     1      -3.592   1.478  -3.488  0.00  0.00    +0.000 A 
ATOM     32  C   UNL     1      -2.580   2.420  -3.495  0.00  0.00    +0.000 A 
ATOM     33  C   UNL     1      -1.817   2.623  -2.361  0.00  0.00    +0.006 A 
ENDBRANCH  20  28
BRANCH  20  35
ATOM     34  C   UNL     1      -1.256   2.274   2.511  0.00  0.00    +0.007 C 
ATOM     35  C   UNL     1      -2.068   1.870   1.279  0.00  0.00    +0.037 C 
ENDBRANCH  20  35
ENDBRANCH  19  23
ENDBRANCH   1  19
TORSDOF 6
