REMARK  Name = ZINC23945590
REMARK  7 active torsions:
REMARK  status: ('A' for Active; 'I' for Inactive)
REMARK    1  A    between atoms: C_1  and  C_2
REMARK    2  A    between atoms: C_2  and  C_24
REMARK    3  A    between atoms: N_5  and  N_9
REMARK    4  A    between atoms: C_10  and  C_12
REMARK    5  A    between atoms: C_12  and  N_13
REMARK    6  A    between atoms: C_24  and  C_25
REMARK    7  A    between atoms: C_25  and  C_26
REMARK                            x       y       z     vdW  Elec       q    Type
REMARK                         _______ _______ _______ _____ _____    ______ ____
ROOT
ATOM      1  C   UNL     1      -0.013   1.086   0.008  0.00  0.00    +0.041 C 
ATOM      2  C   UNL     1      -0.729   1.579   1.267  0.00  0.00    +0.112 C 
ATOM      3  C   UNL     1      -0.654   3.090   1.365  0.00  0.00    +0.263 C 
ATOM      4  O   UNL     1      -1.103   3.898   0.580  0.00  0.00    -0.271 OA
ATOM      5  N   UNL     1       0.015   3.349   2.506  0.00  0.00    -0.137 N 
ATOM      6  C   UNL     1       0.371   2.223   3.135  0.00  0.00    +0.326 C 
ATOM      7  O   UNL     1       0.984   2.200   4.184  0.00  0.00    -0.251 OA
ATOM      8  N   UNL     1      -0.026   1.119   2.477  0.00  0.00    -0.284 N 
ATOM      9  H   UNL     1       0.078   0.042   2.676  0.00  0.00    +0.151 HD
ENDROOT
BRANCH   5  10
ATOM     10  N   UNL     1       0.304   4.637   2.974  0.00  0.00    -0.222 N 
ATOM     11  C   UNL     1       1.556   5.127   2.870  0.00  0.00    +0.247 C 
ATOM     12  O   UNL     1       2.432   4.452   2.372  0.00  0.00    -0.273 OA
ATOM     13  H   UNL     1      -0.490   5.249   3.426  0.00  0.00    +0.174 HD
BRANCH  11  14
ATOM     14  C   UNL     1       1.867   6.512   3.374  0.00  0.00    +0.211 C 
BRANCH  14  15
ATOM     15  N   UNL     1       3.284   6.808   3.148  0.00  0.00    -0.256 N 
ATOM     16  C   UNL     1       3.704   7.406   1.952  0.00  0.00    +0.079 A 
ATOM     17  C   UNL     1       2.792   8.016   1.107  0.00  0.00    +0.027 A 
ATOM     18  C   UNL     1       3.228   8.599  -0.069  0.00  0.00    +0.002 A 
ATOM     19  C   UNL     1       4.570   8.576  -0.401  0.00  0.00    +0.004 A 
ATOM     20  C   UNL     1       5.486   7.968   0.439  0.00  0.00    +0.047 A 
ATOM     21  C   UNL     1       5.057   7.383   1.617  0.00  0.00    +0.143 A 
ATOM     22  O   UNL     1       5.944   6.783   2.456  0.00  0.00    -0.481 OA
ATOM     23  C   UNL     1       5.654   6.853   3.855  0.00  0.00    +0.325 C 
ATOM     24  C   UNL     1       4.204   6.513   4.092  0.00  0.00    +0.258 C 
ATOM     25  O   UNL     1       3.867   5.971   5.124  0.00  0.00    -0.271 OA
ENDBRANCH  14  15
ENDBRANCH  11  14
ENDBRANCH   5  10
BRANCH   2  26
ATOM     26  C   UNL     1      -2.184   1.107   1.276  0.00  0.00    +0.040 C 
BRANCH  26  27
ATOM     27  C   UNL     1      -2.224  -0.420   1.358  0.00  0.00    +0.038 C 
BRANCH  27  28
ATOM     28  C   UNL     1      -3.657  -0.886   1.367  0.00  0.00    -0.047 A 
ATOM     29  C   UNL     1      -4.326  -1.041   2.567  0.00  0.00    +0.003 A 
ATOM     30  C   UNL     1      -5.642  -1.463   2.576  0.00  0.00    +0.000 A 
ATOM     31  C   UNL     1      -6.287  -1.740   1.385  0.00  0.00    +0.000 A 
ATOM     32  C   UNL     1      -5.617  -1.590   0.185  0.00  0.00    +0.000 A 
ATOM     33  C   UNL     1      -4.302  -1.163   0.176  0.00  0.00    +0.003 A 
ENDBRANCH  27  28
ENDBRANCH  26  27
ENDBRANCH   2  26
TORSDOF 6
