REMARK  Name = ZINC39674080
REMARK  6 active torsions:
REMARK  status: ('A' for Active; 'I' for Inactive)
REMARK    1  A    between atoms: C_1  and  C_2
REMARK    2  A    between atoms: C_4  and  C_12
REMARK    3  A    between atoms: C_12  and  C_13
REMARK    4  A    between atoms: C_13  and  N_14
REMARK    5  A    between atoms: C_15  and  C_17
REMARK    6  A    between atoms: C_28  and  C_30
REMARK                            x       y       z     vdW  Elec       q    Type
REMARK                         _______ _______ _______ _____ _____    ______ ____
ROOT
ATOM      1  C   UNL     1      -5.347   3.418   4.195  0.00  0.00    +0.100 C 
ATOM      2  C   UNL     1      -6.681   3.279   3.429  0.00  0.00    +0.121 C 
ATOM      3  N   UNL     1      -7.645   4.095   4.204  0.00  0.00    -0.296 N 
ATOM      4  C   UNL     1      -6.869   5.290   4.616  0.00  0.00    +0.115 C 
ATOM      5  C   UNL     1      -5.474   4.740   4.972  0.00  0.00    -0.004 C 
ATOM      6  C   UNL     1      -4.392   5.720   4.528  0.00  0.00    -0.010 C 
ATOM      7  C   UNL     1      -4.502   7.004   5.355  0.00  0.00    -0.082 C 
ATOM      8  N   UNL     1      -4.347   6.685   6.779  0.00  0.00    +0.379 N 
ATOM      9  C   UNL     1      -5.445   5.816   7.221  0.00  0.00    -0.082 C 
ATOM     10  C   UNL     1      -5.375   4.482   6.472  0.00  0.00    -0.010 C 
ATOM     11  C   UNL     1      -8.935   3.815   4.474  0.00  0.00    +0.248 C 
ATOM     12  O   UNL     1      -9.629   4.634   5.048  0.00  0.00    -0.270 OA
ATOM     13  H   UNL     1      -3.467   6.212   6.923  0.00  0.00    -0.086 HD
ATOM     14  H   UNL     1      -4.359   7.539   7.317  0.00  0.00    -0.086 HD
ENDROOT
BRANCH  11  15
ATOM     15  C   UNL     1      -9.505   2.522   4.076  0.00  0.00    +0.052 A 
ATOM     16  C   UNL     1      -9.106   1.902   2.935  0.00  0.00    +0.059 A 
ATOM     17  S   UNL     1      -9.992   0.480   2.866  0.00  0.00    -0.096 S 
ATOM     18  C   UNL     1     -10.944   0.631   4.353  0.00  0.00    +0.020 A 
ATOM     19  C   UNL     1     -10.516   1.856   4.901  0.00  0.00    +0.001 A 
ATOM     20  C   UNL     1     -11.101   2.258   6.116  0.00  0.00    +0.010 A 
ATOM     21  C   UNL     1     -12.044   1.470   6.728  0.00  0.00    +0.001 A 
ATOM     22  C   UNL     1     -12.444   0.265   6.170  0.00  0.00    +0.001 A 
ATOM     23  C   UNL     1     -11.895  -0.151   4.973  0.00  0.00    +0.015 A 
ENDBRANCH  11  15
BRANCH   1  25
ATOM     24  N   UNL     1      -2.976   3.038   3.600  0.00  0.00    -0.315 N 
ATOM     25  C   UNL     1      -4.192   3.486   3.229  0.00  0.00    +0.218 C 
ATOM     26  O   UNL     1      -4.357   3.944   2.118  0.00  0.00    -0.275 OA
ATOM     27  H   UNL     1      -2.844   2.672   4.488  0.00  0.00    +0.149 HD
BRANCH  24  28
ATOM     28  C   UNL     1      -1.854   3.104   2.661  0.00  0.00    +0.109 C 
BRANCH  28  29
ATOM     29  C   UNL     1      -0.598   2.537   3.326  0.00  0.00    +0.056 C 
BRANCH  29  33
ATOM     30  C   UNL     1       1.384   4.904   3.009  0.00  0.00    +0.063 C 
ATOM     31  C   UNL     1       1.418   3.623   2.216  0.00  0.00    +0.017 A 
ATOM     32  H   UNL     1       3.049   3.914   0.954  0.00  0.00    +0.166 HD
ATOM     33  C   UNL     1       0.556   2.604   2.360  0.00  0.00    -0.018 A 
ATOM     34  C   UNL     1       0.952   1.571   1.400  0.00  0.00    +0.003 A 
ATOM     35  C   UNL     1       0.456   0.306   1.077  0.00  0.00    +0.010 A 
ATOM     36  C   UNL     1       1.067  -0.434   0.104  0.00  0.00    +0.001 A 
ATOM     37  C   UNL     1       2.177   0.062  -0.566  0.00  0.00    +0.002 A 
ATOM     38  C   UNL     1       2.682   1.308  -0.264  0.00  0.00    +0.026 A 
ATOM     39  C   UNL     1       2.076   2.078   0.723  0.00  0.00    +0.047 A 
ATOM     40  N   UNL     1       2.330   3.329   1.239  0.00  0.00    -0.358 N 
ENDBRANCH  29  33
ENDBRANCH  28  29
ENDBRANCH  24  28
ENDBRANCH   1  25
TORSDOF 5
