REMARK  Name = ZINC59115172
REMARK  12 active torsions:
REMARK  status: ('A' for Active; 'I' for Inactive)
REMARK    1  A    between atoms: C_1  and  C_2
REMARK    2  A    between atoms: C_2  and  C_3
REMARK    3  A    between atoms: C_2  and  C_4
REMARK    4  A    between atoms: C_2  and  C_16
REMARK    5  A    between atoms: C_4  and  N_5
REMARK    6  A    between atoms: N_5  and  C_6
REMARK    7  A    between atoms: C_6  and  N_8
REMARK    8  A    between atoms: N_8  and  C_9
REMARK    9  A    between atoms: C_16  and  N_17
REMARK   10  A    between atoms: N_17  and  C_18
REMARK   11  A    between atoms: C_18  and  N_20
REMARK   12  A    between atoms: N_20  and  C_21
REMARK                            x       y       z     vdW  Elec       q    Type
REMARK                         _______ _______ _______ _____ _____    ______ ____
ROOT
ATOM      1  C   UNL     1       0.634   1.550  -0.023  0.00  0.00    +0.014 C 
ATOM      2  C   UNL     1       0.415   0.050   0.179  0.00  0.00    -0.004 C 
ATOM      3  C   UNL     1       0.765  -0.328   1.620  0.00  0.00    +0.014 C 
ENDROOT
BRANCH   2   4
ATOM      4  C   UNL     1      -1.051  -0.294  -0.096  0.00  0.00    +0.111 C 
BRANCH   4   5
ATOM      5  N   UNL     1      -1.909   0.454   0.827  0.00  0.00    -0.326 N 
ATOM      6  H   UNL     1      -1.513   1.052   1.480  0.00  0.00    +0.148 HD
BRANCH   5   7
ATOM      7  C   UNL     1      -3.248   0.309   0.769  0.00  0.00    +0.135 C 
ATOM      8  S   UNL     1      -3.945  -0.747  -0.384  0.00  0.00    -0.019 S 
BRANCH   7   9
ATOM      9  N   UNL     1      -4.037   0.997   1.618  0.00  0.00    -0.297 N 
ATOM     10  H   UNL     1      -3.640   1.544   2.314  0.00  0.00    +0.154 HD
BRANCH   9  11
ATOM     11  C   UNL     1      -5.429   0.921   1.496  0.00  0.00    +0.033 A 
ATOM     12  C   UNL     1      -6.045  -0.310   1.313  0.00  0.00    +0.025 A 
ATOM     13  C   UNL     1      -7.419  -0.382   1.194  0.00  0.00    +0.022 A 
ATOM     14  C   UNL     1      -8.182   0.771   1.255  0.00  0.00    +0.041 A 
ATOM     15  C   UNL     1      -7.570   1.999   1.437  0.00  0.00    +0.022 A 
ATOM     16  C   UNL     1      -6.197   2.076   1.562  0.00  0.00    +0.025 A 
ATOM     17 CL   UNL     1      -9.909   0.677   1.103  0.00  0.00    -0.084 Cl
ENDBRANCH   9  11
ENDBRANCH   7   9
ENDBRANCH   5   7
ENDBRANCH   4   5
ENDBRANCH   2   4
BRANCH   2  18
ATOM     18  C   UNL     1       1.311  -0.731  -0.785  0.00  0.00    +0.111 C 
BRANCH  18  19
ATOM     19  N   UNL     1       2.714  -0.402  -0.522  0.00  0.00    -0.326 N 
ATOM     20  H   UNL     1       2.941   0.228   0.180  0.00  0.00    +0.148 HD
BRANCH  19  21
ATOM     21  C   UNL     1       3.689  -0.975  -1.255  0.00  0.00    +0.135 C 
ATOM     22  S   UNL     1       3.288  -2.087  -2.494  0.00  0.00    -0.019 S 
BRANCH  21  23
ATOM     23  N   UNL     1       4.980  -0.673  -1.012  0.00  0.00    -0.297 N 
ATOM     24  H   UNL     1       5.213  -0.114  -0.254  0.00  0.00    +0.154 HD
BRANCH  23  25
ATOM     25  C   UNL     1       5.984  -1.165  -1.854  0.00  0.00    +0.033 A 
ATOM     26  C   UNL     1       5.773  -1.228  -3.225  0.00  0.00    +0.025 A 
ATOM     27  C   UNL     1       6.765  -1.713  -4.054  0.00  0.00    +0.022 A 
ATOM     28  C   UNL     1       7.969  -2.137  -3.519  0.00  0.00    +0.041 A 
ATOM     29  C   UNL     1       8.182  -2.075  -2.153  0.00  0.00    +0.022 A 
ATOM     30  C   UNL     1       7.195  -1.586  -1.321  0.00  0.00    +0.025 A 
ATOM     31 CL   UNL     1       9.214  -2.747  -4.564  0.00  0.00    -0.084 Cl
ENDBRANCH  23  25
ENDBRANCH  21  23
ENDBRANCH  19  21
ENDBRANCH  18  19
ENDBRANCH   2  18
TORSDOF 10
