REMARK  Name = ZINC44946590
REMARK  8 active torsions:
REMARK  status: ('A' for Active; 'I' for Inactive)
REMARK    1  A    between atoms: C_1  and  C_2
REMARK    2  A    between atoms: C_2  and  CA_3
REMARK    3  A    between atoms: CA_3  and  C_5
REMARK    4  A    between atoms: CA_3  and  N_7
REMARK    5  A    between atoms: C_5  and  O_6
REMARK    6  A    between atoms: N_10  and  C_11
REMARK    7  A    between atoms: C_11  and  C_12
REMARK    8  A    between atoms: C_22  and  C_25
REMARK                            x       y       z     vdW  Elec       q    Type
REMARK                         _______ _______ _______ _____ _____    ______ ____
ROOT
ATOM      1  C   UNL     1      -0.356   0.855   7.081  0.00  0.00    -0.014 A 
ATOM      2  C   UNL     1      -0.641   2.192   7.325  0.00  0.00    +0.010 A 
ATOM      3  C   UNL     1      -1.557   2.503   8.313  0.00  0.00    +0.042 A 
ATOM      4  C   UNL     1      -2.159   1.470   9.026  0.00  0.00    +0.099 A 
ATOM      5  N   UNL     1      -1.861   0.207   8.763  0.00  0.00    -0.349 N 
ATOM      6  C   UNL     1      -0.995  -0.118   7.822  0.00  0.00    +0.089 A 
ATOM      7  N   UNL     1      -3.082   1.768  10.022  0.00  0.00    -0.312 N 
ATOM      8  C   UNL     1      -3.829   0.701  10.706  0.00  0.00    +0.134 C 
ATOM      9  C   UNL     1      -3.696   0.910  12.219  0.00  0.00    +0.179 C 
ATOM     10  O   UNL     1      -4.067   2.252  12.542  0.00  0.00    -0.374 OA
ATOM     11  C   UNL     1      -3.231   3.250  11.951  0.00  0.00    +0.132 C 
ATOM     12  C   UNL     1      -3.336   3.159  10.428  0.00  0.00    +0.137 C 
ATOM     13  C   UNL     1      -3.682   4.636  12.416  0.00  0.00    +0.039 C 
ATOM     14  H   UNL     1      -2.293  -0.496   9.273  0.00  0.00    +0.167 HD
ENDROOT
BRANCH   1  15
ATOM     15  C   UNL     1       0.635   0.470   6.014  0.00  0.00    +0.142 C 
BRANCH  15  19
ATOM     16  N   UNL     1      -0.013  -0.193   2.456  0.00  0.00    -0.294 N 
ATOM     17  C   UNL     1       0.629  -0.041   3.631  0.00  0.00    +0.300 C 
ATOM     18  O   UNL     1       1.830  -0.215   3.695  0.00  0.00    -0.253 OA
ATOM     19  N   UNL     1      -0.062   0.305   4.736  0.00  0.00    -0.295 N 
ATOM     20  H   UNL     1      -0.971  -0.054   2.405  0.00  0.00    +0.151 HD
ATOM     21  H   UNL     1      -1.020   0.444   4.685  0.00  0.00    +0.151 HD
BRANCH  16  22
ATOM     22  CA  UNL     1       0.738  -0.569   1.255  0.00  0.00    +0.099 C 
BRANCH  22  24
ATOM     23  C   UNL     1      -0.055   1.442   0.002  0.00  0.00    +0.006 C 
ATOM     24  C   UNL     1      -0.014  -0.088   0.012  0.00  0.00    +0.021 C 
ENDBRANCH  22  24
BRANCH  22  25
ATOM     25  C   UNL     1       0.888  -2.091   1.203  0.00  0.00    +0.178 C 
BRANCH  25  26
ATOM     26  O   UNL     1      -0.399  -2.691   1.047  0.00  0.00    -0.393 OA
ATOM     27  H   UNL     1      -0.380  -3.657   1.006  0.00  0.00    +0.209 HD
ENDBRANCH  25  26
ENDBRANCH  22  25
ENDBRANCH  16  22
ENDBRANCH  15  19
ENDBRANCH   1  15
TORSDOF 6
