REMARK  Name = ZINC36500248
REMARK  14 active torsions:
REMARK  status: ('A' for Active; 'I' for Inactive)
REMARK    1  A    between atoms: C_1  and  C_2
REMARK    2  A    between atoms: C_2  and  C_3
REMARK    3  A    between atoms: C_3  and  C_4
REMARK    4  A    between atoms: C_4  and  N_5
REMARK    5  A    between atoms: C_6  and  C_8
REMARK    6  A    between atoms: C_8  and  C_10
REMARK    7  A    between atoms: C_8  and  N_19
REMARK    8  A    between atoms: C_11  and  O_18
REMARK    9  A    between atoms: C_13  and  O_17
REMARK   10  A    between atoms: C_15  and  O_16
REMARK   11  A    between atoms: N_19  and  C_20
REMARK   12  A    between atoms: C_20  and  C_21
REMARK   13  A    between atoms: C_26  and  C_28
REMARK   14  A    between atoms: C_31  and  O_34
REMARK                            x       y       z     vdW  Elec       q    Type
REMARK                         _______ _______ _______ _____ _____    ______ ____
ROOT
ATOM      1  C   UNL     1       1.741  -4.392  -3.511  0.00  0.00    +0.200 C 
ENDROOT
BRANCH   1   2
ATOM      2  C   UNL     1       0.612  -3.869  -4.361  0.00  0.00    +0.065 A 
ATOM      3  C   UNL     1      -0.592  -4.557  -4.414  0.00  0.00    +0.129 A 
ATOM      4  C   UNL     1      -1.631  -4.076  -5.197  0.00  0.00    +0.091 A 
ATOM      5  C   UNL     1      -1.467  -2.908  -5.926  0.00  0.00    +0.124 A 
ATOM      6  C   UNL     1      -0.264  -2.221  -5.873  0.00  0.00    +0.091 A 
ATOM      7  C   UNL     1       0.774  -2.699  -5.087  0.00  0.00    +0.129 A 
BRANCH   7   8
ATOM      8  O   UNL     1       1.951  -2.022  -5.031  0.00  0.00    -0.506 OA
ATOM      9  H   UNL     1       2.593  -2.294  -5.701  0.00  0.00    +0.292 HD
ENDBRANCH   7   8
BRANCH   5  10
ATOM     10  O   UNL     1      -2.485  -2.438  -6.694  0.00  0.00    -0.507 OA
ATOM     11  H   UNL     1      -3.079  -1.832  -6.231  0.00  0.00    +0.292 HD
ENDBRANCH   5  10
BRANCH   3  12
ATOM     12  O   UNL     1      -0.752  -5.701  -3.699  0.00  0.00    -0.506 OA
ATOM     13  H   UNL     1      -1.172  -5.571  -2.838  0.00  0.00    +0.292 HD
ENDBRANCH   3  12
ENDBRANCH   1   2
BRANCH   1  15
ATOM     14  N   UNL     1       0.729  -3.629  -1.386  0.00  0.00    -0.313 N 
ATOM     15  C   UNL     1       1.241  -4.643  -2.111  0.00  0.00    +0.238 C 
ATOM     16  O   UNL     1       1.299  -5.758  -1.638  0.00  0.00    -0.273 OA
ATOM     17  H   UNL     1       0.682  -2.737  -1.765  0.00  0.00    +0.149 HD
BRANCH  14  18
ATOM     18  C   UNL     1       0.243  -3.873  -0.026  0.00  0.00    +0.104 C 
BRANCH  18  19
ATOM     19  C   UNL     1      -0.282  -2.566   0.570  0.00  0.00    +0.018 C 
BRANCH  19  21
ATOM     20  C   UNL     1      -1.315  -1.514   2.587  0.00  0.00    +0.004 C 
ATOM     21  C   UNL     1      -0.790  -2.821   1.991  0.00  0.00    -0.002 C 
ENDBRANCH  19  21
ENDBRANCH  18  19
ENDBRANCH  14  18
ENDBRANCH   1  15
BRANCH   1  22
ATOM     22  N   UNL     1       2.244  -5.643  -4.082  0.00  0.00    -0.274 N 
ATOM     23  C   UNL     1       3.132  -6.388  -3.395  0.00  0.00    +0.248 C 
ATOM     24  O   UNL     1       3.649  -7.356  -3.920  0.00  0.00    -0.270 OA
BRANCH  23  25
ATOM     25  C   UNL     1       3.478  -6.030  -2.005  0.00  0.00    +0.037 A 
ATOM     26  C   UNL     1       3.273  -4.726  -1.547  0.00  0.00    +0.016 A 
ATOM     27  C   UNL     1       3.596  -4.396  -0.249  0.00  0.00    +0.046 A 
ATOM     28  C   UNL     1       4.126  -5.357   0.603  0.00  0.00    +0.117 A 
ATOM     29  C   UNL     1       4.332  -6.655   0.151  0.00  0.00    +0.046 A 
ATOM     30  C   UNL     1       4.005  -6.995  -1.143  0.00  0.00    +0.016 A 
BRANCH  28  31
ATOM     31  O   UNL     1       4.444  -5.028   1.881  0.00  0.00    -0.507 OA
ATOM     32  H   UNL     1       3.721  -5.151   2.510  0.00  0.00    +0.292 HD
ENDBRANCH  28  31
ENDBRANCH  23  25
BRANCH  22  33
ATOM     33  C   UNL     1       1.782  -6.085  -5.400  0.00  0.00    +0.183 C 
BRANCH  33  34
ATOM     34  C   UNL     1       2.785  -5.677  -6.447  0.00  0.00    +0.122 A 
ATOM     35  C   UNL     1       3.771  -6.451  -6.936  0.00  0.00    +0.046 A 
ATOM     36  C   UNL     1       4.467  -5.674  -7.890  0.00  0.00    +0.041 A 
ATOM     37  C   UNL     1       3.865  -4.471  -7.927  0.00  0.00    +0.195 A 
ATOM     38  O   UNL     1       2.844  -4.481  -7.056  0.00  0.00    -0.466 OA
ENDBRANCH  33  34
ENDBRANCH  22  33
ENDBRANCH   1  22
TORSDOF 13
