REMARK  Name = ZINC41023403
REMARK  10 active torsions:
REMARK  status: ('A' for Active; 'I' for Inactive)
REMARK    1  A    between atoms: C_1  and  C_2
REMARK    2  A    between atoms: C_2  and  C_3
REMARK    3  A    between atoms: C_3  and  S_4
REMARK    4  A    between atoms: S_4  and  C_5
REMARK    5  A    between atoms: C_10  and  C_27
REMARK    6  A    between atoms: C_12  and  C_16
REMARK    7  A    between atoms: C_13  and  C_15
REMARK    8  A    between atoms: N_18  and  C_19
REMARK    9  A    between atoms: C_23  and  C_26
REMARK   10  A    between atoms: C_24  and  C_25
REMARK                            x       y       z     vdW  Elec       q    Type
REMARK                         _______ _______ _______ _____ _____    ______ ____
ROOT
ATOM      1  C   UNL     1       2.548  -2.446  -2.379  0.00  0.00    +0.210 A 
ATOM      2  N   UNL     1       2.895  -1.804  -3.505  0.00  0.00    -0.187 NA
ATOM      3  C   UNL     1       3.103  -2.673  -4.456  0.00  0.00    +0.220 A 
ATOM      4  N   UNL     1       2.885  -3.912  -3.950  0.00  0.00    -0.217 N 
ATOM      5  N   UNL     1       2.537  -3.741  -2.611  0.00  0.00    -0.141 NA
ATOM      6  C   UNL     1       3.013  -5.138  -4.733  0.00  0.00    +0.213 C 
ATOM      7  C   UNL     1       3.695  -4.830  -6.039  0.00  0.00    +0.063 C 
ATOM      8  C   UNL     1       3.887  -3.581  -6.488  0.00  0.00    +0.018 C 
ATOM      9  N   UNL     1       3.483  -2.478  -5.777  0.00  0.00    -0.287 N 
ATOM     10  C   UNL     1       4.571  -3.382  -7.816  0.00  0.00    +0.061 C 
ATOM     11  H   UNL     1       3.464  -1.597  -6.182  0.00  0.00    +0.155 HD
ENDROOT
BRANCH   6  12
ATOM     12  C   UNL     1       3.832  -6.142  -3.963  0.00  0.00    +0.136 A 
ATOM     13  C   UNL     1       3.457  -7.398  -3.662  0.00  0.00    +0.048 A 
ATOM     14  C   UNL     1       4.522  -7.981  -2.936  0.00  0.00    +0.057 A 
ATOM     15  C   UNL     1       5.485  -7.045  -2.838  0.00  0.00    +0.170 A 
ATOM     16  O   UNL     1       5.064  -5.935  -3.466  0.00  0.00    -0.451 OA
ATOM     17 BR   UNL     1       7.150  -7.259  -1.968  0.00  0.00    -0.008 Br
ENDBRANCH   6  12
BRANCH   7  18
ATOM     18  C   UNL     1       4.154  -5.909  -6.831  0.00  0.00    +0.248 C 
ATOM     19  O   UNL     1       3.356  -6.614  -7.421  0.00  0.00    -0.270 OA
ATOM     20  N   UNL     1       5.475  -6.157  -6.931  0.00  0.00    -0.281 N 
ATOM     21  H   UNL     1       6.114  -5.549  -6.529  0.00  0.00    +0.155 HD
BRANCH  20  22
ATOM     22  C   UNL     1       5.924  -7.290  -7.616  0.00  0.00    +0.037 A 
ATOM     23  C   UNL     1       5.189  -7.796  -8.681  0.00  0.00    +0.023 A 
ATOM     24  C   UNL     1       5.635  -8.916  -9.355  0.00  0.00    +0.002 A 
ATOM     25  C   UNL     1       6.812  -9.533  -8.971  0.00  0.00    +0.004 A 
ATOM     26  C   UNL     1       7.545  -9.032  -7.912  0.00  0.00    -0.046 A 
ATOM     27  C   UNL     1       7.108  -7.909  -7.237  0.00  0.00    -0.026 A 
ATOM     28  C   UNL     1       7.911  -7.360  -6.087  0.00  0.00    +0.046 C 
ATOM     29  C   UNL     1       8.827  -9.708  -7.497  0.00  0.00    +0.044 C 
ENDBRANCH  20  22
ENDBRANCH   7  18
BRANCH   1  30
ATOM     30  S   UNL     1       2.175  -1.679  -0.838  0.00  0.00    -0.084 S 
BRANCH  30  31
ATOM     31  C   UNL     1       2.366   0.093  -1.171  0.00  0.00    +0.077 C 
BRANCH  31  33
ATOM     32  C   UNL     1       2.228   2.383  -0.179  0.00  0.00    +0.004 C 
ATOM     33  C   UNL     1       2.067   0.887   0.102  0.00  0.00    +0.008 C 
ENDBRANCH  31  33
ENDBRANCH  30  31
ENDBRANCH   1  30
TORSDOF 6
