REMARK  Name = ZINC39469635
REMARK  7 active torsions:
REMARK  status: ('A' for Active; 'I' for Inactive)
REMARK    1  A    between atoms: C_1  and  O_2
REMARK    2  A    between atoms: O_2  and  C_3
REMARK    3  A    between atoms: P_12  and  S_28
REMARK    4  A    between atoms: C_20  and  C_21
REMARK    5  A    between atoms: C_26  and  O_27
REMARK    6  A    between atoms: S_28  and  O_31
REMARK    7  A    between atoms: O_31  and  C_32
REMARK                            x       y       z     vdW  Elec       q    Type
REMARK                         _______ _______ _______ _____ _____    ______ ____
ROOT
ATOM      1  C   UNL     1       0.626  -0.618   1.041  0.00  0.00    +0.124 C 
ATOM      2  C   UNL     1       1.182   0.108   2.016  0.00  0.00    +0.023 C 
ATOM      3  C   UNL     1       1.854  -0.603   3.158  0.00  0.00    +0.019 C 
ATOM      4  C   UNL     1       1.931   0.280   4.399  0.00  0.00    -0.002 C 
ATOM      5  C   UNL     1       2.591  -0.503   5.543  0.00  0.00    -0.020 C 
ATOM      6  C   UNL     1       2.622   0.420   6.768  0.00  0.00    +0.158 C 
ATOM      7  O   UNL     1       3.312  -0.239   7.845  0.00  0.00    -0.301 OA
ATOM      8  P   UNL     1       2.854  -1.754   8.223  0.00  0.00    +0.431 P 
ATOM      9  O   UNL     1       1.640  -1.727   9.069  0.00  0.00    -0.246 OA
ATOM     10  N   UNL     1       2.528  -2.482   6.778  0.00  0.00    -0.271 NA
ATOM     11  N   UNL     1       1.852  -1.730   5.838  0.00  0.00    +0.398 N 
ATOM     12  C   UNL     1       1.743  -2.591   4.647  0.00  0.00    -0.046 C 
ATOM     13  C   UNL     1       1.039  -1.852   3.517  0.00  0.00    +0.005 C 
ATOM     14  C   UNL     1       0.886  -2.704   2.287  0.00  0.00    -0.013 C 
ATOM     15  C   UNL     1       0.688  -2.098   1.105  0.00  0.00    +0.023 C 
ATOM     16  H   UNL     1       2.793  -3.399   6.606  0.00  0.00    +0.113 HD
ATOM     17  H   UNL     1       0.930  -1.496   6.173  0.00  0.00    -0.055 HD
ENDROOT
BRANCH  15  18
ATOM     18  C   UNL     1       0.538  -2.906  -0.130  0.00  0.00    +0.027 A 
ATOM     19  C   UNL     1      -0.652  -3.585  -0.382  0.00  0.00    +0.012 A 
ATOM     20  C   UNL     1      -0.786  -4.335  -1.532  0.00  0.00    +0.001 A 
ATOM     21  C   UNL     1       0.257  -4.416  -2.438  0.00  0.00    +0.004 A 
ATOM     22  C   UNL     1       1.442  -3.747  -2.197  0.00  0.00    +0.046 A 
ATOM     23  C   UNL     1       1.589  -2.985  -1.049  0.00  0.00    +0.125 A 
BRANCH  23  24
ATOM     24  O   UNL     1       2.751  -2.322  -0.815  0.00  0.00    -0.506 OA
ATOM     25  H   UNL     1       3.405  -2.837  -0.323  0.00  0.00    +0.292 HD
ENDBRANCH  23  24
ENDBRANCH  15  18
BRANCH   8  26
ATOM     26  S   UNL     1       4.423  -2.769   9.224  0.00  0.00    +0.209 S 
ATOM     27  O   UNL     1       3.896  -4.020   9.643  0.00  0.00    -0.126 OA
ATOM     28  O   UNL     1       5.570  -2.666   8.391  0.00  0.00    -0.126 OA
BRANCH  26  29
ATOM     29  O   UNL     1       4.732  -1.982  10.490  0.00  0.00    -0.339 OA
BRANCH  29  30
ATOM     30  C   UNL     1       3.810  -2.136  11.476  0.00  0.00    +0.157 A 
ATOM     31  C   UNL     1       2.718  -1.282  11.545  0.00  0.00    +0.048 A 
ATOM     32  C   UNL     1       1.782  -1.441  12.548  0.00  0.00    +0.004 A 
ATOM     33  C   UNL     1       1.932  -2.450  13.483  0.00  0.00    +0.000 A 
ATOM     34  C   UNL     1       3.019  -3.301  13.416  0.00  0.00    +0.004 A 
ATOM     35  C   UNL     1       3.955  -3.150  12.411  0.00  0.00    +0.048 A 
ENDBRANCH  29  30
ENDBRANCH  26  29
ENDBRANCH   8  26
BRANCH   1  37
ATOM     36  C   UNL     1      -0.017   1.425   0.010  0.00  0.00    +0.277 C 
ATOM     37  O   UNL     1       0.002  -0.004   0.002  0.00  0.00    -0.495 OA
ENDBRANCH   1  37
TORSDOF 6
