REMARK  Name = ZINC08833907
REMARK  13 active torsions:
REMARK  status: ('A' for Active; 'I' for Inactive)
REMARK    1  A    between atoms: C_1  and  C_2
REMARK    2  A    between atoms: C_3  and  C_13
REMARK    3  A    between atoms: N_6  and  C_7
REMARK    4  A    between atoms: C_13  and  C_15
REMARK    5  A    between atoms: C_16  and  O_39
REMARK    6  A    between atoms: N_19  and  C_32
REMARK    7  A    between atoms: C_20  and  C_22
REMARK    8  A    between atoms: C_25  and  O_28
REMARK    9  A    between atoms: O_28  and  C_29
REMARK   10  A    between atoms: C_29  and  C_30
REMARK   11  A    between atoms: C_29  and  C_31
REMARK   12  A    between atoms: C_32  and  C_33
REMARK   13  A    between atoms: C_33  and  N_73
REMARK                            x       y       z     vdW  Elec       q    Type
REMARK                         _______ _______ _______ _____ _____    ______ ____
ROOT
ATOM      1  C   UNL     1      -1.843   2.038  -1.412  0.00  0.00    +0.071 C 
ATOM      2  C   UNL     1      -1.288   2.871  -2.322  0.00  0.00    +0.188 C 
ATOM      3  C   UNL     1       0.135   3.083  -1.982  0.00  0.00    +0.282 C 
ATOM      4  O   UNL     1       0.905   3.781  -2.610  0.00  0.00    -0.267 OA
ATOM      5  N   UNL     1       0.451   2.387  -0.874  0.00  0.00    -0.285 N 
ATOM      6  C   UNL     1      -0.755   1.679  -0.427  0.00  0.00    +0.144 C 
ENDROOT
BRANCH   6   7
ATOM      7  C   UNL     1      -1.137   2.131   0.958  0.00  0.00    -0.022 A 
ATOM      8  C   UNL     1      -1.035   3.467   1.301  0.00  0.00    +0.009 A 
ATOM      9  C   UNL     1      -1.391   3.885   2.569  0.00  0.00    +0.046 A 
ATOM     10  C   UNL     1      -1.840   2.961   3.502  0.00  0.00    +0.121 A 
ATOM     11  C   UNL     1      -1.936   1.621   3.157  0.00  0.00    +0.046 A 
ATOM     12  C   UNL     1      -1.585   1.209   1.886  0.00  0.00    +0.009 A 
BRANCH  10  13
ATOM     13  O   UNL     1      -2.184   3.369   4.752  0.00  0.00    -0.489 OA
BRANCH  13  14
ATOM     14  C   UNL     1      -1.999   4.753   5.057  0.00  0.00    +0.167 C 
ATOM     15  C   UNL     1      -3.225   5.545   4.597  0.00  0.00    +0.051 C 
ATOM     16  C   UNL     1      -1.819   4.923   6.567  0.00  0.00    +0.051 C 
ENDBRANCH  13  14
ENDBRANCH  10  13
ENDBRANCH   6   7
BRANCH   1  17
ATOM     17  C   UNL     1      -3.234   1.573  -1.386  0.00  0.00    +0.198 C 
ATOM     18  O   UNL     1      -4.139   2.370  -1.221  0.00  0.00    -0.287 OA
BRANCH  17  21
ATOM     19  C   UNL     1      -6.108   0.286  -1.461  0.00  0.00    +0.066 C 
ATOM     20  C   UNL     1      -4.792  -0.435  -1.594  0.00  0.00    +0.053 A 
ATOM     21  C   UNL     1      -3.536   0.140  -1.560  0.00  0.00    +0.063 A 
ATOM     22  C   UNL     1      -2.595  -0.903  -1.717  0.00  0.00    +0.146 A 
ATOM     23  N   UNL     1      -3.250  -2.024  -1.841  0.00  0.00    -0.174 NA
ATOM     24  N   UNL     1      -4.622  -1.758  -1.771  0.00  0.00    -0.236 N 
BRANCH  24  25
ATOM     25  C   UNL     1      -5.646  -2.710  -1.865  0.00  0.00    +0.066 A 
ATOM     26  C   UNL     1      -5.532  -3.923  -1.198  0.00  0.00    +0.028 A 
ATOM     27  C   UNL     1      -6.545  -4.857  -1.289  0.00  0.00    +0.002 A 
ATOM     28  C   UNL     1      -7.668  -4.590  -2.051  0.00  0.00    +0.000 A 
ATOM     29  C   UNL     1      -7.782  -3.386  -2.720  0.00  0.00    +0.002 A 
ATOM     30  C   UNL     1      -6.774  -2.445  -2.630  0.00  0.00    +0.028 A 
ENDBRANCH  24  25
ENDBRANCH  17  21
ENDBRANCH   1  17
BRANCH   2  31
ATOM     31  O   UNL     1      -1.932   3.423  -3.376  0.00  0.00    -0.502 OA
ATOM     32  H   UNL     1      -1.297   3.997  -3.891  0.00  0.00    +0.292 HD
ENDBRANCH   2  31
BRANCH   5  33
ATOM     33  C   UNL     1       1.766   2.344  -0.229  0.00  0.00    +0.090 C 
BRANCH  33  34
ATOM     34  C   UNL     1       2.586   1.196  -0.820  0.00  0.00    -0.059 C 
BRANCH  34  40
ATOM     35  C   UNL     1       4.694   2.346  -0.507  0.00  0.00    -0.050 C 
ATOM     36  C   UNL     1       6.033   2.288   0.234  0.00  0.00    +0.141 C 
ATOM     37  O   UNL     1       6.711   1.077  -0.111  0.00  0.00    -0.383 OA
ATOM     38  C   UNL     1       5.970  -0.106   0.201  0.00  0.00    +0.141 C 
ATOM     39  C   UNL     1       4.630  -0.073  -0.540  0.00  0.00    -0.050 C 
ATOM     40  N   UNL     1       3.902   1.152  -0.146  0.00  0.00    +0.384 N 
ATOM     41  H   UNL     1       3.756   1.142   0.870  0.00  0.00    -0.082 HD
ENDBRANCH  34  40
ENDBRANCH  33  34
ENDBRANCH   5  33
TORSDOF 10
