REMARK  Name = ZINC15906053
REMARK  6 active torsions:
REMARK  status: ('A' for Active; 'I' for Inactive)
REMARK    1  A    between atoms: C_3  and  C_7
REMARK    2  A    between atoms: C_7  and  C_9
REMARK    3  A    between atoms: C_11  and  C_23
REMARK    4  A    between atoms: C_17  and  C_18
REMARK    5  A    between atoms: C_17  and  O_22
REMARK    6  A    between atoms: C_26  and  N_29
REMARK                            x       y       z     vdW  Elec       q    Type
REMARK                         _______ _______ _______ _____ _____    ______ ____
ROOT
ATOM      1  C   UNL     1      -2.707  -0.267   0.307  0.00  0.00    +0.144 C 
ATOM      2  C   UNL     1      -3.866  -0.578  -0.645  0.00  0.00    +0.120 C 
ATOM      3  N   UNL     1      -4.226  -1.992  -0.518  0.00  0.00    -0.292 N 
ATOM      4  C   UNL     1      -4.045  -2.656   0.633  0.00  0.00    +0.302 C 
ATOM      5  O   UNL     1      -4.370  -3.827   0.689  0.00  0.00    -0.253 OA
ATOM      6  N   UNL     1      -3.519  -2.082   1.725  0.00  0.00    -0.264 N 
ATOM      7  C   UNL     1      -3.118  -0.674   1.726  0.00  0.00    +0.243 C 
ATOM      8  H   UNL     1      -4.603  -2.457  -1.281  0.00  0.00    +0.151 HD
ATOM      9  H   UNL     1      -3.401  -2.610   2.530  0.00  0.00    +0.153 HD
ENDROOT
BRANCH   2  10
ATOM     10  C   UNL     1      -5.054   0.278  -0.289  0.00  0.00    -0.026 A 
ATOM     11  C   UNL     1      -6.080  -0.245   0.475  0.00  0.00    +0.008 A 
ATOM     12  C   UNL     1      -7.166   0.542   0.806  0.00  0.00    +0.033 A 
ATOM     13  C   UNL     1      -7.233   1.850   0.363  0.00  0.00    +0.126 A 
ATOM     14  C   UNL     1      -6.210   2.372  -0.406  0.00  0.00    +0.033 A 
ATOM     15  C   UNL     1      -5.120   1.586  -0.732  0.00  0.00    +0.008 A 
BRANCH  13  16
ATOM     16  N   UNL     1      -8.399   2.691   0.713  0.00  0.00    +0.056 N 
ATOM     17  O   UNL     1      -8.457   3.844   0.324  0.00  0.00    -0.126 OA
ATOM     18  O   UNL     1      -9.300   2.232   1.391  0.00  0.00    -0.126 OA
ENDBRANCH  13  16
ENDBRANCH   2  10
BRANCH   7  19
ATOM     19  C   UNL     1      -1.935  -0.480   2.677  0.00  0.00    +0.436 C 
ATOM     20  F   UNL     1      -1.449   0.827   2.556  0.00  0.00    -0.166 F 
ATOM     21  F   UNL     1      -2.353  -0.702   3.993  0.00  0.00    -0.166 F 
ATOM     22  F   UNL     1      -0.921  -1.386   2.350  0.00  0.00    -0.166 F 
ENDBRANCH   7  19
BRANCH   1  23
ATOM     23  C   UNL     1      -1.486  -1.048  -0.109  0.00  0.00    +0.174 C 
ATOM     24  O   UNL     1      -1.447  -2.247   0.061  0.00  0.00    -0.291 OA
BRANCH  23  27
ATOM     25  C   UNL     1       1.869  -0.356  -1.630  0.00  0.00    +0.020 A 
ATOM     26  C   UNL     1       0.825  -1.056  -1.054  0.00  0.00    +0.014 A 
ATOM     27  C   UNL     1      -0.343  -0.353  -0.724  0.00  0.00    +0.036 A 
ATOM     28  C   UNL     1      -0.402   1.019  -0.988  0.00  0.00    +0.122 A 
ATOM     29  N   UNL     1       0.621   1.638  -1.538  0.00  0.00    -0.263 NA
ATOM     30  C   UNL     1       1.731   1.001  -1.859  0.00  0.00    +0.111 A 
ENDBRANCH  23  27
ENDBRANCH   1  23
BRANCH   7  31
ATOM     31  O   UNL     1      -4.215   0.135   2.156  0.00  0.00    -0.364 OA
ATOM     32  H   UNL     1      -4.528  -0.069   3.048  0.00  0.00    +0.212 HD
ENDBRANCH   7  31
TORSDOF 6
