REMARK  Name = ZINC23133026
REMARK  13 active torsions:
REMARK  status: ('A' for Active; 'I' for Inactive)
REMARK    1  A    between atoms: C_1  and  C_2
REMARK    2  A    between atoms: C_2  and  C_3
REMARK    3  A    between atoms: C_2  and  C_4
REMARK    4  A    between atoms: C_4  and  C_5
REMARK    5  A    between atoms: C_5  and  C_7
REMARK    6  A    between atoms: C_5  and  N_21
REMARK    7  A    between atoms: N_9  and  C_10
REMARK    8  A    between atoms: C_10  and  C_11
REMARK    9  A    between atoms: C_11  and  C_13
REMARK   10  A    between atoms: C_11  and  N_18
REMARK   11  A    between atoms: N_18  and  C_19
REMARK   12  A    between atoms: N_18  and  C_20
REMARK   13  A    between atoms: C_22  and  C_24
REMARK                            x       y       z     vdW  Elec       q    Type
REMARK                         _______ _______ _______ _____ _____    ______ ____
ROOT
ATOM      1  C   UNL     1       2.841  -0.315  -0.678  0.00  0.00    +0.159 C 
ENDROOT
BRANCH   1   2
ATOM      2  C   UNL     1       3.695   0.870  -1.051  0.00  0.00    +0.233 C 
ATOM      3  O   UNL     1       3.177   1.942  -1.281  0.00  0.00    -0.274 OA
ATOM      4  N   UNL     1       5.034   0.738  -1.128  0.00  0.00    -0.315 N 
ATOM      5  H   UNL     1       5.504  -0.235  -0.919  0.00  0.00    +0.149 HD
BRANCH   4   6
ATOM      6  C   UNL     1       5.864   1.889  -1.491  0.00  0.00    +0.093 C 
BRANCH   6   7
ATOM      7  C   UNL     1       7.341   1.508  -1.381  0.00  0.00    -0.020 C 
BRANCH   7   8
ATOM      8  C   UNL     1       7.668   1.173   0.051  0.00  0.00    -0.052 A 
ATOM      9  C   UNL     1       7.742  -0.144   0.465  0.00  0.00    +0.009 A 
ATOM     10  C   UNL     1       8.038  -0.410   1.760  0.00  0.00    +0.045 A 
ATOM     11  S   UNL     1       8.225   1.229   2.442  0.00  0.00    -0.105 S 
ATOM     12  C   UNL     1       7.901   2.159   0.952  0.00  0.00    +0.047 A 
ENDBRANCH   7   8
BRANCH   7  13
ATOM     13  N   UNL     1       8.172   2.636  -1.822  0.00  0.00    +0.382 N 
ATOM     14  C   UNL     1       9.599   2.288  -1.780  0.00  0.00    -0.096 C 
ATOM     15  C   UNL     1       7.780   3.085  -3.165  0.00  0.00    -0.096 C 
ATOM     16  H   UNL     1       8.007   3.471  -1.125  0.00  0.00    -0.082 HD
ENDBRANCH   7  13
ENDBRANCH   6   7
ENDBRANCH   4   6
ENDBRANCH   1   2
BRANCH   1  17
ATOM     17  N   UNL     1       1.432   0.084  -0.662  0.00  0.00    -0.300 N 
ATOM     18  C   UNL     1       0.468  -0.838  -0.858  0.00  0.00    +0.246 C 
ATOM     19  O   UNL     1       0.769  -2.000  -1.047  0.00  0.00    -0.270 OA
ATOM     20  H   UNL     1       1.160   1.136  -0.491  0.00  0.00    +0.150 HD
BRANCH  18  21
ATOM     21  C   UNL     1      -0.953  -0.434  -0.848  0.00  0.00    +0.055 A 
ATOM     22  C   UNL     1      -1.301   0.901  -0.631  0.00  0.00    +0.016 A 
ATOM     23  C   UNL     1      -2.629   1.272  -0.624  0.00  0.00    +0.021 A 
ATOM     24  C   UNL     1      -3.618   0.323  -0.831  0.00  0.00    +0.042 A 
ATOM     25  C   UNL     1      -3.280  -1.002  -1.046  0.00  0.00    +0.040 A 
ATOM     26  C   UNL     1      -1.954  -1.385  -1.062  0.00  0.00    +0.054 A 
ATOM     27 CL   UNL     1      -1.531  -3.046  -1.340  0.00  0.00    -0.083 Cl
ATOM     28 CL   UNL     1      -5.287   0.799  -0.820  0.00  0.00    -0.083 Cl
ENDBRANCH  18  21
ENDBRANCH   1  17
BRANCH   1  29
ATOM     29  C   UNL     1       3.244  -0.817   0.710  0.00  0.00    +0.034 C 
BRANCH  29  31
ATOM     30  C   UNL     1       2.878  -3.204   0.069  0.00  0.00    +0.007 C 
ATOM     31  C   UNL     1       2.466  -2.093   1.037  0.00  0.00    -0.015 C 
ATOM     32  C   UNL     1       2.775  -2.526   2.471  0.00  0.00    +0.007 C 
ENDBRANCH  29  31
ENDBRANCH   1  29
TORSDOF 9
