REMARK  Name = ZINC01105110
REMARK  5 active torsions:
REMARK  status: ('A' for Active; 'I' for Inactive)
REMARK    1  A    between atoms: C_9  and  C_12
REMARK    2  A    between atoms: N_14  and  C_15
REMARK    3  A    between atoms: C_18  and  S_21
REMARK    4  A    between atoms: S_21  and  N_24
REMARK    5  A    between atoms: N_24  and  C_25
REMARK                            x       y       z     vdW  Elec       q    Type
REMARK                         _______ _______ _______ _____ _____    ______ ____
ROOT
ATOM      1  C   UNL     1      -1.594   9.385   0.025  0.00  0.00    +0.034 A 
ATOM      2  C   UNL     1      -0.663   9.903  -0.865  0.00  0.00    +0.025 A 
ATOM      3  C   UNL     1      -0.796  11.199  -1.325  0.00  0.00    +0.030 A 
ATOM      4  C   UNL     1      -1.848  11.984  -0.890  0.00  0.00    +0.109 A 
ATOM      5  C   UNL     1      -2.774  11.472   0.001  0.00  0.00    +0.030 A 
ATOM      6  C   UNL     1      -2.650  10.176   0.460  0.00  0.00    +0.025 A 
ENDROOT
BRANCH   1   9
ATOM      7  C   UNL     1      -2.565   7.329   0.725  0.00  0.00    +0.261 C 
ATOM      8  O   UNL     1      -3.666   7.826   0.617  0.00  0.00    -0.271 OA
ATOM      9  N   UNL     1      -1.465   8.071   0.489  0.00  0.00    -0.282 N 
ATOM     10  H   UNL     1      -0.584   7.694   0.640  0.00  0.00    +0.155 HD
BRANCH   7  19
ATOM     11  C   UNL     1      -3.971   1.630   3.141  0.00  0.00    +0.004 A 
ATOM     12  C   UNL     1      -5.006   2.067   2.336  0.00  0.00    +0.004 A 
ATOM     13  C   UNL     1      -4.919   3.288   1.695  0.00  0.00    +0.049 A 
ATOM     14  C   UNL     1      -3.792   4.080   1.860  0.00  0.00    +0.163 A 
ATOM     15  C   UNL     1      -2.751   3.640   2.668  0.00  0.00    +0.162 A 
ATOM     16  C   UNL     1      -2.847   2.416   3.312  0.00  0.00    +0.049 A 
ATOM     17  O   UNL     1      -1.634   4.399   2.840  0.00  0.00    -0.484 OA
ATOM     18  C   UNL     1      -1.737   5.783   2.489  0.00  0.00    +0.283 C 
ATOM     19  C   UNL     1      -2.427   5.881   1.121  0.00  0.00    +0.296 C 
ATOM     20  O   UNL     1      -3.724   5.285   1.230  0.00  0.00    -0.473 OA
ENDBRANCH   7  19
ENDBRANCH   1   9
BRANCH   4  21
ATOM     21  S   UNL     1      -2.010  13.638  -1.473  0.00  0.00    +0.072 S 
ATOM     22  O   UNL     1      -1.326  13.699  -2.718  0.00  0.00    -0.150 OA
ATOM     23  O   UNL     1      -3.382  13.984  -1.340  0.00  0.00    -0.150 OA
BRANCH  21  24
ATOM     24  N   UNL     1      -1.173  14.611  -0.426  0.00  0.00    -0.215 N 
ATOM     25  H   UNL     1      -1.635  15.314   0.057  0.00  0.00    +0.174 HD
BRANCH  24  26
ATOM     26  C   UNL     1       0.198  14.417  -0.236  0.00  0.00    +0.068 A 
ATOM     27  C   UNL     1       0.999  14.025  -1.301  0.00  0.00    +0.026 A 
ATOM     28  C   UNL     1       2.354  13.841  -1.113  0.00  0.00    +0.003 A 
ATOM     29  C   UNL     1       2.914  14.034   0.136  0.00  0.00    +0.021 A 
ATOM     30  C   UNL     1       2.119  14.419   1.202  0.00  0.00    +0.061 A 
ATOM     31  C   UNL     1       0.761  14.611   1.019  0.00  0.00    +0.082 A 
ATOM     32 CL   UNL     1      -0.236  15.094   2.355  0.00  0.00    -0.080 Cl
ATOM     33 CL   UNL     1       2.826  14.661   2.769  0.00  0.00    -0.082 Cl
ENDBRANCH  24  26
ENDBRANCH  21  24
ENDBRANCH   4  21
TORSDOF 5
