REMARK  Name = ZINC09509270
REMARK  14 active torsions:
REMARK  status: ('A' for Active; 'I' for Inactive)
REMARK    1  A    between atoms: C_1  and  C_2
REMARK    2  A    between atoms: C_2  and  C_3
REMARK    3  A    between atoms: C_3  and  C_4
REMARK    4  A    between atoms: C_4  and  N_5
REMARK    5  A    between atoms: N_5  and  C_6
REMARK    6  A    between atoms: C_7  and  N_19
REMARK    7  A    between atoms: N_8  and  C_15
REMARK    8  A    between atoms: C_15  and  C_16
REMARK    9  A    between atoms: C_16  and  C_17
REMARK   10  A    between atoms: C_16  and  C_18
REMARK   11  A    between atoms: C_20  and  C_22
REMARK   12  A    between atoms: C_22  and  N_23
REMARK   13  A    between atoms: N_23  and  C_24
REMARK   14  A    between atoms: C_29  and  C_30
REMARK                            x       y       z     vdW  Elec       q    Type
REMARK                         _______ _______ _______ _____ _____    ______ ____
ROOT
ATOM      1  N   UNL     1      -1.365  -0.513   0.014  0.00  0.00    -0.263 N 
ATOM      2  C   UNL     1      -1.864  -0.845   1.223  0.00  0.00    +0.237 C 
ATOM      3  O   UNL     1      -2.957  -1.366   1.306  0.00  0.00    -0.274 OA
ENDROOT
BRANCH   1   4
ATOM      4  C   UNL     1      -2.157  -0.668  -1.143  0.00  0.00    +0.140 A 
ATOM      5  C   UNL     1      -1.809  -1.585  -2.114  0.00  0.00    +0.127 A 
ATOM      6  N   UNL     1      -2.602  -1.714  -3.231  0.00  0.00    -0.280 N 
ATOM      7  C   UNL     1      -3.703  -0.956  -3.375  0.00  0.00    +0.331 A 
ATOM      8  O   UNL     1      -4.391  -1.085  -4.369  0.00  0.00    -0.246 OA
ATOM      9  N   UNL     1      -4.058  -0.057  -2.439  0.00  0.00    -0.273 N 
ATOM     10  H   UNL     1      -4.879   0.498  -2.573  0.00  0.00    +0.173 HD
ATOM     11  C   UNL     1      -3.319   0.105  -1.324  0.00  0.00    +0.277 A 
ATOM     12  O   UNL     1      -3.652   0.919  -0.480  0.00  0.00    -0.266 OA
BRANCH   5  13
ATOM     13  N   UNL     1      -0.684  -2.360  -1.967  0.00  0.00    -0.343 N 
ATOM     14  H   UNL     1      -0.090  -2.215  -1.214  0.00  0.00    +0.144 HD
ATOM     15  H   UNL     1      -0.483  -3.052  -2.616  0.00  0.00    +0.144 HD
ENDBRANCH   5  13
BRANCH   6  16
ATOM     16  C   UNL     1      -2.244  -2.683  -4.269  0.00  0.00    +0.131 C 
BRANCH  16  17
ATOM     17  C   UNL     1      -2.902  -4.029  -3.959  0.00  0.00    +0.003 C 
ATOM     18  C   UNL     1      -4.423  -3.885  -4.046  0.00  0.00    +0.009 C 
ATOM     19  C   UNL     1      -2.430  -5.074  -4.973  0.00  0.00    +0.009 C 
ENDBRANCH  16  17
ENDBRANCH   6  16
ENDBRANCH   1   4
BRANCH   1  20
ATOM     20  C   UNL     1      -0.000   0.009  -0.097  0.00  0.00    +0.114 C 
BRANCH  20  21
ATOM     21  C   UNL     1      -0.037   1.538  -0.092  0.00  0.00    +0.019 C 
BRANCH  21  23
ATOM     22  C   UNL     1       1.351   3.612  -0.202  0.00  0.00    +0.004 C 
ATOM     23  C   UNL     1       1.388   2.083  -0.207  0.00  0.00    -0.002 C 
ENDBRANCH  21  23
ENDBRANCH  20  21
ENDBRANCH   1  20
BRANCH   2  24
ATOM     24  C   UNL     1      -1.065  -0.567   2.470  0.00  0.00    +0.198 C 
BRANCH  24  25
ATOM     25  N   UNL     1      -1.819  -1.016   3.643  0.00  0.00    -0.335 N 
ATOM     26  H   UNL     1      -2.694  -1.420   3.532  0.00  0.00    +0.147 HD
BRANCH  25  27
ATOM     27  C   UNL     1      -1.278  -0.863   4.922  0.00  0.00    +0.032 A 
ATOM     28  C   UNL     1      -0.025  -0.285   5.083  0.00  0.00    +0.023 A 
ATOM     29  C   UNL     1       0.508  -0.135   6.348  0.00  0.00    +0.003 A 
ATOM     30  C   UNL     1      -0.204  -0.559   7.455  0.00  0.00    +0.020 A 
ATOM     31  C   UNL     1      -1.453  -1.135   7.299  0.00  0.00    +0.046 A 
ATOM     32  C   UNL     1      -1.994  -1.283   6.035  0.00  0.00    -0.011 A 
ATOM     33  C   UNL     1      -3.356  -1.905   5.866  0.00  0.00    +0.047 C 
ATOM     34 CL   UNL     1      -2.344  -1.665   8.691  0.00  0.00    -0.083 Cl
ENDBRANCH  25  27
ENDBRANCH  24  25
ENDBRANCH   2  24
TORSDOF 10
