REMARK  Name = ZINC21715320
REMARK  6 active torsions:
REMARK  status: ('A' for Active; 'I' for Inactive)
REMARK    1  A    between atoms: C_7  and  C_27
REMARK    2  A    between atoms: C_9  and  N_11
REMARK    3  A    between atoms: N_11  and  C_12
REMARK    4  A    between atoms: C_12  and  C_13
REMARK    5  A    between atoms: N_16  and  C_19
REMARK    6  A    between atoms: C_19  and  C_20
REMARK                            x       y       z     vdW  Elec       q    Type
REMARK                         _______ _______ _______ _____ _____    ______ ____
ROOT
ATOM      1  N   UNL     1      -1.363  -0.512   0.159  0.00  0.00    -0.330 N 
ATOM      2  H   UNL     1      -2.205   0.191   0.244  0.00  0.00    +0.147 HD
ENDROOT
BRANCH   1  11
ATOM      3  C   UNL     1      -3.741  -6.322   0.298  0.00  0.00    +0.001 A 
ATOM      4  C   UNL     1      -4.756  -5.373   0.402  0.00  0.00    +0.002 A 
ATOM      5  C   UNL     1      -4.475  -4.041   0.393  0.00  0.00    +0.026 A 
ATOM      6  C   UNL     1      -3.142  -3.610   0.279  0.00  0.00    +0.049 A 
ATOM      7  C   UNL     1      -2.114  -4.579   0.174  0.00  0.00    +0.013 A 
ATOM      8  C   UNL     1      -2.437  -5.940   0.186  0.00  0.00    +0.011 A 
ATOM      9  C   UNL     1      -0.729  -4.123   0.056  0.00  0.00    +0.075 A 
ATOM     10  C   UNL     1      -0.508  -2.753   0.054  0.00  0.00    +0.057 A 
ATOM     11  C   UNL     1      -1.599  -1.879   0.163  0.00  0.00    +0.097 A 
ATOM     12  N   UNL     1      -2.835  -2.309   0.273  0.00  0.00    -0.343 N 
ATOM     13  H   UNL     1      -3.632  -1.556   0.363  0.00  0.00    +0.167 HD
BRANCH   9  14
ATOM     14  C   UNL     1       0.390  -5.082  -0.057  0.00  0.00    +0.387 C 
ATOM     15  O   UNL     1       0.181  -6.274   0.050  0.00  0.00    -0.241 OA
ATOM     16  O   UNL     1       1.641  -4.635  -0.280  0.00  0.00    -0.241 OA
ENDBRANCH   9  14
ENDBRANCH   1  11
BRANCH   1  17
ATOM     17  C   UNL     1       0.006  -0.004   0.043  0.00  0.00    +0.106 C 
BRANCH  17  18
ATOM     18  C   UNL     1      -0.014   1.525   0.065  0.00  0.00    +0.003 C 
ATOM     19  C   UNL     1      -0.737   2.045  -1.181  0.00  0.00    -0.014 C 
ATOM     20  C   UNL     1      -0.701   3.575  -1.184  0.00  0.00    -0.078 C 
ATOM     21  N   UNL     1       0.695   4.032  -1.181  0.00  0.00    +0.382 N 
ATOM     22  C   UNL     1       1.397   3.585   0.029  0.00  0.00    -0.078 C 
ATOM     23  C   UNL     1       1.423   2.055   0.069  0.00  0.00    -0.014 C 
ATOM     24  H   UNL     1       1.198   3.580  -2.047  0.00  0.00    -0.081 HD
BRANCH  21  25
ATOM     25  C   UNL     1       0.771   5.493  -1.324  0.00  0.00    -0.043 C 
BRANCH  25  26
ATOM     26  C   UNL     1       0.261   5.891  -2.684  0.00  0.00    -0.064 A 
ATOM     27  C   UNL     1       1.135   5.978  -3.752  0.00  0.00    +0.003 A 
ATOM     28  C   UNL     1       0.667   6.338  -5.001  0.00  0.00    +0.020 A 
ATOM     29  C   UNL     1      -0.675   6.623  -5.181  0.00  0.00    +0.041 A 
ATOM     30  C   UNL     1      -1.548   6.541  -4.112  0.00  0.00    +0.020 A 
ATOM     31  C   UNL     1      -1.080   6.175  -2.864  0.00  0.00    +0.003 A 
ATOM     32 CL   UNL     1      -1.262   7.081  -6.749  0.00  0.00    -0.084 Cl
ENDBRANCH  25  26
ENDBRANCH  21  25
ENDBRANCH  17  18
ENDBRANCH   1  17
TORSDOF 6
