REMARK  Name = ZINC13552738
REMARK  5 active torsions:
REMARK  status: ('A' for Active; 'I' for Inactive)
REMARK    1  A    between atoms: C_4  and  C_7
REMARK    2  A    between atoms: C_7  and  C_8
REMARK    3  A    between atoms: C_8  and  C_10
REMARK    4  A    between atoms: C_8  and  N_24
REMARK    5  A    between atoms: N_12  and  C_13
REMARK                            x       y       z     vdW  Elec       q    Type
REMARK                         _______ _______ _______ _____ _____    ______ ____
ROOT
ATOM      1  C   UNL     1       4.169  -0.952   1.380  0.00  0.00    +0.165 C 
ENDROOT
BRANCH   1   2
ATOM      2  N   UNL     1       4.450   0.319   2.051  0.00  0.00    -0.287 N 
ATOM      3  C   UNL     1       3.451   1.007   2.638  0.00  0.00    +0.308 C 
ATOM      4  O   UNL     1       2.304   0.614   2.543  0.00  0.00    -0.252 OA
ATOM      5  N   UNL     1       3.723   2.131   3.330  0.00  0.00    -0.245 N 
ATOM      6  C   UNL     1       5.083   2.687   3.371  0.00  0.00    +0.211 C 
ATOM      7  C   UNL     1       5.387   3.141   4.776  0.00  0.00    +0.235 C 
ATOM      8  O   UNL     1       6.532   3.131   5.174  0.00  0.00    -0.274 OA
ATOM      9  N   UNL     1       4.402   3.558   5.595  0.00  0.00    -0.283 N 
ATOM     10  C   UNL     1       3.067   3.531   5.178  0.00  0.00    +0.055 A 
ATOM     11  C   UNL     1       2.714   2.812   4.031  0.00  0.00    +0.059 A 
ATOM     12  C   UNL     1       1.399   2.775   3.605  0.00  0.00    +0.025 A 
ATOM     13  C   UNL     1       0.428   3.461   4.315  0.00  0.00    +0.002 A 
ATOM     14  C   UNL     1       0.771   4.180   5.445  0.00  0.00    +0.002 A 
ATOM     15  C   UNL     1       2.090   4.212   5.886  0.00  0.00    +0.025 A 
ATOM     16  H   UNL     1       5.356   0.666   2.073  0.00  0.00    +0.151 HD
ATOM     17  H   UNL     1       4.621   3.879   6.483  0.00  0.00    +0.155 HD
ENDBRANCH   1   2
BRANCH   1  18
ATOM     18  C   UNL     1       5.417  -1.796   1.357  0.00  0.00    +0.234 C 
ATOM     19  O   UNL     1       6.442  -1.376   1.852  0.00  0.00    -0.274 OA
ATOM     20  N   UNL     1       5.396  -3.016   0.786  0.00  0.00    -0.307 N 
ATOM     21  H   UNL     1       4.577  -3.352   0.389  0.00  0.00    +0.149 HD
BRANCH  20  22
ATOM     22  C   UNL     1       6.610  -3.836   0.763  0.00  0.00    +0.103 C 
ATOM     23  C   UNL     1       6.221  -5.310   0.675  0.00  0.00    +0.027 C 
ATOM     24  C   UNL     1       7.492  -6.132   0.434  0.00  0.00    +0.007 C 
ATOM     25  C   UNL     1       7.988  -5.847  -0.982  0.00  0.00    +0.035 C 
ATOM     26  C   UNL     1       8.091  -4.363  -1.218  0.00  0.00    -0.042 A 
ATOM     27  C   UNL     1       7.455  -3.440  -0.419  0.00  0.00    -0.024 A 
ATOM     28  C   UNL     1       7.585  -2.086  -0.697  0.00  0.00    +0.006 A 
ATOM     29  C   UNL     1       8.350  -1.659  -1.763  0.00  0.00    +0.000 A 
ATOM     30  C   UNL     1       8.991  -2.586  -2.563  0.00  0.00    +0.000 A 
ATOM     31  C   UNL     1       8.862  -3.931  -2.290  0.00  0.00    +0.004 A 
ENDBRANCH  20  22
ENDBRANCH   1  18
BRANCH   1  32
ATOM     32  C   UNL     1       3.710  -0.681  -0.054  0.00  0.00    +0.067 C 
BRANCH  32  36
ATOM     33  C   UNL     1      -0.014   1.410   0.011  0.00  0.00    +0.000 A 
ATOM     34  C   UNL     1       1.175   2.116   0.011  0.00  0.00    +0.000 A 
ATOM     35  C   UNL     1       2.380   1.439  -0.010  0.00  0.00    +0.004 A 
ATOM     36  C   UNL     1       2.396   0.057  -0.030  0.00  0.00    -0.045 A 
ATOM     37  C   UNL     1       1.207  -0.648  -0.030  0.00  0.00    +0.004 A 
ATOM     38  C   UNL     1       0.002   0.028  -0.010  0.00  0.00    +0.000 A 
ENDBRANCH  32  36
ENDBRANCH   1  32
TORSDOF 5
