REMARK  Name = ZINC00709394
REMARK  10 active torsions:
REMARK  status: ('A' for Active; 'I' for Inactive)
REMARK    1  A    between atoms: C_1  and  C_2
REMARK    2  A    between atoms: C_5  and  C_8
REMARK    3  A    between atoms: C_8  and  C_9
REMARK    4  A    between atoms: C_8  and  C_16
REMARK    5  A    between atoms: C_8  and  O_39
REMARK    6  A    between atoms: C_12  and  C_15
REMARK    7  A    between atoms: N_18  and  N_19
REMARK    8  A    between atoms: N_19  and  C_20
REMARK    9  A    between atoms: C_26  and  C_28
REMARK   10  A    between atoms: C_32  and  N_33
REMARK                            x       y       z     vdW  Elec       q    Type
REMARK                         _______ _______ _______ _____ _____    ______ ____
ROOT
ATOM      1  N   UNL     1       1.878  -2.175  -3.050  0.00  0.00    -0.184 N 
ATOM      2  C   UNL     1       2.425  -3.290  -3.575  0.00  0.00    +0.271 C 
ATOM      3  O   UNL     1       3.132  -3.214  -4.561  0.00  0.00    -0.268 OA
ENDROOT
BRANCH   2   4
ATOM      4  C   UNL     1       2.167  -4.600  -2.951  0.00  0.00    +0.077 A 
ATOM      5  C   UNL     1       0.858  -5.068  -2.791  0.00  0.00    +0.018 A 
ATOM      6  C   UNL     1       0.669  -6.305  -2.200  0.00  0.00    +0.018 A 
ATOM      7  C   UNL     1       1.768  -7.038  -1.788  0.00  0.00    +0.084 A 
ATOM      8  C   UNL     1       3.232  -5.406  -2.512  0.00  0.00    +0.111 A 
ATOM      9  N   UNL     1       3.056  -6.625  -1.923  0.00  0.00    -0.349 N 
ATOM     10  H   UNL     1       3.847  -7.194  -1.602  0.00  0.00    +0.167 HD
BRANCH   8  11
ATOM     11  N   UNL     1       4.535  -4.968  -2.666  0.00  0.00    -0.316 N 
ATOM     12  C   UNL     1       5.239  -5.756  -3.685  0.00  0.00    +0.106 C 
ATOM     13  C   UNL     1       6.623  -5.154  -3.931  0.00  0.00    +0.019 C 
ATOM     14  C   UNL     1       7.416  -5.155  -2.621  0.00  0.00    +0.003 C 
ATOM     15  C   UNL     1       6.638  -4.368  -1.562  0.00  0.00    +0.019 C 
ATOM     16  C   UNL     1       5.252  -4.993  -1.385  0.00  0.00    +0.106 C 
ENDBRANCH   8  11
ENDBRANCH   2   4
BRANCH   1  17
ATOM     17  C   UNL     1       2.158  -0.927  -3.615  0.00  0.00    +0.056 A 
ATOM     18  C   UNL     1       2.150  -0.769  -4.995  0.00  0.00    +0.025 A 
ATOM     19  C   UNL     1       2.421   0.466  -5.549  0.00  0.00    +0.002 A 
ATOM     20  C   UNL     1       2.713   1.543  -4.732  0.00  0.00    +0.000 A 
ATOM     21  C   UNL     1       2.727   1.389  -3.358  0.00  0.00    +0.002 A 
ATOM     22  C   UNL     1       2.451   0.157  -2.797  0.00  0.00    +0.025 A 
ENDBRANCH   1  17
BRANCH   1  25
ATOM     23  C   UNL     1       1.527  -2.616  -0.738  0.00  0.00    +0.270 C 
ATOM     24  O   UNL     1       2.710  -2.851  -0.617  0.00  0.00    -0.270 OA
ATOM     25  N   UNL     1       1.028  -2.267  -1.940  0.00  0.00    -0.224 N 
ATOM     26  H   UNL     1       0.082  -2.080  -2.037  0.00  0.00    +0.174 HD
BRANCH  23  27
ATOM     27  C   UNL     1       0.613  -2.715   0.457  0.00  0.00    +0.194 C 
BRANCH  27  32
ATOM     28  C   UNL     1      -0.005   2.508   2.850  0.00  0.00    +0.044 C 
ATOM     29  C   UNL     1       0.156   1.146   2.226  0.00  0.00    -0.050 A 
ATOM     30  C   UNL     1      -0.954   0.354   1.998  0.00  0.00    +0.004 A 
ATOM     31  C   UNL     1      -0.806  -0.895   1.425  0.00  0.00    +0.007 A 
ATOM     32  C   UNL     1       0.452  -1.353   1.080  0.00  0.00    -0.003 A 
ATOM     33  C   UNL     1       1.562  -0.561   1.307  0.00  0.00    +0.007 A 
ATOM     34  C   UNL     1       1.414   0.689   1.879  0.00  0.00    +0.004 A 
ENDBRANCH  27  32
BRANCH  27  35
ATOM     35  C   UNL     1       1.207  -3.663   1.467  0.00  0.00    -0.003 A 
ATOM     36  C   UNL     1       2.489  -3.454   1.940  0.00  0.00    +0.007 A 
ATOM     37  C   UNL     1       3.032  -4.320   2.870  0.00  0.00    +0.004 A 
ATOM     38  C   UNL     1       2.297  -5.402   3.319  0.00  0.00    -0.050 A 
ATOM     39  C   UNL     1       1.017  -5.613   2.842  0.00  0.00    +0.004 A 
ATOM     40  C   UNL     1       0.472  -4.744   1.916  0.00  0.00    +0.007 A 
ATOM     41  C   UNL     1       2.892  -6.349   4.329  0.00  0.00    +0.044 C 
ENDBRANCH  27  35
BRANCH  27  42
ATOM     42  O   UNL     1      -0.664  -3.203   0.040  0.00  0.00    -0.371 OA
ATOM     43  H   UNL     1      -0.636  -4.077  -0.371  0.00  0.00    +0.212 HD
ENDBRANCH  27  42
ENDBRANCH  23  27
ENDBRANCH   1  25
TORSDOF 8
