REMARK  Name = ZINC09012823
REMARK  4 active torsions:
REMARK  status: ('A' for Active; 'I' for Inactive)
REMARK    1  A    between atoms: C_1  and  S_2
REMARK    2  A    between atoms: S_2  and  C_3
REMARK    3  A    between atoms: C_6  and  C_9
REMARK    4  A    between atoms: C_17  and  C_21
REMARK                            x       y       z     vdW  Elec       q    Type
REMARK                         _______ _______ _______ _____ _____    ______ ____
ROOT
ATOM      1  C   UNL     1      -5.834  -1.544   0.050  0.00  0.00    +0.063 C 
ATOM      2  C   UNL     1      -6.136  -2.386   1.293  0.00  0.00    +0.109 C 
ATOM      3  C   UNL     1      -5.609  -3.785   1.154  0.00  0.00    +0.219 C 
ATOM      4  O   UNL     1      -5.105  -4.316   2.122  0.00  0.00    -0.275 OA
ATOM      5  N   UNL     1      -5.674  -4.475  -0.004  0.00  0.00    -0.269 N 
ATOM      6  C   UNL     1      -6.063  -3.781  -1.161  0.00  0.00    +0.151 A 
ATOM      7  C   UNL     1      -6.152  -2.371  -1.170  0.00  0.00    +0.027 A 
ATOM      8  C   UNL     1      -6.548  -1.984  -2.405  0.00  0.00    +0.071 A 
ATOM      9  N   UNL     1      -6.694  -3.117  -3.157  0.00  0.00    -0.275 N 
ATOM     10  H   UNL     1      -6.971  -3.153  -4.086  0.00  0.00    +0.189 HD
ATOM     11  N   UNL     1      -6.372  -4.220  -2.345  0.00  0.00    -0.158 NA
ATOM     12  H   UNL     1      -5.459  -5.420  -0.035  0.00  0.00    +0.156 HD
ENDROOT
BRANCH   1  16
ATOM     13  C   UNL     1      -1.702  -0.454   0.016  0.00  0.00    +0.008 A 
ATOM     14  C   UNL     1      -2.682   0.531   0.025  0.00  0.00    +0.015 A 
ATOM     15  C   UNL     1      -4.016   0.176   0.036  0.00  0.00    +0.005 A 
ATOM     16  C   UNL     1      -4.377  -1.159   0.038  0.00  0.00    -0.039 A 
ATOM     17  C   UNL     1      -3.404  -2.143   0.029  0.00  0.00    +0.005 A 
ATOM     18  C   UNL     1      -2.068  -1.794   0.012  0.00  0.00    +0.015 A 
BRANCH  13  20
ATOM     19  C   UNL     1      -0.022   1.810   0.012  0.00  0.00    +0.090 C 
ATOM     20  S   UNL     1       0.002  -0.004   0.002  0.00  0.00    -0.129 S 
ENDBRANCH  13  20
ENDBRANCH   1  16
BRANCH   8  21
ATOM     21  C   UNL     1      -6.780  -0.595  -2.857  0.00  0.00    +0.000 A 
ATOM     22  C   UNL     1      -7.489   0.295  -2.049  0.00  0.00    +0.010 A 
ATOM     23  C   UNL     1      -7.702   1.590  -2.476  0.00  0.00    +0.001 A 
ATOM     24  C   UNL     1      -7.215   2.006  -3.702  0.00  0.00    +0.000 A 
ATOM     25  C   UNL     1      -6.511   1.129  -4.508  0.00  0.00    +0.001 A 
ATOM     26  C   UNL     1      -6.287  -0.167  -4.090  0.00  0.00    +0.010 A 
ENDBRANCH   8  21
TORSDOF 3
