REMARK  Name = ZINC12797724
REMARK  8 active torsions:
REMARK  status: ('A' for Active; 'I' for Inactive)
REMARK    1  A    between atoms: C_1  and  C_2
REMARK    2  A    between atoms: C_15  and  C_17
REMARK    3  A    between atoms: C_17  and  N_55
REMARK    4  A    between atoms: C_18  and  N_55
REMARK    5  A    between atoms: C_19  and  C_21
REMARK    6  A    between atoms: C_19  and  C_22
REMARK    7  A    between atoms: C_19  and  N_55
REMARK    8  A    between atoms: N_24  and  C_25
REMARK                            x       y       z     vdW  Elec       q    Type
REMARK                         _______ _______ _______ _____ _____    ______ ____
ROOT
ATOM      1  C   UNL     1       2.373   1.529   0.349  0.00  0.00    +0.020 C 
ENDROOT
BRANCH   1  15
ATOM      2  C   UNL     1       6.883   2.006  -0.582  0.00  0.00    +0.029 C 
ATOM      3  C   UNL     1       5.890   3.011   0.005  0.00  0.00    +0.087 C 
ATOM      4  C   UNL     1       6.559   3.787   1.146  0.00  0.00    +0.118 C 
ATOM      5  C   UNL     1       5.517   4.475   1.988  0.00  0.00    +0.219 C 
ATOM      6  O   UNL     1       5.352   5.673   1.883  0.00  0.00    -0.275 OA
ATOM      7  N   UNL     1       4.765   3.768   2.860  0.00  0.00    -0.284 N 
ATOM      8  C   UNL     1       4.876   2.375   2.925  0.00  0.00    +0.055 A 
ATOM      9  C   UNL     1       5.008   1.729   4.143  0.00  0.00    +0.025 A 
ATOM     10  C   UNL     1       5.059   0.348   4.188  0.00  0.00    +0.002 A 
ATOM     11  C   UNL     1       4.981  -0.390   3.020  0.00  0.00    +0.002 A 
ATOM     12  C   UNL     1       4.861   0.248   1.799  0.00  0.00    +0.025 A 
ATOM     13  C   UNL     1       4.817   1.631   1.746  0.00  0.00    +0.058 A 
ATOM     14  N   UNL     1       4.719   2.296   0.516  0.00  0.00    -0.268 N 
ATOM     15  C   UNL     1       3.569   2.274  -0.187  0.00  0.00    +0.204 C 
ATOM     16  O   UNL     1       3.496   2.853  -1.250  0.00  0.00    -0.277 OA
ATOM     17  H   UNL     1       4.144   4.230   3.445  0.00  0.00    +0.155 HD
ENDBRANCH   1  15
BRANCH   1  19
ATOM     18  C   UNL     1       1.553   0.972  -1.860  0.00  0.00    -0.094 C 
ATOM     19  N   UNL     1       1.251   1.683  -0.600  0.00  0.00    +0.391 N 
ATOM     20  H   UNL     1       1.121   2.681  -0.803  0.00  0.00    -0.080 HD
BRANCH  19  21
ATOM     21  C   UNL     1       0.008   1.149  -0.004  0.00  0.00    +0.017 C 
ATOM     22  C   UNL     1       0.262  -0.225   0.621  0.00  0.00    -0.004 C 
BRANCH  21  23
ATOM     23  C   UNL     1      -0.469   2.104   1.058  0.00  0.00    +0.203 C 
ATOM     24  O   UNL     1       0.272   2.970   1.473  0.00  0.00    -0.277 OA
ATOM     25  N   UNL     1      -1.721   1.998   1.548  0.00  0.00    -0.287 N 
ATOM     26  H   UNL     1      -2.335   1.348   1.171  0.00  0.00    +0.155 HD
BRANCH  25  27
ATOM     27  C   UNL     1      -2.134   2.824   2.599  0.00  0.00    +0.035 A 
ATOM     28  C   UNL     1      -3.008   2.339   3.563  0.00  0.00    +0.026 A 
ATOM     29  C   UNL     1      -3.410   3.153   4.603  0.00  0.00    +0.041 A 
ATOM     30  C   UNL     1      -2.953   4.458   4.679  0.00  0.00    +0.142 A 
ATOM     31  C   UNL     1      -2.085   4.947   3.716  0.00  0.00    +0.078 A 
ATOM     32  C   UNL     1      -1.676   4.132   2.676  0.00  0.00    +0.046 A 
ATOM     33 CL   UNL     1      -1.513   6.583   3.813  0.00  0.00    -0.081 Cl
ATOM     34  F   UNL     1      -3.352   5.255   5.694  0.00  0.00    -0.204 F 
ENDBRANCH  25  27
ENDBRANCH  21  23
ENDBRANCH  19  21
ENDBRANCH   1  19
TORSDOF 5
