REMARK  Name = ZINC06155205
REMARK  9 active torsions:
REMARK  status: ('A' for Active; 'I' for Inactive)
REMARK    1  A    between atoms: C_4  and  C_7
REMARK    2  A    between atoms: N_8  and  C_9
REMARK    3  A    between atoms: C_9  and  S_10
REMARK    4  A    between atoms: S_10  and  C_13
REMARK    5  A    between atoms: N_19  and  C_20
REMARK    6  A    between atoms: C_20  and  N_22
REMARK    7  A    between atoms: N_22  and  N_23
REMARK    8  A    between atoms: N_23  and  C_24
REMARK    9  A    between atoms: N_23  and  C_30
REMARK                            x       y       z     vdW  Elec       q    Type
REMARK                         _______ _______ _______ _____ _____    ______ ____
ROOT
ATOM      1  C   UNL     1       3.909  -0.353  -0.590  0.00  0.00    +0.106 C 
ATOM      2  N   UNL     1       3.703  -1.638  -0.631  0.00  0.00    -0.354 N 
ATOM      3  N   UNL     1       4.985   0.152   0.115  0.00  0.00    -0.282 N 
ATOM      4  H   UNL     1       5.843  -0.299   0.080  0.00  0.00    +0.155 HD
ATOM      5  H   UNL     1       2.978  -1.996  -1.167  0.00  0.00    +0.162 HD
ENDROOT
BRANCH   1   9
ATOM      6  C   UNL     1       1.273   2.286  -2.626  0.00  0.00    +0.000 A 
ATOM      7  C   UNL     1       2.551   2.704  -2.301  0.00  0.00    +0.001 A 
ATOM      8  C   UNL     1       3.412   1.852  -1.640  0.00  0.00    +0.011 A 
ATOM      9  C   UNL     1       2.990   0.566  -1.299  0.00  0.00    +0.013 A 
ATOM     10  C   UNL     1       1.701   0.151  -1.630  0.00  0.00    +0.011 A 
ATOM     11  C   UNL     1       0.850   1.013  -2.291  0.00  0.00    +0.001 A 
ENDBRANCH   1   9
BRANCH   3  12
ATOM     12  C   UNL     1       4.842   1.272   0.852  0.00  0.00    +0.152 C 
ATOM     13  S   UNL     1       3.301   2.000   1.013  0.00  0.00    -0.017 S 
BRANCH  12  14
ATOM     14  N   UNL     1       5.912   1.818   1.462  0.00  0.00    -0.241 N 
ATOM     15  H   UNL     1       5.809   2.624   1.992  0.00  0.00    +0.172 HD
BRANCH  14  16
ATOM     16  N   UNL     1       7.173   1.223   1.331  0.00  0.00    -0.221 N 
BRANCH  16  17
ATOM     17  C   UNL     1       8.135   1.800   0.498  0.00  0.00    +0.053 A 
ATOM     18  C   UNL     1       7.749   2.437  -0.675  0.00  0.00    +0.025 A 
ATOM     19  C   UNL     1       8.702   3.006  -1.496  0.00  0.00    +0.002 A 
ATOM     20  C   UNL     1      10.040   2.943  -1.152  0.00  0.00    +0.000 A 
ATOM     21  C   UNL     1      10.428   2.309   0.014  0.00  0.00    +0.002 A 
ATOM     22  C   UNL     1       9.480   1.743   0.843  0.00  0.00    +0.025 A 
ENDBRANCH  16  17
BRANCH  16  23
ATOM     23  C   UNL     1       7.470   0.052   2.033  0.00  0.00    +0.053 A 
ATOM     24  C   UNL     1       6.947  -0.149   3.304  0.00  0.00    +0.025 A 
ATOM     25  C   UNL     1       7.242  -1.308   3.995  0.00  0.00    +0.002 A 
ATOM     26  C   UNL     1       8.056  -2.268   3.423  0.00  0.00    +0.000 A 
ATOM     27  C   UNL     1       8.578  -2.071   2.158  0.00  0.00    +0.002 A 
ATOM     28  C   UNL     1       8.283  -0.918   1.459  0.00  0.00    +0.025 A 
ENDBRANCH  16  23
ENDBRANCH  14  16
ENDBRANCH  12  14
ENDBRANCH   3  12
BRANCH   2  29
ATOM     29  C   UNL     1       4.565  -2.542   0.134  0.00  0.00    +0.288 C 
BRANCH  29  30
ATOM     30  S   UNL     1       3.581  -3.388   1.401  0.00  0.00    +0.015 S 
ATOM     31  O   UNL     1       4.390  -4.316   2.110  0.00  0.00    -0.168 OA
ATOM     32  O   UNL     1       2.772  -2.451   2.099  0.00  0.00    -0.168 OA
BRANCH  30  33
ATOM     33  C   UNL     1       2.440  -4.383   0.500  0.00  0.00    +0.090 A 
ATOM     34  C   UNL     1       1.210  -3.867   0.136  0.00  0.00    +0.027 A 
ATOM     35  C   UNL     1       0.315  -4.648  -0.572  0.00  0.00    +0.002 A 
ATOM     36  C   UNL     1       0.650  -5.944  -0.915  0.00  0.00    +0.000 A 
ATOM     37  C   UNL     1       1.880  -6.460  -0.552  0.00  0.00    +0.002 A 
ATOM     38  C   UNL     1       2.777  -5.678   0.152  0.00  0.00    +0.027 A 
ENDBRANCH  30  33
ENDBRANCH  29  30
ENDBRANCH   2  29
TORSDOF 9
