REMARK  Name = ZINC09671870
REMARK  11 active torsions:
REMARK  status: ('A' for Active; 'I' for Inactive)
REMARK    1  A    between atoms: C_1  and  N_69
REMARK    2  A    between atoms: C_2  and  N_69
REMARK    3  A    between atoms: C_3  and  C_5
REMARK    4  A    between atoms: C_3  and  C_30
REMARK    5  A    between atoms: C_3  and  N_69
REMARK    6  A    between atoms: C_5  and  N_6
REMARK    7  A    between atoms: C_7  and  C_9
REMARK    8  A    between atoms: C_14  and  S_15
REMARK    9  A    between atoms: S_15  and  C_16
REMARK   10  A    between atoms: C_16  and  C_17
REMARK   11  A    between atoms: N_19  and  C_20
REMARK                            x       y       z     vdW  Elec       q    Type
REMARK                         _______ _______ _______ _____ _____    ______ ____
ROOT
ATOM      1  C   UNL     1       0.492   0.769  -5.220  0.00  0.00    +0.050 A 
ATOM      2  C   UNL     1       0.864   0.336  -6.495  0.00  0.00    +0.014 A 
ATOM      3  C   UNL     1       1.931  -0.523  -6.646  0.00  0.00    +0.001 A 
ATOM      4  C   UNL     1       2.639  -0.961  -5.538  0.00  0.00    +0.001 A 
ATOM      5  C   UNL     1       2.288  -0.540  -4.272  0.00  0.00    +0.015 A 
ATOM      6  C   UNL     1       1.211   0.322  -4.099  0.00  0.00    +0.020 A 
ENDROOT
BRANCH   1   8
ATOM      7  N   UNL     1      -1.335   2.114  -6.130  0.00  0.00    -0.312 N 
ATOM      8  C   UNL     1      -0.647   1.688  -5.052  0.00  0.00    +0.245 C 
ATOM      9  O   UNL     1      -0.968   2.062  -3.940  0.00  0.00    -0.270 OA
ATOM     10  H   UNL     1      -1.079   1.815  -7.017  0.00  0.00    +0.149 HD
BRANCH   7  11
ATOM     11  C   UNL     1      -2.467   3.028  -5.963  0.00  0.00    +0.097 C 
BRANCH  11  12
ATOM     12  C   UNL     1      -3.067   3.353  -7.332  0.00  0.00    +0.016 C 
BRANCH  12  13
ATOM     13  C   UNL     1      -4.152   4.386  -7.173  0.00  0.00    +0.093 A 
ATOM     14  C   UNL     1      -5.471   4.174  -7.334  0.00  0.00    +0.043 A 
ATOM     15  C   UNL     1      -6.117   5.407  -7.090  0.00  0.00    +0.041 A 
ATOM     16  C   UNL     1      -5.155   6.300  -6.795  0.00  0.00    +0.195 A 
ATOM     17  O   UNL     1      -3.967   5.674  -6.841  0.00  0.00    -0.469 OA
ENDBRANCH  12  13
BRANCH  12  20
ATOM     18  C   UNL     1      -2.552   4.178  -9.550  0.00  0.00    -0.096 C 
ATOM     19  C   UNL     1      -1.377   5.061  -7.625  0.00  0.00    -0.096 C 
ATOM     20  N   UNL     1      -1.997   3.857  -8.218  0.00  0.00    +0.384 N 
ATOM     21  H   UNL     1      -1.280   3.130  -8.322  0.00  0.00    -0.082 HD
ENDBRANCH  12  20
ENDBRANCH  11  12
ENDBRANCH   7  11
ENDBRANCH   1   8
BRANCH   6  22
ATOM     22  S   UNL     1       0.756   0.858  -2.483  0.00  0.00    -0.115 S 
BRANCH  22  23
ATOM     23  C   UNL     1       1.950   0.033  -1.395  0.00  0.00    +0.170 C 
BRANCH  23  24
ATOM     24  C   UNL     1       1.669   0.410   0.036  0.00  0.00    +0.224 C 
ATOM     25  O   UNL     1       0.753   1.162   0.297  0.00  0.00    -0.275 OA
ATOM     26  N   UNL     1       2.435  -0.088   1.027  0.00  0.00    -0.309 N 
ATOM     27  H   UNL     1       3.167  -0.689   0.819  0.00  0.00    +0.149 HD
BRANCH  26  28
ATOM     28  C   UNL     1       2.162   0.279   2.419  0.00  0.00    +0.035 C 
ATOM     29  C   UNL     1       2.288   1.796   2.581  0.00  0.00    +0.029 C 
ATOM     30  C   UNL     1       2.002   2.179   4.034  0.00  0.00    -0.008 C 
ATOM     31  C   UNL     1       3.009   1.483   4.952  0.00  0.00    +0.007 C 
ATOM     32  C   UNL     1       2.884  -0.033   4.790  0.00  0.00    -0.008 C 
ATOM     33  C   UNL     1       3.169  -0.417   3.337  0.00  0.00    +0.029 C 
ATOM     34  C   UNL     1       1.466  -0.470   5.164  0.00  0.00    +0.007 C 
ATOM     35  C   UNL     1       0.459   0.225   4.247  0.00  0.00    -0.008 C 
ATOM     36  C   UNL     1       0.585   1.742   4.408  0.00  0.00    +0.007 C 
ATOM     37  C   UNL     1       0.744  -0.158   2.793  0.00  0.00    +0.029 C 
ENDBRANCH  26  28
ENDBRANCH  23  24
ENDBRANCH  22  23
ENDBRANCH   6  22
TORSDOF 9
