REMARK  Name = ZINC21345414
REMARK  11 active torsions:
REMARK  status: ('A' for Active; 'I' for Inactive)
REMARK    1  A    between atoms: C_1  and  C_2
REMARK    2  A    between atoms: C_2  and  C_3
REMARK    3  A    between atoms: C_2  and  C_4
REMARK    4  A    between atoms: C_4  and  C_6
REMARK    5  A    between atoms: C_4  and  N_23
REMARK    6  A    between atoms: N_8  and  N_9
REMARK    7  A    between atoms: N_9  and  C_10
REMARK    8  A    between atoms: C_10  and  N_12
REMARK    9  A    between atoms: N_12  and  C_13
REMARK   10  A    between atoms: C_18  and  C_19
REMARK   11  A    between atoms: C_24  and  C_26
REMARK                            x       y       z     vdW  Elec       q    Type
REMARK                         _______ _______ _______ _____ _____    ______ ____
ROOT
ATOM      1  C   UNL     1       0.040   1.343  -0.050  0.00  0.00    +0.250 C 
ATOM      2  O   UNL     1      -0.983   1.952   0.184  0.00  0.00    -0.272 OA
ATOM      3  N   UNL     1       0.039  -0.005  -0.041  0.00  0.00    -0.234 N 
ATOM      4  H   UNL     1       0.966  -0.556  -0.257  0.00  0.00    +0.173 HD
ENDROOT
BRANCH   3   5
ATOM      5  N   UNL     1      -1.142  -0.703   0.244  0.00  0.00    -0.246 N 
ATOM      6  H   UNL     1      -2.069  -0.151   0.460  0.00  0.00    +0.172 HD
BRANCH   5   7
ATOM      7  C   UNL     1      -1.143  -2.050   0.252  0.00  0.00    +0.151 C 
ATOM      8  S   UNL     1      -2.586  -2.904   0.600  0.00  0.00    -0.017 S 
BRANCH   7   9
ATOM      9  N   UNL     1      -0.007  -2.727  -0.013  0.00  0.00    -0.295 N 
ATOM     10  H   UNL     1       0.902  -2.181  -0.306  0.00  0.00    +0.154 HD
BRANCH   9  11
ATOM     11  C   UNL     1       0.015  -4.122   0.085  0.00  0.00    +0.044 A 
ATOM     12  C   UNL     1      -0.993  -4.877  -0.500  0.00  0.00    +0.024 A 
ATOM     13  C   UNL     1      -0.965  -6.254  -0.407  0.00  0.00    +0.002 A 
ATOM     14  C   UNL     1       0.059  -6.882   0.279  0.00  0.00    +0.001 A 
ATOM     15  C   UNL     1       1.061  -6.133   0.868  0.00  0.00    +0.014 A 
ATOM     16  C   UNL     1       1.042  -4.755   0.773  0.00  0.00    +0.076 A 
BRANCH  16  17
ATOM     17  C   UNL     1       2.134  -3.939   1.416  0.00  0.00    +0.419 C 
ATOM     18  F   UNL     1       3.046  -4.794   2.045  0.00  0.00    -0.166 F 
ATOM     19  F   UNL     1       2.795  -3.191   0.436  0.00  0.00    -0.166 F 
ATOM     20  F   UNL     1       1.575  -3.076   2.364  0.00  0.00    -0.166 F 
ENDBRANCH  16  17
ENDBRANCH   9  11
ENDBRANCH   7   9
ENDBRANCH   5   7
ENDBRANCH   3   5
BRANCH   1  21
ATOM     21  C   UNL     1       1.310   2.094  -0.356  0.00  0.00    +0.163 C 
BRANCH  21  22
ATOM     22  N   UNL     1       1.050   3.535  -0.303  0.00  0.00    -0.297 N 
ATOM     23  C   UNL     1       1.829   4.386  -1.000  0.00  0.00    +0.280 C 
ATOM     24  O   UNL     1       2.748   3.958  -1.673  0.00  0.00    -0.267 OA
ATOM     25  H   UNL     1       0.219   3.922   0.305  0.00  0.00    +0.150 HD
BRANCH  23  26
ATOM     26  C   UNL     1       1.569   5.828  -0.948  0.00  0.00    +0.189 A 
ATOM     27  C   UNL     1       2.276   6.796  -1.602  0.00  0.00    +0.054 A 
ATOM     28  C   UNL     1       1.684   8.024  -1.269  0.00  0.00    +0.042 A 
ATOM     29  C   UNL     1       0.654   7.756  -0.437  0.00  0.00    +0.196 A 
ATOM     30  O   UNL     1       0.584   6.431  -0.250  0.00  0.00    -0.458 OA
ENDBRANCH  23  26
ENDBRANCH  21  22
BRANCH  21  32
ATOM     31  C   UNL     1       3.668   2.493   0.367  0.00  0.00    +0.009 C 
ATOM     32  C   UNL     1       2.378   1.731   0.677  0.00  0.00    +0.012 C 
ATOM     33  C   UNL     1       1.886   2.110   2.075  0.00  0.00    +0.009 C 
ENDBRANCH  21  32
ENDBRANCH   1  21
TORSDOF 9
