REMARK  Name = ZINC01423020
REMARK  8 active torsions:
REMARK  status: ('A' for Active; 'I' for Inactive)
REMARK    1  A    between atoms: C_1  and  C_2
REMARK    2  A    between atoms: C_2  and  O_3
REMARK    3  A    between atoms: O_3  and  C_4
REMARK    4  A    between atoms: C_4  and  C_6
REMARK    5  A    between atoms: C_10  and  N_11
REMARK    6  A    between atoms: C_12  and  C_14
REMARK    7  A    between atoms: C_15  and  C_32
REMARK    8  A    between atoms: C_19  and  C_21
REMARK                            x       y       z     vdW  Elec       q    Type
REMARK                         _______ _______ _______ _____ _____    ______ ____
ROOT
ATOM      1  C   UNL     1      -3.293  -2.811   4.879  0.00  0.00    +0.043 C 
ATOM      2  C   UNL     1      -4.156  -2.934   5.901  0.00  0.00    +0.014 C 
ATOM      3  N   UNL     1      -3.771  -2.617   7.175  0.00  0.00    -0.321 N 
ATOM      4  C   UNL     1      -2.684  -1.816   7.396  0.00  0.00    +0.015 C 
ATOM      5  C   UNL     1      -1.755  -1.640   6.432  0.00  0.00    +0.024 C 
ATOM      6  C   UNL     1      -1.887  -2.338   5.099  0.00  0.00    +0.092 C 
ATOM      7  C   UNL     1      -0.642  -0.807   6.640  0.00  0.00    +0.162 C 
ATOM      8  O   UNL     1       0.179  -0.675   5.754  0.00  0.00    -0.292 OA
ATOM      9  C   UNL     1      -0.449  -0.075   7.940  0.00  0.00    +0.080 C 
ATOM     10  C   UNL     1      -1.819   0.194   8.570  0.00  0.00    +0.014 C 
ATOM     11  C   UNL     1      -2.547  -1.141   8.739  0.00  0.00    +0.051 C 
ATOM     12  C   UNL     1      -5.557  -3.426   5.643  0.00  0.00    +0.061 C 
ATOM     13  H   UNL     1      -4.274  -2.963   7.929  0.00  0.00    +0.152 HD
ENDROOT
BRANCH   6  14
ATOM     14  C   UNL     1      -0.955  -3.522   5.061  0.00  0.00    -0.017 A 
ATOM     15  C   UNL     1       0.066  -3.582   4.124  0.00  0.00    +0.007 A 
ATOM     16  C   UNL     1       0.898  -4.690   4.126  0.00  0.00    +0.020 A 
ATOM     17  C   UNL     1       0.686  -5.691   5.055  0.00  0.00    +0.111 A 
ATOM     18  N   UNL     1      -0.295  -5.601   5.931  0.00  0.00    -0.263 NA
ATOM     19  C   UNL     1      -1.103  -4.558   5.963  0.00  0.00    +0.115 A 
ENDBRANCH   6  14
BRANCH   1  21
ATOM     20  N   UNL     1      -3.867  -4.431   3.212  0.00  0.00    -0.275 N 
ATOM     21  C   UNL     1      -3.718  -3.139   3.568  0.00  0.00    +0.247 C 
ATOM     22  O   UNL     1      -3.949  -2.255   2.764  0.00  0.00    -0.270 OA
ATOM     23  H   UNL     1      -3.683  -5.135   3.853  0.00  0.00    +0.156 HD
BRANCH  20  28
ATOM     24  C   UNL     1      -4.488  -6.013   1.391  0.00  0.00    +0.091 A 
ATOM     25  C   UNL     1      -4.935  -6.080   0.010  0.00  0.00    -0.021 A 
ATOM     26  C   UNL     1      -5.088  -4.875  -0.579  0.00  0.00    -0.004 A 
ATOM     27  S   UNL     1      -4.651  -3.703   0.671  0.00  0.00    -0.077 S 
ATOM     28  C   UNL     1      -4.282  -4.752   1.931  0.00  0.00    +0.087 A 
ATOM     29  C   UNL     1      -5.531  -4.612  -1.986  0.00  0.00    +0.043 C 
ATOM     30  C   UNL     1      -5.424  -5.923  -2.778  0.00  0.00    +0.005 C 
ATOM     31  C   UNL     1      -6.076  -7.046  -1.968  0.00  0.00    +0.005 C 
ATOM     32  C   UNL     1      -5.217  -7.371  -0.744  0.00  0.00    +0.037 C 
BRANCH  24  33
ATOM     33  C   UNL     1      -4.271  -7.226   2.182  0.00  0.00    +0.342 C 
ATOM     34  O   UNL     1      -5.184  -7.702   2.830  0.00  0.00    -0.245 OA
BRANCH  33  35
ATOM     35  O   UNL     1      -3.057  -7.816   2.193  0.00  0.00    -0.461 OA
BRANCH  35  37
ATOM     36  C   UNL     1      -1.483  -9.518   2.874  0.00  0.00    +0.048 C 
ATOM     37  C   UNL     1      -2.917  -8.996   2.986  0.00  0.00    +0.229 C 
ENDBRANCH  35  37
ENDBRANCH  33  35
ENDBRANCH  24  33
ENDBRANCH  20  28
ENDBRANCH   1  21
TORSDOF 6
