REMARK  Name = ZINC23939975
REMARK  11 active torsions:
REMARK  status: ('A' for Active; 'I' for Inactive)
REMARK    1  A    between atoms: C_1  and  N_2
REMARK    2  A    between atoms: C_6  and  C_8
REMARK    3  A    between atoms: C_8  and  C_10
REMARK    4  A    between atoms: C_8  and  O_16
REMARK    5  A    between atoms: O_16  and  C_17
REMARK    6  A    between atoms: C_17  and  C_19
REMARK    7  A    between atoms: C_20  and  C_21
REMARK    8  A    between atoms: C_24  and  S_27
REMARK    9  A    between atoms: S_27  and  N_30
REMARK   10  A    between atoms: N_30  and  C_31
REMARK   11  A    between atoms: C_31  and  C_32
REMARK                            x       y       z     vdW  Elec       q    Type
REMARK                         _______ _______ _______ _____ _____    ______ ____
ROOT
ATOM      1  C   UNL     1       1.908   2.203   1.198  0.00  0.00    +0.333 C 
ATOM      2  O   UNL     1       1.297   1.968   2.222  0.00  0.00    -0.246 OA
ENDROOT
BRANCH   1   3
ATOM      3  C   UNL     1       3.279   2.708   1.264  0.00  0.00    +0.092 C 
ATOM      4  C   UNL     1       3.865   2.913   2.462  0.00  0.00    +0.015 C 
BRANCH   4   5
ATOM      5  C   UNL     1       5.245   3.422   2.528  0.00  0.00    -0.025 A 
ATOM      6  C   UNL     1       5.954   3.688   1.352  0.00  0.00    +0.010 A 
ATOM      7  C   UNL     1       7.244   4.168   1.423  0.00  0.00    +0.029 A 
ATOM      8  C   UNL     1       7.842   4.378   2.654  0.00  0.00    +0.105 A 
ATOM      9  C   UNL     1       7.149   4.112   3.822  0.00  0.00    +0.029 A 
ATOM     10  C   UNL     1       5.856   3.636   3.768  0.00  0.00    +0.010 A 
BRANCH   8  11
ATOM     11  S   UNL     1       9.494   4.986   2.733  0.00  0.00    +0.059 S 
ATOM     12  O   UNL     1       9.733   5.672   1.512  0.00  0.00    -0.153 OA
ATOM     13  O   UNL     1       9.634   5.614   4.000  0.00  0.00    -0.153 OA
BRANCH  11  14
ATOM     14  N   UNL     1      10.499   3.670   2.743  0.00  0.00    -0.183 NA
ATOM     15  H   UNL     1      10.987   3.373   3.683  0.00  0.00    +0.148 HD
BRANCH  14  16
ATOM     16  C   UNL     1      10.565   2.790   1.573  0.00  0.00    +0.180 C 
BRANCH  16  17
ATOM     17  C   UNL     1      11.785   1.911   1.674  0.00  0.00    +0.120 A 
ATOM     18  C   UNL     1      11.837   0.701   2.259  0.00  0.00    +0.046 A 
ATOM     19  C   UNL     1      13.166   0.238   2.124  0.00  0.00    +0.041 A 
ATOM     20  C   UNL     1      13.846   1.192   1.464  0.00  0.00    +0.195 A 
ATOM     21  O   UNL     1      13.003   2.201   1.188  0.00  0.00    -0.466 OA
ENDBRANCH  16  17
ENDBRANCH  14  16
ENDBRANCH  11  14
ENDBRANCH   8  11
ENDBRANCH   4   5
ENDBRANCH   1   3
BRANCH   1  22
ATOM     22  O   UNL     1       1.322   1.997   0.000  0.00  0.00    -0.444 OA
BRANCH  22  23
ATOM     23  C   UNL     1      -0.018   1.503   0.010  0.00  0.00    +0.292 C 
BRANCH  23  29
ATOM     24  C   UNL     1      -4.736   2.419  -3.794  0.00  0.00    +0.129 C 
ATOM     25  N   UNL     1      -4.027   1.934  -2.608  0.00  0.00    -0.302 N 
ATOM     26  C   UNL     1      -2.713   2.191  -2.455  0.00  0.00    +0.306 C 
ATOM     27  O   UNL     1      -2.116   2.826  -3.302  0.00  0.00    -0.252 OA
ATOM     28  N   UNL     1      -2.061   1.744  -1.363  0.00  0.00    -0.237 N 
ATOM     29  C   UNL     1      -0.747   2.002  -1.211  0.00  0.00    +0.266 C 
ATOM     30  O   UNL     1      -0.151   2.635  -2.056  0.00  0.00    -0.271 OA
ATOM     31  H   UNL     1      -4.568   1.359  -1.841  0.00  0.00    +0.150 HD
ATOM     32  H   UNL     1      -2.602   1.170  -0.597  0.00  0.00    +0.159 HD
ENDBRANCH  23  29
BRANCH  23  33
ATOM     33  C   UNL     1       0.002  -0.004   0.002  0.00  0.00    +0.002 A 
ATOM     34  C   UNL     1       0.982  -0.678  -0.702  0.00  0.00    +0.008 A 
ATOM     35  C   UNL     1       1.003  -2.060  -0.706  0.00  0.00    +0.000 A 
ATOM     36  C   UNL     1       0.039  -2.768  -0.013  0.00  0.00    +0.000 A 
ATOM     37  C   UNL     1      -0.944  -2.094   0.687  0.00  0.00    +0.000 A 
ATOM     38  C   UNL     1      -0.963  -0.712   0.694  0.00  0.00    +0.008 A 
ENDBRANCH  23  33
ENDBRANCH  22  23
ENDBRANCH   1  22
TORSDOF 10
