REMARK  Name = ZINC13063745
REMARK  14 active torsions:
REMARK  status: ('A' for Active; 'I' for Inactive)
REMARK    1  A    between atoms: C_1  and  C_2
REMARK    2  A    between atoms: C_2  and  C_3
REMARK    3  A    between atoms: C_10  and  C_15
REMARK    4  A    between atoms: C_15  and  N_70
REMARK    5  A    between atoms: C_16  and  C_17
REMARK    6  A    between atoms: C_16  and  N_70
REMARK    7  A    between atoms: C_20  and  O_23
REMARK    8  A    between atoms: O_23  and  C_24
REMARK    9  A    between atoms: C_25  and  C_27
REMARK   10  A    between atoms: C_25  and  C_29
REMARK   11  A    between atoms: C_25  and  N_70
REMARK   12  A    between atoms: C_27  and  C_28
REMARK   13  A    between atoms: N_33  and  C_34
REMARK   14  A    between atoms: C_34  and  C_35
REMARK                            x       y       z     vdW  Elec       q    Type
REMARK                         _______ _______ _______ _____ _____    ______ ____
ROOT
ATOM      1  N   UNL     1      -0.479   3.081   1.027  0.00  0.00    +0.392 N 
ATOM      2  H   UNL     1      -1.492   3.033   1.188  0.00  0.00    -0.080 HD
ENDROOT
BRANCH   1   3
ATOM      3  C   UNL     1      -0.067   1.917   0.214  0.00  0.00    -0.036 C 
BRANCH   3  11
ATOM      4  C   UNL     1      -4.479  -2.410   0.529  0.00  0.00    -0.047 A 
ATOM      5  C   UNL     1      -3.932  -3.113   1.594  0.00  0.00    +0.005 A 
ATOM      6  C   UNL     1      -2.752  -2.702   2.176  0.00  0.00    +0.026 A 
ATOM      7  C   UNL     1      -2.100  -1.573   1.692  0.00  0.00    +0.049 A 
ATOM      8  C   UNL     1      -2.658  -0.863   0.612  0.00  0.00    -0.001 A 
ATOM      9  C   UNL     1      -3.857  -1.297   0.037  0.00  0.00    +0.013 A 
ATOM     10  C   UNL     1      -1.964   0.325   0.110  0.00  0.00    +0.017 A 
ATOM     11  C   UNL     1      -0.805   0.699   0.707  0.00  0.00    +0.001 A 
ATOM     12  C   UNL     1      -0.286  -0.051   1.783  0.00  0.00    +0.251 A 
ATOM     13  O   UNL     1       0.760   0.299   2.302  0.00  0.00    -0.268 OA
ATOM     14  N   UNL     1      -0.918  -1.140   2.254  0.00  0.00    -0.322 N 
ATOM     15  H   UNL     1      -0.535  -1.631   2.998  0.00  0.00    +0.169 HD
BRANCH   4  17
ATOM     16  C   UNL     1      -5.467  -3.859  -1.224  0.00  0.00    +0.009 C 
ATOM     17  C   UNL     1      -5.771  -2.878  -0.090  0.00  0.00    +0.032 C 
ENDBRANCH   4  17
ENDBRANCH   3  11
ENDBRANCH   1   3
BRANCH   1  18
ATOM     18  C   UNL     1       0.216   3.058   2.331  0.00  0.00    -0.042 C 
BRANCH  18  19
ATOM     19  C   UNL     1      -0.507   3.978   3.280  0.00  0.00    -0.064 A 
ATOM     20  C   UNL     1      -0.196   5.324   3.309  0.00  0.00    +0.005 A 
ATOM     21  C   UNL     1      -0.862   6.170   4.175  0.00  0.00    +0.046 A 
ATOM     22  C   UNL     1      -1.836   5.666   5.023  0.00  0.00    +0.120 A 
ATOM     23  C   UNL     1      -2.143   4.313   4.997  0.00  0.00    +0.046 A 
ATOM     24  C   UNL     1      -1.478   3.472   4.125  0.00  0.00    +0.005 A 
BRANCH  22  25
ATOM     25  O   UNL     1      -2.489   6.495   5.879  0.00  0.00    -0.495 OA
ATOM     26  C   UNL     1      -2.121   7.876   5.852  0.00  0.00    +0.277 C 
ENDBRANCH  22  25
ENDBRANCH  18  19
ENDBRANCH   1  18
BRANCH   1  27
ATOM     27  C   UNL     1      -0.165   4.334   0.309  0.00  0.00    +0.003 C 
BRANCH  27  28
ATOM     28  C   UNL     1       1.203   4.255  -0.318  0.00  0.00    +0.139 A 
ATOM     29  N   UNL     1       1.605   3.384  -1.212  0.00  0.00    -0.115 NA
ATOM     30  N   UNL     1       2.834   3.645  -1.497  0.00  0.00    -0.023 NA
ATOM     31  N   UNL     1       3.227   4.660  -0.809  0.00  0.00    -0.044 NA
ATOM     32  N   UNL     1       2.248   5.067  -0.074  0.00  0.00    -0.223 N 
BRANCH  32  33
ATOM     33  C   UNL     1       2.270   6.200   0.855  0.00  0.00    +0.221 C 
BRANCH  33  34
ATOM     34  C   UNL     1       3.035   5.817   2.096  0.00  0.00    +0.126 A 
ATOM     35  C   UNL     1       4.334   6.078   2.331  0.00  0.00    +0.046 A 
ATOM     36  C   UNL     1       4.634   5.547   3.607  0.00  0.00    +0.041 A 
ATOM     37  C   UNL     1       3.503   4.985   4.071  0.00  0.00    +0.195 A 
ATOM     38  O   UNL     1       2.538   5.152   3.151  0.00  0.00    -0.466 OA
ENDBRANCH  33  34
ENDBRANCH  32  33
ENDBRANCH  27  28
BRANCH  27  39
ATOM     39  C   UNL     1      -1.215   4.550  -0.783  0.00  0.00    -0.011 C 
ATOM     40  C   UNL     1      -2.579   4.796  -0.137  0.00  0.00    +0.002 C 
ENDBRANCH  27  39
ENDBRANCH   1  27
TORSDOF 11
