REMARK  Name = ZINC64423778
REMARK  7 active torsions:
REMARK  status: ('A' for Active; 'I' for Inactive)
REMARK    1  A    between atoms: C_1  and  C_2
REMARK    2  A    between atoms: C_3  and  C_28
REMARK    3  A    between atoms: C_8  and  C_27
REMARK    4  A    between atoms: C_10  and  C_13
REMARK    5  A    between atoms: N_15  and  C_16
REMARK    6  A    between atoms: C_16  and  C_17
REMARK    7  A    between atoms: C_17  and  C_18
REMARK                            x       y       z     vdW  Elec       q    Type
REMARK                         _______ _______ _______ _____ _____    ______ ____
ROOT
ATOM      1  C   UNL     1       0.079  -4.075   5.780  0.00  0.00    +0.262 C 
ATOM      2  O   UNL     1       0.064  -3.114   6.526  0.00  0.00    -0.269 OA
ATOM      3  N   UNL     1       0.101  -5.323   6.289  0.00  0.00    -0.310 N 
ATOM      4  H   UNL     1       0.113  -6.089   5.694  0.00  0.00    +0.149 HD
ENDROOT
BRANCH   1  13
ATOM      5  C   UNL     1      -0.018   1.503   0.010  0.00  0.00    +0.066 C 
ATOM      6  C   UNL     1       0.002  -0.004   0.002  0.00  0.00    +0.050 A 
ATOM      7  C   UNL     1       0.006  -0.705  -1.157  0.00  0.00    +0.011 A 
ATOM      8  S   UNL     1       0.032  -2.378  -0.535  0.00  0.00    -0.056 S 
ATOM      9  C   UNL     1       0.035  -2.016   1.109  0.00  0.00    +0.179 A 
ATOM     10  N   UNL     1       0.023  -0.700   1.125  0.00  0.00    -0.229 NA
ATOM     11  N   UNL     1       0.052  -2.891   2.183  0.00  0.00    -0.207 N 
ATOM     12  C   UNL     1       0.048  -2.545   3.615  0.00  0.00    +0.150 C 
ATOM     13  C   UNL     1       0.072  -3.876   4.330  0.00  0.00    +0.144 C 
ATOM     14  N   UNL     1       0.087  -4.812   3.431  0.00  0.00    -0.167 NA
ATOM     15  N   UNL     1       0.070  -4.293   2.137  0.00  0.00    -0.182 N 
ATOM     16  C   UNL     1       1.290  -1.724   3.968  0.00  0.00    +0.037 C 
ATOM     17  C   UNL     1      -0.009  -0.209  -2.580  0.00  0.00    +0.053 C 
ATOM     18  H   UNL     1       0.072  -4.823   1.325  0.00  0.00    +0.193 HD
ENDBRANCH   1  13
BRANCH   3  19
ATOM     19  C   UNL     1       0.108  -5.522   7.740  0.00  0.00    +0.109 C 
BRANCH  19  20
ATOM     20  C   UNL     1       0.134  -7.021   8.049  0.00  0.00    +0.052 C 
BRANCH  20  21
ATOM     21  C   UNL     1       0.141  -7.226   9.542  0.00  0.00    -0.040 C 
ATOM     22  C   UNL     1      -0.930  -7.453  10.337  0.00  0.00    -0.001 A 
ATOM     23  C   UNL     1      -2.367  -7.572  10.059  0.00  0.00    +0.010 A 
ATOM     24  C   UNL     1      -3.216  -7.806  11.086  0.00  0.00    +0.001 A 
ATOM     25  C   UNL     1      -2.759  -7.938  12.404  0.00  0.00    +0.002 A 
ATOM     26  C   UNL     1      -1.455  -7.841  12.738  0.00  0.00    +0.026 A 
ATOM     27  C   UNL     1      -0.474  -7.596  11.738  0.00  0.00    +0.043 A 
ATOM     28  N   UNL     1       0.829  -7.463  11.806  0.00  0.00    -0.380 N 
ATOM     29  C   UNL     1       1.347  -7.225  10.454  0.00  0.00    +0.144 C 
ATOM     30  H   UNL     1       1.361  -7.516  12.616  0.00  0.00    +0.160 HD
ENDBRANCH  20  21
ENDBRANCH  19  20
ENDBRANCH   3  19
TORSDOF 4
