REMARK  Name = ZINC00899301
REMARK  8 active torsions:
REMARK  status: ('A' for Active; 'I' for Inactive)
REMARK    1  A    between atoms: C_1  and  C_2
REMARK    2  A    between atoms: C_7  and  N_8
REMARK    3  A    between atoms: C_9  and  C_11
REMARK    4  A    between atoms: C_11  and  S_12
REMARK    5  A    between atoms: S_12  and  C_13
REMARK    6  A    between atoms: C_16  and  C_19
REMARK    7  A    between atoms: N_17  and  C_18
REMARK    8  A    between atoms: C_22  and  O_25
REMARK                            x       y       z     vdW  Elec       q    Type
REMARK                         _______ _______ _______ _____ _____    ______ ____
ROOT
ATOM      1  S   UNL     1      -4.997   1.015  -0.549  0.00  0.00    -0.077 S 
ENDROOT
BRANCH   1   2
ATOM      2  C   UNL     1      -6.402   2.077  -0.506  0.00  0.00    +0.192 A 
ATOM      3  N   UNL     1      -6.393   3.374  -0.297  0.00  0.00    -0.122 NA
ATOM      4  N   UNL     1      -7.591   3.837  -0.335  0.00  0.00    -0.128 NA
ATOM      5  C   UNL     1      -8.441   2.862  -0.562  0.00  0.00    +0.165 A 
ATOM      6  N   UNL     1      -7.705   1.705  -0.679  0.00  0.00    -0.305 N 
ATOM      7  C   UNL     1      -8.214   0.355  -0.935  0.00  0.00    +0.153 C 
BRANCH   5   8
ATOM      8  C   UNL     1      -9.910   2.984  -0.671  0.00  0.00    +0.019 A 
ATOM      9  C   UNL     1     -10.493   4.231  -0.902  0.00  0.00    +0.015 A 
ATOM     10  C   UNL     1     -11.863   4.340  -1.007  0.00  0.00    +0.046 A 
ATOM     11  C   UNL     1     -12.664   3.213  -0.874  0.00  0.00    +0.117 A 
ATOM     12  C   UNL     1     -12.087   1.972  -0.639  0.00  0.00    +0.046 A 
ATOM     13  C   UNL     1     -10.718   1.853  -0.537  0.00  0.00    +0.015 A 
BRANCH  11  14
ATOM     14  O   UNL     1     -14.014   3.325  -0.973  0.00  0.00    -0.507 OA
ATOM     15  H   UNL     1     -14.457   3.498  -0.131  0.00  0.00    +0.292 HD
ENDBRANCH  11  14
ENDBRANCH   5   8
ENDBRANCH   1   2
BRANCH   1  16
ATOM     16  C   UNL     1      -3.682   2.221  -0.245  0.00  0.00    +0.173 C 
BRANCH  16  18
ATOM     17  N   UNL     1      -1.218   2.223  -0.029  0.00  0.00    -0.285 N 
ATOM     18  C   UNL     1      -2.348   1.520  -0.238  0.00  0.00    +0.227 C 
ATOM     19  O   UNL     1      -2.293   0.322  -0.420  0.00  0.00    -0.275 OA
ATOM     20  H   UNL     1      -1.267   3.168   0.184  0.00  0.00    +0.155 HD
BRANCH  17  27
ATOM     21  C   UNL     1       0.979   3.719  -1.045  0.00  0.00    +0.046 C 
ATOM     22  C   UNL     1       1.125   2.282  -0.614  0.00  0.00    -0.028 A 
ATOM     23  C   UNL     1       2.351   1.653  -0.708  0.00  0.00    +0.019 A 
ATOM     24  C   UNL     1       2.486   0.335  -0.312  0.00  0.00    +0.014 A 
ATOM     25  C   UNL     1       1.393  -0.358   0.179  0.00  0.00    +0.016 A 
ATOM     26  C   UNL     1       0.165   0.266   0.276  0.00  0.00    +0.024 A 
ATOM     27  C   UNL     1       0.027   1.590  -0.121  0.00  0.00    +0.036 A 
ATOM     28  I   UNL     1       4.347  -0.615  -0.458  0.00  0.00    -0.044 I 
ENDBRANCH  17  27
ENDBRANCH  16  18
ENDBRANCH   1  16
TORSDOF 6
