REMARK  Name = ZINC39530998
REMARK  8 active torsions:
REMARK  status: ('A' for Active; 'I' for Inactive)
REMARK    1  A    between atoms: C_4  and  C_7
REMARK    2  A    between atoms: C_7  and  C_8
REMARK    3  A    between atoms: C_11  and  C_14
REMARK    4  A    between atoms: C_14  and  C_16
REMARK    5  A    between atoms: C_14  and  N_19
REMARK    6  A    between atoms: C_16  and  N_17
REMARK    7  A    between atoms: C_23  and  C_26
REMARK    8  A    between atoms: C_26  and  C_27
REMARK                            x       y       z     vdW  Elec       q    Type
REMARK                         _______ _______ _______ _____ _____    ______ ____
ROOT
ATOM      1  C   UNL     1       5.450  -1.675   5.388  0.00  0.00    +0.102 C 
ENDROOT
BRANCH   1   2
ATOM      2  N   UNL     1       4.312  -2.321   6.056  0.00  0.00    -0.297 NA
ATOM      3  C   UNL     1       4.248  -1.940   7.474  0.00  0.00    +0.066 C 
ATOM      4  C   UNL     1       3.019  -2.585   8.117  0.00  0.00    -0.067 C 
ATOM      5  N   UNL     1       3.108  -4.045   7.989  0.00  0.00    +0.383 N 
ATOM      6  C   UNL     1       3.146  -4.412   6.567  0.00  0.00    -0.053 C 
ATOM      7  C   UNL     1       4.377  -3.782   5.911  0.00  0.00    +0.069 C 
ATOM      8  H   UNL     1       3.948  -4.372   8.443  0.00  0.00    -0.085 HD
ATOM      9  H   UNL     1       2.303  -4.471   8.424  0.00  0.00    -0.085 HD
BRANCH   6  10
ATOM     10  C   UNL     1       3.221  -5.934   6.435  0.00  0.00    +0.020 C 
BRANCH  10  11
ATOM     11  C   UNL     1       1.953  -6.548   6.971  0.00  0.00    -0.049 A 
ATOM     12  C   UNL     1       1.863  -6.894   8.306  0.00  0.00    +0.003 A 
ATOM     13  C   UNL     1       0.700  -7.457   8.798  0.00  0.00    +0.000 A 
ATOM     14  C   UNL     1      -0.373  -7.673   7.954  0.00  0.00    +0.000 A 
ATOM     15  C   UNL     1      -0.284  -7.325   6.619  0.00  0.00    +0.000 A 
ATOM     16  C   UNL     1       0.877  -6.759   6.128  0.00  0.00    +0.003 A 
ENDBRANCH  10  11
ENDBRANCH   6  10
ENDBRANCH   1   2
BRANCH   1  20
ATOM     17  C   UNL     1       4.391  -0.739   1.357  0.00  0.00    -0.043 A 
ATOM     18  C   UNL     1       5.054   0.194   2.131  0.00  0.00    +0.004 A 
ATOM     19  C   UNL     1       5.396  -0.108   3.436  0.00  0.00    +0.005 A 
ATOM     20  C   UNL     1       5.076  -1.344   3.966  0.00  0.00    -0.029 A 
ATOM     21  C   UNL     1       4.412  -2.277   3.191  0.00  0.00    +0.005 A 
ATOM     22  C   UNL     1       4.066  -1.973   1.888  0.00  0.00    +0.004 A 
BRANCH  17  23
ATOM     23  C   UNL     1       4.018  -0.409  -0.066  0.00  0.00    +0.070 C 
BRANCH  23  27
ATOM     24  C   UNL     1       0.140   1.380  -0.144  0.00  0.00    +0.000 A 
ATOM     25  C   UNL     1       1.264   2.173  -0.009  0.00  0.00    +0.000 A 
ATOM     26  C   UNL     1       2.519   1.594   0.016  0.00  0.00    +0.004 A 
ATOM     27  C   UNL     1       2.650   0.222  -0.092  0.00  0.00    -0.043 A 
ATOM     28  C   UNL     1       1.525  -0.571  -0.226  0.00  0.00    +0.004 A 
ATOM     29  C   UNL     1       0.270   0.008  -0.253  0.00  0.00    +0.000 A 
ENDBRANCH  23  27
ENDBRANCH  17  23
ENDBRANCH   1  20
BRANCH   1  30
ATOM     30  C   UNL     1       6.650  -2.624   5.392  0.00  0.00    +0.122 C 
BRANCH  30  31
ATOM     31  N   UNL     1       6.976  -2.994   6.775  0.00  0.00    -0.231 NA
ATOM     32 CL   UNL     1       8.315  -4.057   6.826  0.00  0.00    -0.024 Cl
ATOM     33  H   UNL     1       7.144  -2.175   7.340  0.00  0.00    +0.141 HD
ENDBRANCH  30  31
ENDBRANCH   1  30
TORSDOF 8
