REMARK  Name = ZINC59483719
REMARK  8 active torsions:
REMARK  status: ('A' for Active; 'I' for Inactive)
REMARK    1  A    between atoms: C_1  and  C_2
REMARK    2  A    between atoms: C_4  and  C_30
REMARK    3  A    between atoms: C_6  and  N_8
REMARK    4  A    between atoms: C_9  and  C_20
REMARK    5  A    between atoms: C_23  and  C_26
REMARK    6  A    between atoms: C_26  and  C_27
REMARK    7  A    between atoms: C_26  and  C_28
REMARK    8  A    between atoms: C_26  and  C_29
REMARK                            x       y       z     vdW  Elec       q    Type
REMARK                         _______ _______ _______ _____ _____    ______ ____
ROOT
ATOM      1  N   UNL     1       0.050  -2.797   2.392  0.00  0.00    -0.244 N 
ATOM      2  C   UNL     1       0.151  -2.064   3.654  0.00  0.00    +0.198 C 
ATOM      3  N   UNL     1       0.896  -2.853   4.643  0.00  0.00    -0.321 N 
ATOM      4  C   UNL     1       0.623  -4.212   4.758  0.00  0.00    +0.041 A 
ATOM      5  C   UNL     1       0.792  -4.890   5.953  0.00  0.00    +0.024 A 
ATOM      6  C   UNL     1       0.518  -6.243   6.017  0.00  0.00    +0.002 A 
ATOM      7  C   UNL     1       0.077  -6.926   4.894  0.00  0.00    +0.001 A 
ATOM      8  C   UNL     1      -0.101  -6.264   3.697  0.00  0.00    +0.015 A 
ATOM      9  C   UNL     1       0.167  -4.899   3.620  0.00  0.00    +0.058 A 
ATOM     10  C   UNL     1      -0.036  -4.142   2.371  0.00  0.00    +0.254 C 
ATOM     11  O   UNL     1      -0.274  -4.726   1.331  0.00  0.00    -0.270 OA
ATOM     12  H   UNL     1       1.566  -2.435   5.205  0.00  0.00    +0.148 HD
ENDROOT
BRANCH   1  18
ATOM     13  C   UNL     1       2.222   0.359  -0.688  0.00  0.00    +0.044 C 
ATOM     14  C   UNL     1       1.075  -0.552  -0.332  0.00  0.00    -0.048 A 
ATOM     15  C   UNL     1       0.006  -0.687  -1.199  0.00  0.00    +0.006 A 
ATOM     16  C   UNL     1      -1.048  -1.521  -0.876  0.00  0.00    -0.048 A 
ATOM     17  C   UNL     1      -1.037  -2.222   0.314  0.00  0.00    +0.027 A 
ATOM     18  C   UNL     1       0.035  -2.089   1.186  0.00  0.00    +0.039 A 
ATOM     19  C   UNL     1       1.096  -1.255   0.856  0.00  0.00    +0.027 A 
ATOM     20  C   UNL     1      -2.211  -1.665  -1.824  0.00  0.00    +0.044 C 
ENDBRANCH   1  18
BRANCH   2  21
ATOM     21  C   UNL     1      -1.232  -1.787   4.183  0.00  0.00    -0.009 A 
ATOM     22  C   UNL     1      -2.289  -1.631   3.305  0.00  0.00    +0.007 A 
ATOM     23  C   UNL     1      -3.558  -1.376   3.790  0.00  0.00    +0.004 A 
ATOM     24  C   UNL     1      -3.771  -1.278   5.152  0.00  0.00    -0.042 A 
ATOM     25  C   UNL     1      -2.715  -1.436   6.030  0.00  0.00    +0.004 A 
ATOM     26  C   UNL     1      -1.446  -1.694   5.545  0.00  0.00    +0.007 A 
BRANCH  24  27
ATOM     27  C   UNL     1      -5.155  -1.000   5.681  0.00  0.00    -0.013 C 
ATOM     28  C   UNL     1      -6.104  -2.115   5.237  0.00  0.00    +0.015 C 
ATOM     29  C   UNL     1      -5.115  -0.942   7.209  0.00  0.00    +0.015 C 
ATOM     30  C   UNL     1      -5.650   0.340   5.132  0.00  0.00    +0.015 C 
ENDBRANCH  24  27
ENDBRANCH   2  21
TORSDOF 3
