REMARK  Name = ZINC06198323
REMARK  9 active torsions:
REMARK  status: ('A' for Active; 'I' for Inactive)
REMARK    1  A    between atoms: C_1  and  C_2
REMARK    2  A    between atoms: C_2  and  C_3
REMARK    3  A    between atoms: C_10  and  C_15
REMARK    4  A    between atoms: C_15  and  C_17
REMARK    5  A    between atoms: C_15  and  N_66
REMARK    6  A    between atoms: N_21  and  C_22
REMARK    7  A    between atoms: C_22  and  C_23
REMARK    8  A    between atoms: C_30  and  N_66
REMARK    9  A    between atoms: C_31  and  N_66
REMARK                            x       y       z     vdW  Elec       q    Type
REMARK                         _______ _______ _______ _____ _____    ______ ____
ROOT
ATOM      1  C   UNL     1      -2.476  -0.598   1.707  0.00  0.00    +0.039 C 
ENDROOT
BRANCH   1   9
ATOM      2  C   UNL     1      -4.134  -5.329  -1.919  0.00  0.00    -0.047 A 
ATOM      3  C   UNL     1      -4.171  -6.289  -0.916  0.00  0.00    +0.005 A 
ATOM      4  C   UNL     1      -3.873  -5.955   0.387  0.00  0.00    +0.026 A 
ATOM      5  C   UNL     1      -3.533  -4.644   0.704  0.00  0.00    +0.049 A 
ATOM      6  C   UNL     1      -3.497  -3.674  -0.316  0.00  0.00    -0.001 A 
ATOM      7  C   UNL     1      -3.802  -4.036  -1.632  0.00  0.00    +0.013 A 
ATOM      8  C   UNL     1      -3.137  -2.297   0.027  0.00  0.00    +0.017 A 
ATOM      9  C   UNL     1      -2.850  -2.005   1.320  0.00  0.00    +0.011 A 
ATOM     10  C   UNL     1      -2.896  -3.016   2.304  0.00  0.00    +0.251 A 
ATOM     11  O   UNL     1      -2.630  -2.733   3.459  0.00  0.00    -0.268 OA
ATOM     12  N   UNL     1      -3.231  -4.282   1.999  0.00  0.00    -0.322 N 
ATOM     13  H   UNL     1      -3.261  -4.972   2.723  0.00  0.00    +0.169 HD
BRANCH   2  15
ATOM     14  C   UNL     1      -3.185  -6.154  -4.057  0.00  0.00    +0.009 C 
ATOM     15  C   UNL     1      -4.463  -5.719  -3.337  0.00  0.00    +0.032 C 
ENDBRANCH   2  15
ENDBRANCH   1   9
BRANCH   1  16
ATOM     16  C   UNL     1      -1.041  -0.568   2.166  0.00  0.00    +0.143 A 
ATOM     17  N   UNL     1      -0.588  -0.929   3.341  0.00  0.00    -0.115 NA
ATOM     18  N   UNL     1       0.689  -0.756   3.345  0.00  0.00    -0.023 NA
ATOM     19  N   UNL     1       1.063  -0.299   2.201  0.00  0.00    -0.044 NA
ATOM     20  N   UNL     1       0.024  -0.164   1.448  0.00  0.00    -0.226 N 
BRANCH  20  21
ATOM     21  C   UNL     1       0.007   0.331   0.069  0.00  0.00    +0.182 C 
BRANCH  21  22
ATOM     22  C   UNL     1      -0.180   1.826   0.074  0.00  0.00    -0.026 A 
ATOM     23  C   UNL     1      -1.453   2.363   0.031  0.00  0.00    +0.008 A 
ATOM     24  C   UNL     1      -1.626   3.734   0.040  0.00  0.00    +0.038 A 
ATOM     25  C   UNL     1      -0.523   4.570   0.081  0.00  0.00    +0.123 A 
ATOM     26  C   UNL     1       0.752   4.031   0.118  0.00  0.00    +0.038 A 
ATOM     27  C   UNL     1       0.922   2.660   0.115  0.00  0.00    +0.008 A 
ATOM     28  F   UNL     1      -0.691   5.911   0.085  0.00  0.00    -0.205 F 
ENDBRANCH  21  22
ENDBRANCH  20  21
ENDBRANCH   1  16
BRANCH   1  30
ATOM     29  C   UNL     1      -2.999   1.224   3.214  0.00  0.00    -0.094 C 
ATOM     30  N   UNL     1      -3.344  -0.158   2.819  0.00  0.00    +0.389 N 
ATOM     31  H   UNL     1      -3.198  -0.781   3.623  0.00  0.00    -0.080 HD
BRANCH  30  32
ATOM     32  C   UNL     1      -4.763  -0.228   2.411  0.00  0.00    -0.068 C 
ATOM     33  C   UNL     1      -5.051   0.785   1.300  0.00  0.00    -0.015 C 
ATOM     34  C   UNL     1      -6.525   0.695   0.898  0.00  0.00    -0.002 C 
ATOM     35  C   UNL     1      -7.405   1.004   2.111  0.00  0.00    -0.000 C 
ATOM     36  C   UNL     1      -7.116  -0.009   3.221  0.00  0.00    -0.002 C 
ATOM     37  C   UNL     1      -5.643   0.081   3.624  0.00  0.00    -0.015 C 
ENDBRANCH  30  32
ENDBRANCH   1  30
TORSDOF 7
