REMARK  Name = ZINC36492368
REMARK  12 active torsions:
REMARK  status: ('A' for Active; 'I' for Inactive)
REMARK    1  A    between atoms: C_1  and  C_2
REMARK    2  A    between atoms: C_2  and  C_3
REMARK    3  A    between atoms: C_2  and  C_4
REMARK    4  A    between atoms: C_2  and  N_5
REMARK    5  A    between atoms: C_6  and  C_8
REMARK    6  A    between atoms: C_8  and  C_10
REMARK    7  A    between atoms: C_8  and  N_19
REMARK    8  A    between atoms: C_11  and  O_18
REMARK    9  A    between atoms: C_13  and  O_17
REMARK   10  A    between atoms: C_15  and  O_16
REMARK   11  A    between atoms: N_19  and  C_20
REMARK   12  A    between atoms: C_26  and  C_28
REMARK                            x       y       z     vdW  Elec       q    Type
REMARK                         _______ _______ _______ _____ _____    ______ ____
ROOT
ATOM      1  C   UNL     1       2.662  -0.773  -2.084  0.00  0.00    +0.200 C 
ENDROOT
BRANCH   1   2
ATOM      2  C   UNL     1       1.240  -0.292  -2.221  0.00  0.00    +0.065 A 
ATOM      3  C   UNL     1       0.484  -0.667  -3.321  0.00  0.00    +0.129 A 
ATOM      4  C   UNL     1      -0.824  -0.225  -3.447  0.00  0.00    +0.091 A 
ATOM      5  C   UNL     1      -1.377   0.592  -2.472  0.00  0.00    +0.124 A 
ATOM      6  C   UNL     1      -0.621   0.966  -1.371  0.00  0.00    +0.091 A 
ATOM      7  C   UNL     1       0.685   0.520  -1.243  0.00  0.00    +0.129 A 
BRANCH   7   8
ATOM      8  O   UNL     1       1.424   0.883  -0.162  0.00  0.00    -0.506 OA
ATOM      9  H   UNL     1       1.830   1.757  -0.238  0.00  0.00    +0.292 HD
ENDBRANCH   7   8
BRANCH   5  10
ATOM     10  O   UNL     1      -2.659   1.026  -2.596  0.00  0.00    -0.507 OA
ATOM     11  H   UNL     1      -3.313   0.438  -2.195  0.00  0.00    +0.292 HD
ENDBRANCH   5  10
BRANCH   3  12
ATOM     12  O   UNL     1       1.026  -1.467  -4.277  0.00  0.00    -0.506 OA
ATOM     13  H   UNL     1       0.967  -2.412  -4.079  0.00  0.00    +0.292 HD
ENDBRANCH   3  12
ENDBRANCH   1   2
BRANCH   1  15
ATOM     14  N   UNL     1       2.947  -0.228   0.312  0.00  0.00    -0.309 N 
ATOM     15  C   UNL     1       3.338  -0.028  -0.962  0.00  0.00    +0.239 C 
ATOM     16  O   UNL     1       4.234   0.752  -1.205  0.00  0.00    -0.273 OA
ATOM     17  H   UNL     1       2.230  -0.852   0.507  0.00  0.00    +0.149 HD
BRANCH  14  19
ATOM     18  C   UNL     1       3.428   2.001   1.195  0.00  0.00    +0.031 C 
ATOM     19  C   UNL     1       3.604   0.496   1.403  0.00  0.00    +0.026 C 
ATOM     20  C   UNL     1       5.095   0.154   1.416  0.00  0.00    +0.031 C 
ATOM     21  C   UNL     1       2.976   0.089   2.737  0.00  0.00    +0.031 C 
ENDBRANCH  14  19
ENDBRANCH   1  15
BRANCH   1  22
ATOM     22  N   UNL     1       3.382  -0.529  -3.336  0.00  0.00    -0.279 N 
ATOM     23  C   UNL     1       4.175  -1.488  -3.855  0.00  0.00    +0.248 C 
ATOM     24  O   UNL     1       4.204  -2.592  -3.349  0.00  0.00    -0.270 OA
BRANCH  23  25
ATOM     25  C   UNL     1       5.009  -1.195  -5.038  0.00  0.00    +0.037 A 
ATOM     26  C   UNL     1       5.540   0.083  -5.223  0.00  0.00    +0.016 A 
ATOM     27  C   UNL     1       6.318   0.350  -6.329  0.00  0.00    +0.039 A 
ATOM     28  C   UNL     1       6.573  -0.647  -7.258  0.00  0.00    +0.123 A 
ATOM     29  C   UNL     1       6.048  -1.919  -7.079  0.00  0.00    +0.039 A 
ATOM     30  C   UNL     1       5.274  -2.198  -5.973  0.00  0.00    +0.016 A 
ATOM     31  F   UNL     1       7.335  -0.380  -8.341  0.00  0.00    -0.205 F 
ENDBRANCH  23  25
BRANCH  22  32
ATOM     32  C   UNL     1       3.241   0.757  -4.024  0.00  0.00    +0.077 C 
ATOM     33  C   UNL     1       4.055   1.822  -3.286  0.00  0.00    +0.022 C 
ATOM     34  C   UNL     1       3.908   3.164  -4.005  0.00  0.00    +0.002 C 
ATOM     35  C   UNL     1       2.433   3.573  -4.025  0.00  0.00    +0.000 C 
ATOM     36  C   UNL     1       1.619   2.507  -4.763  0.00  0.00    +0.002 C 
ATOM     37  C   UNL     1       1.767   1.165  -4.044  0.00  0.00    +0.022 C 
ENDBRANCH  22  32
ENDBRANCH   1  22
TORSDOF 9
