REMARK  Name = ZINC63694215
REMARK  6 active torsions:
REMARK  status: ('A' for Active; 'I' for Inactive)
REMARK    1  A    between atoms: C_7  and  C_11
REMARK    2  A    between atoms: N_13  and  C_14
REMARK    3  A    between atoms: C_17  and  C_20
REMARK    4  A    between atoms: N_22  and  C_23
REMARK    5  A    between atoms: C_23  and  C_24
REMARK    6  A    between atoms: C_24  and  C_25
REMARK                            x       y       z     vdW  Elec       q    Type
REMARK                         _______ _______ _______ _____ _____    ______ ____
ROOT
ATOM      1  C   UNL     1      -1.917  -3.547  -1.147  0.00  0.00    +0.033 A 
ATOM      2  C   UNL     1      -1.654  -3.982  -2.442  0.00  0.00    +0.024 A 
ATOM      3  C   UNL     1      -2.671  -4.489  -3.220  0.00  0.00    +0.015 A 
ATOM      4  C   UNL     1      -3.968  -4.568  -2.706  0.00  0.00    +0.037 A 
ATOM      5  C   UNL     1      -4.229  -4.131  -1.404  0.00  0.00    +0.015 A 
ATOM      6  C   UNL     1      -3.207  -3.629  -0.631  0.00  0.00    +0.024 A 
ENDROOT
BRANCH   1   9
ATOM      7  C   UNL     1       0.096  -2.306  -0.932  0.00  0.00    +0.240 C 
ATOM      8  O   UNL     1       0.128  -2.168  -2.137  0.00  0.00    -0.273 OA
ATOM      9  N   UNL     1      -0.885  -3.034  -0.363  0.00  0.00    -0.284 N 
ATOM     10  H   UNL     1      -0.874  -3.200   0.593  0.00  0.00    +0.155 HD
BRANCH   7  17
ATOM     11  C   UNL     1      -1.041   1.046   1.548  0.00  0.00    +0.000 A 
ATOM     12  C   UNL     1      -0.122   2.077   1.630  0.00  0.00    +0.001 A 
ATOM     13  C   UNL     1       1.159   1.878   1.149  0.00  0.00    +0.016 A 
ATOM     14  C   UNL     1       1.503   0.661   0.599  0.00  0.00    +0.028 A 
ATOM     15  C   UNL     1       0.596  -0.396   0.519  0.00  0.00    -0.006 A 
ATOM     16  C   UNL     1      -0.693  -0.170   1.002  0.00  0.00    +0.007 A 
ATOM     17  C   UNL     1       1.154  -1.664  -0.072  0.00  0.00    +0.182 C 
ATOM     18  N   UNL     1       2.361  -1.431  -0.899  0.00  0.00    -0.243 NA
ATOM     19  S   UNL     1       3.006   0.050  -0.126  0.00  0.00    -0.043 S 
ATOM     20  H   UNL     1       2.112  -1.257  -1.861  0.00  0.00    +0.137 HD
ENDBRANCH   7  17
ENDBRANCH   1   9
BRANCH   4  21
ATOM     21  C   UNL     1      -5.061  -5.111  -3.536  0.00  0.00    +0.244 C 
ATOM     22  O   UNL     1      -4.833  -5.491  -4.669  0.00  0.00    -0.270 OA
ATOM     23  N   UNL     1      -6.312  -5.187  -3.039  0.00  0.00    -0.311 N 
ATOM     24  H   UNL     1      -6.494  -4.884  -2.136  0.00  0.00    +0.149 HD
BRANCH  23  25
ATOM     25  C   UNL     1      -7.396  -5.726  -3.864  0.00  0.00    +0.109 C 
BRANCH  25  26
ATOM     26  C   UNL     1      -8.703  -5.700  -3.068  0.00  0.00    +0.052 C 
BRANCH  26  27
ATOM     27  C   UNL     1      -9.818  -6.255  -3.916  0.00  0.00    -0.040 C 
ATOM     28  C   UNL     1     -10.277  -7.527  -3.926  0.00  0.00    -0.001 A 
ATOM     29  C   UNL     1      -9.888  -8.730  -3.180  0.00  0.00    +0.010 A 
ATOM     30  C   UNL     1     -10.547  -9.887  -3.412  0.00  0.00    +0.001 A 
ATOM     31  C   UNL     1     -11.589  -9.967  -4.346  0.00  0.00    +0.002 A 
ATOM     32  C   UNL     1     -12.003  -8.906  -5.070  0.00  0.00    +0.026 A 
ATOM     33  C   UNL     1     -11.380  -7.638  -4.906  0.00  0.00    +0.043 A 
ATOM     34  N   UNL     1     -11.596  -6.479  -5.480  0.00  0.00    -0.380 N 
ATOM     35  C   UNL     1     -10.656  -5.499  -4.923  0.00  0.00    +0.144 C 
ATOM     36  H   UNL     1     -12.267  -6.298  -6.157  0.00  0.00    +0.160 HD
ENDBRANCH  26  27
ENDBRANCH  25  26
ENDBRANCH  23  25
ENDBRANCH   4  21
TORSDOF 6
