REMARK  Name = ZINC38771448
REMARK  13 active torsions:
REMARK  status: ('A' for Active; 'I' for Inactive)
REMARK    1  A    between atoms: C_1  and  C_2
REMARK    2  A    between atoms: N_6  and  C_7
REMARK    3  A    between atoms: C_12  and  C_13
REMARK    4  A    between atoms: C_13  and  N_14
REMARK    5  A    between atoms: C_15  and  C_17
REMARK    6  A    between atoms: C_20  and  N_23
REMARK    7  A    between atoms: N_23  and  C_24
REMARK    8  A    between atoms: N_23  and  S_25
REMARK    9  A    between atoms: S_25  and  C_28
REMARK   10  A    between atoms: C_31  and  O_36
REMARK   11  A    between atoms: C_32  and  O_34
REMARK   12  A    between atoms: O_34  and  C_35
REMARK   13  A    between atoms: O_36  and  C_37
REMARK                            x       y       z     vdW  Elec       q    Type
REMARK                         _______ _______ _______ _____ _____    ______ ____
ROOT
ATOM      1  C   UNL     1      -5.096  -1.788   1.178  0.00  0.00    +0.037 A 
ATOM      2  C   UNL     1      -4.612  -3.005   1.667  0.00  0.00    +0.015 A 
ATOM      3  C   UNL     1      -5.388  -4.138   1.581  0.00  0.00    +0.025 A 
ATOM      4  C   UNL     1      -6.655  -4.073   1.007  0.00  0.00    +0.051 A 
ATOM      5  C   UNL     1      -7.141  -2.863   0.519  0.00  0.00    +0.025 A 
ATOM      6  C   UNL     1      -6.371  -1.725   0.608  0.00  0.00    +0.015 A 
ENDROOT
BRANCH   1   8
ATOM      7  N   UNL     1      -3.038  -0.635   1.819  0.00  0.00    -0.307 N 
ATOM      8  C   UNL     1      -4.266  -0.572   1.269  0.00  0.00    +0.244 C 
ATOM      9  O   UNL     1      -4.691   0.487   0.849  0.00  0.00    -0.270 OA
ATOM     10  H   UNL     1      -2.699  -1.479   2.155  0.00  0.00    +0.149 HD
BRANCH   7  11
ATOM     11  C   UNL     1      -2.213   0.573   1.910  0.00  0.00    +0.142 C 
BRANCH  11  17
ATOM     12  C   UNL     1       0.114  -0.356   1.814  0.00  0.00    +0.052 A 
ATOM     13  C   UNL     1       1.328  -0.661   2.414  0.00  0.00    +0.026 A 
ATOM     14  C   UNL     1       1.525  -0.381   3.752  0.00  0.00    +0.002 A 
ATOM     15  C   UNL     1       0.515   0.204   4.494  0.00  0.00    +0.000 A 
ATOM     16  C   UNL     1      -0.696   0.508   3.898  0.00  0.00    +0.007 A 
ATOM     17  C   UNL     1      -0.896   0.235   2.559  0.00  0.00    -0.006 A 
BRANCH  12  23
ATOM     18  C   UNL     1      -0.321   1.763  -0.369  0.00  0.00    +0.084 C 
ATOM     19  C   UNL     1      -0.284   0.266  -0.538  0.00  0.00    +0.088 A 
ATOM     20  N   UNL     1      -0.429  -0.377  -1.664  0.00  0.00    -0.350 N 
ATOM     21  C   UNL     1      -0.339  -1.696  -1.438  0.00  0.00    +0.102 A 
ATOM     22  C   UNL     1      -0.130  -1.883  -0.120  0.00  0.00    +0.110 A 
ATOM     23  N   UNL     1      -0.088  -0.639   0.455  0.00  0.00    -0.305 N 
ATOM     24  H   UNL     1      -0.579   0.034  -2.530  0.00  0.00    +0.166 HD
ENDBRANCH  12  23
ENDBRANCH  11  17
ENDBRANCH   7  11
ENDBRANCH   1   8
BRANCH   4  25
ATOM     25  N   UNL     1      -7.437  -5.220   0.921  0.00  0.00    -0.206 N 
ATOM     26  C   UNL     1      -7.827  -5.934   2.140  0.00  0.00    +0.157 C 
BRANCH  25  27
ATOM     27  S   UNL     1      -7.929  -5.778  -0.558  0.00  0.00    +0.075 S 
ATOM     28  O   UNL     1      -9.170  -6.439  -0.352  0.00  0.00    -0.150 OA
ATOM     29  O   UNL     1      -7.784  -4.696  -1.469  0.00  0.00    -0.150 OA
BRANCH  27  30
ATOM     30  C   UNL     1      -6.777  -7.014  -1.058  0.00  0.00    +0.112 A 
ATOM     31  C   UNL     1      -5.656  -6.659  -1.786  0.00  0.00    +0.032 A 
ATOM     32  C   UNL     1      -4.750  -7.625  -2.179  0.00  0.00    +0.051 A 
ATOM     33  C   UNL     1      -4.963  -8.953  -1.845  0.00  0.00    +0.162 A 
ATOM     34  C   UNL     1      -6.090  -9.310  -1.111  0.00  0.00    +0.163 A 
ATOM     35  C   UNL     1      -6.992  -8.336  -0.716  0.00  0.00    +0.078 A 
BRANCH  34  36
ATOM     36  O   UNL     1      -6.303 -10.612  -0.780  0.00  0.00    -0.491 OA
ATOM     37  C   UNL     1      -7.482 -10.905  -0.027  0.00  0.00    +0.277 C 
ENDBRANCH  34  36
BRANCH  33  38
ATOM     38  O   UNL     1      -4.072  -9.905  -2.232  0.00  0.00    -0.491 OA
ATOM     39  C   UNL     1      -2.938  -9.465  -2.982  0.00  0.00    +0.277 C 
ENDBRANCH  33  38
ENDBRANCH  27  30
ENDBRANCH  25  27
ENDBRANCH   4  25
TORSDOF 9
