REMARK  Name = ZINC43223364
REMARK  9 active torsions:
REMARK  status: ('A' for Active; 'I' for Inactive)
REMARK    1  A    between atoms: C_1  and  N_2
REMARK    2  A    between atoms: N_2  and  C_3
REMARK    3  A    between atoms: C_3  and  C_4
REMARK    4  A    between atoms: C_10  and  C_12
REMARK    5  A    between atoms: C_17  and  C_19
REMARK    6  A    between atoms: N_21  and  C_22
REMARK    7  A    between atoms: C_22  and  C_24
REMARK    8  A    between atoms: C_22  and  C_31
REMARK    9  A    between atoms: C_24  and  C_25
REMARK                            x       y       z     vdW  Elec       q    Type
REMARK                         _______ _______ _______ _____ _____    ______ ____
ROOT
ATOM      1  C   UNL     1      -0.023   0.089  -2.470  0.00  0.00    +0.068 C 
ATOM      2  C   UNL     1       1.252   0.948  -2.611  0.00  0.00    -0.069 C 
ATOM      3  N   UNL     1       2.184   0.107  -3.407  0.00  0.00    +0.380 N 
ATOM      4  C   UNL     1       1.314  -0.538  -4.424  0.00  0.00    -0.069 C 
ATOM      5  C   UNL     1       0.015  -0.889  -3.662  0.00  0.00    +0.068 C 
ATOM      6  H   UNL     1       2.883   0.681  -3.853  0.00  0.00    -0.086 HD
ATOM      7  H   UNL     1       2.618  -0.590  -2.821  0.00  0.00    -0.086 HD
ENDROOT
BRANCH   1  10
ATOM      8  C   UNL     1      -0.018   1.461   0.010  0.00  0.00    +0.132 C 
ATOM      9  N   UNL     1       0.002  -0.004   0.002  0.00  0.00    -0.300 N 
ATOM     10  C   UNL     1       0.000  -0.672  -1.169  0.00  0.00    +0.218 C 
ATOM     11  O   UNL     1       0.017  -1.884  -1.175  0.00  0.00    -0.275 OA
BRANCH   9  12
ATOM     12  C   UNL     1       0.024  -0.743   1.267  0.00  0.00    +0.142 C 
BRANCH  12  13
ATOM     13  C   UNL     1      -1.389  -1.016   1.714  0.00  0.00    -0.030 A 
ATOM     14  C   UNL     1      -2.047  -0.105   2.518  0.00  0.00    +0.005 A 
ATOM     15  C   UNL     1      -3.344  -0.355   2.929  0.00  0.00    +0.000 A 
ATOM     16  C   UNL     1      -3.981  -1.516   2.534  0.00  0.00    +0.000 A 
ATOM     17  C   UNL     1      -3.323  -2.427   1.728  0.00  0.00    +0.000 A 
ATOM     18  C   UNL     1      -2.029  -2.175   1.315  0.00  0.00    +0.005 A 
ENDBRANCH  12  13
ENDBRANCH   9  12
ENDBRANCH   1  10
BRANCH   5  19
ATOM     19  C   UNL     1      -1.186  -0.680  -4.548  0.00  0.00    +0.215 C 
ATOM     20  O   UNL     1      -2.007   0.167  -4.268  0.00  0.00    -0.276 OA
ATOM     21  N   UNL     1      -1.347  -1.436  -5.653  0.00  0.00    -0.308 N 
ATOM     22  H   UNL     1      -0.691  -2.113  -5.878  0.00  0.00    +0.149 HD
BRANCH  21  23
ATOM     23  C   UNL     1      -2.515  -1.233  -6.514  0.00  0.00    +0.107 C 
BRANCH  23  24
ATOM     24  C   UNL     1      -3.679  -2.025  -5.977  0.00  0.00    -0.027 A 
ATOM     25  C   UNL     1      -3.475  -3.294  -5.468  0.00  0.00    +0.005 A 
ATOM     26  C   UNL     1      -4.543  -4.021  -4.975  0.00  0.00    +0.000 A 
ATOM     27  C   UNL     1      -5.814  -3.479  -4.992  0.00  0.00    +0.000 A 
ATOM     28  C   UNL     1      -6.018  -2.210  -5.501  0.00  0.00    +0.000 A 
ATOM     29  C   UNL     1      -4.950  -1.482  -5.989  0.00  0.00    +0.005 A 
ENDBRANCH  23  24
BRANCH  23  30
ATOM     30  C   UNL     1      -2.189  -1.703  -7.934  0.00  0.00    +0.062 C 
BRANCH  30  31
ATOM     31  C   UNL     1      -1.108  -0.830  -8.516  0.00  0.00    -0.045 A 
ATOM     32  C   UNL     1      -1.445   0.315  -9.215  0.00  0.00    +0.004 A 
ATOM     33  C   UNL     1      -0.453   1.115  -9.749  0.00  0.00    +0.000 A 
ATOM     34  C   UNL     1       0.876   0.772  -9.584  0.00  0.00    +0.000 A 
ATOM     35  C   UNL     1       1.213  -0.372  -8.885  0.00  0.00    +0.000 A 
ATOM     36  C   UNL     1       0.221  -1.170  -8.347  0.00  0.00    +0.004 A 
ENDBRANCH  30  31
ENDBRANCH  23  30
ENDBRANCH  21  23
ENDBRANCH   5  19
TORSDOF 8
