REMARK  Name = ZINC12932912
REMARK  8 active torsions:
REMARK  status: ('A' for Active; 'I' for Inactive)
REMARK    1  A    between atoms: C_1  and  C_2
REMARK    2  A    between atoms: C_3  and  S_8
REMARK    3  A    between atoms: C_4  and  C_7
REMARK    4  A    between atoms: S_8  and  N_11
REMARK    5  A    between atoms: N_11  and  C_12
REMARK    6  A    between atoms: C_12  and  C_14
REMARK    7  A    between atoms: C_12  and  C_15
REMARK    8  A    between atoms: N_17  and  C_18
REMARK                            x       y       z     vdW  Elec       q    Type
REMARK                         _______ _______ _______ _____ _____    ______ ____
ROOT
ATOM      1  C   UNL     1      -2.396   1.383  -0.081  0.00  0.00    +0.236 C 
ATOM      2  O   UNL     1      -2.383   0.170  -0.088  0.00  0.00    -0.274 OA
ATOM      3  N   UNL     1      -1.240   2.068   0.019  0.00  0.00    -0.284 N 
ATOM      4  H   UNL     1      -1.254   3.035   0.092  0.00  0.00    +0.155 HD
ENDROOT
BRANCH   3   5
ATOM      5  C   UNL     1      -0.017   1.384   0.017  0.00  0.00    +0.037 A 
ATOM      6  C   UNL     1       1.096   1.953  -0.587  0.00  0.00    +0.027 A 
ATOM      7  C   UNL     1       2.305   1.283  -0.585  0.00  0.00    +0.051 A 
ATOM      8  C   UNL     1       2.409   0.043   0.021  0.00  0.00    +0.167 A 
ATOM      9  C   UNL     1       1.292  -0.532   0.627  0.00  0.00    +0.169 A 
ATOM     10  C   UNL     1       0.083   0.139   0.625  0.00  0.00    +0.072 A 
ATOM     11  O   UNL     1       1.660  -1.747   1.143  0.00  0.00    -0.447 OA
ATOM     12  C   UNL     1       2.844  -2.087   0.407  0.00  0.00    +0.254 C 
ATOM     13  O   UNL     1       3.467  -0.818   0.165  0.00  0.00    -0.448 OA
ATOM     14  C   UNL     1       3.758  -3.010   1.220  0.00  0.00    +0.093 C 
ATOM     15  C   UNL     1       3.452  -4.425   0.662  0.00  0.00    +0.008 C 
ATOM     16  C   UNL     1       3.241  -4.162  -0.850  0.00  0.00    +0.008 C 
ATOM     17  C   UNL     1       2.505  -2.803  -0.900  0.00  0.00    +0.093 C 
ENDBRANCH   3   5
BRANCH   1  18
ATOM     18  C   UNL     1      -3.704   2.123  -0.184  0.00  0.00    +0.159 C 
ATOM     19  C   UNL     1      -3.691   3.010  -1.431  0.00  0.00    +0.035 C 
BRANCH  18  20
ATOM     20  N   UNL     1      -4.804   1.160  -0.281  0.00  0.00    -0.178 NA
ATOM     21  H   UNL     1      -4.677   0.326  -0.760  0.00  0.00    +0.149 HD
BRANCH  20  22
ATOM     22  S   UNL     1      -6.263   1.496   0.426  0.00  0.00    +0.064 S 
ATOM     23  O   UNL     1      -7.117   0.397   0.137  0.00  0.00    -0.153 OA
ATOM     24  O   UNL     1      -5.984   1.914   1.755  0.00  0.00    -0.153 OA
BRANCH  22  27
ATOM     25  C   UNL     1      -5.964   4.832   1.041  0.00  0.00    +0.071 C 
ATOM     26  C   UNL     1      -6.770   4.260  -0.096  0.00  0.00    +0.107 A 
ATOM     27  C   UNL     1      -6.938   2.892  -0.410  0.00  0.00    +0.169 A 
ATOM     28  C   UNL     1      -7.744   2.903  -1.500  0.00  0.00    +0.161 A 
ATOM     29  O   UNL     1      -7.998   4.190  -1.771  0.00  0.00    -0.358 OA
ATOM     30  N   UNL     1      -7.448   4.927  -0.985  0.00  0.00    -0.081 NA
ATOM     31  C   UNL     1      -8.253   1.703  -2.257  0.00  0.00    +0.091 C 
ENDBRANCH  22  27
ENDBRANCH  20  22
ENDBRANCH  18  20
ENDBRANCH   1  18
TORSDOF 5
