REMARK  Name = ZINC05948223
REMARK  16 active torsions:
REMARK  status: ('A' for Active; 'I' for Inactive)
REMARK    1  A    between atoms: C_1  and  C_2
REMARK    2  A    between atoms: C_2  and  O_3
REMARK    3  A    between atoms: O_3  and  C_4
REMARK    4  A    between atoms: C_4  and  C_6
REMARK    5  A    between atoms: C_9  and  N_12
REMARK    6  A    between atoms: N_12  and  C_13
REMARK    7  A    between atoms: C_13  and  N_15
REMARK    8  A    between atoms: N_15  and  C_16
REMARK    9  A    between atoms: N_15  and  C_25
REMARK   10  A    between atoms: C_16  and  C_17
REMARK   11  A    between atoms: C_20  and  O_23
REMARK   12  A    between atoms: O_23  and  C_24
REMARK   13  A    between atoms: C_27  and  C_33
REMARK   14  A    between atoms: C_27  and  C_34
REMARK   15  A    between atoms: C_29  and  C_31
REMARK   16  A    between atoms: C_29  and  C_32
REMARK                            x       y       z     vdW  Elec       q    Type
REMARK                         _______ _______ _______ _____ _____    ______ ____
ROOT
ATOM      1  N   UNL     1       3.759  -5.721   7.309  0.00  0.00    -0.305 N 
ENDROOT
BRANCH   1   2
ATOM      2  C   UNL     1       4.191  -4.801   8.369  0.00  0.00    +0.073 C 
ATOM      3  C   UNL     1       3.067  -3.803   8.655  0.00  0.00    +0.009 C 
ATOM      4  C   UNL     1       3.505  -2.829   9.749  0.00  0.00    -0.072 C 
ATOM      5  N   UNL     1       4.765  -2.174   9.427  0.00  0.00    +0.386 N 
ATOM      6  C   UNL     1       5.854  -3.007   8.943  0.00  0.00    -0.072 C 
ATOM      7  C   UNL     1       5.415  -4.021   7.892  0.00  0.00    +0.009 C 
ATOM      8  C   UNL     1       6.574  -3.722  10.089  0.00  0.00    -0.010 C 
ATOM      9  C   UNL     1       6.890  -2.072   8.273  0.00  0.00    -0.010 C 
ATOM     10  C   UNL     1       3.555  -3.540  11.101  0.00  0.00    -0.010 C 
ATOM     11  C   UNL     1       2.420  -1.732   9.847  0.00  0.00    -0.010 C 
ATOM     12  H   UNL     1       4.580  -1.448   8.730  0.00  0.00    -0.084 HD
ATOM     13  H   UNL     1       5.087  -1.672  10.258  0.00  0.00    -0.084 HD
ENDBRANCH   1   2
BRANCH   1  14
ATOM     14  C   UNL     1       3.303  -5.235   6.138  0.00  0.00    +0.138 C 
ATOM     15  S   UNL     1       2.681  -6.301   4.952  0.00  0.00    -0.018 S 
BRANCH  14  16
ATOM     16  N   UNL     1       3.335  -3.908   5.902  0.00  0.00    -0.297 N 
ATOM     17  H   UNL     1       3.756  -3.312   6.540  0.00  0.00    +0.154 HD
BRANCH  16  21
ATOM     18  C   UNL     1       1.630  -2.371   2.427  0.00  0.00    +0.059 A 
ATOM     19  C   UNL     1       1.361  -1.775   3.663  0.00  0.00    +0.017 A 
ATOM     20  C   UNL     1       1.925  -2.286   4.809  0.00  0.00    +0.024 A 
ATOM     21  C   UNL     1       2.765  -3.394   4.739  0.00  0.00    +0.033 A 
ATOM     22  C   UNL     1       3.036  -3.989   3.510  0.00  0.00    +0.024 A 
ATOM     23  C   UNL     1       2.469  -3.488   2.361  0.00  0.00    +0.017 A 
BRANCH  18  24
ATOM     24  C   UNL     1       1.026  -1.827   1.197  0.00  0.00    +0.339 C 
ATOM     25  O   UNL     1       1.258  -2.349   0.124  0.00  0.00    -0.245 OA
BRANCH  24  26
ATOM     26  O   UNL     1       0.218  -0.751   1.262  0.00  0.00    -0.461 OA
BRANCH  26  28
ATOM     27  C   UNL     1      -1.217   0.941   0.303  0.00  0.00    +0.048 C 
ATOM     28  C   UNL     1      -0.332  -0.277   0.031  0.00  0.00    +0.229 C 
ENDBRANCH  26  28
ENDBRANCH  24  26
ENDBRANCH  18  24
ENDBRANCH  16  21
ENDBRANCH  14  16
ENDBRANCH   1  14
BRANCH   1  29
ATOM     29  C   UNL     1       3.826  -7.169   7.525  0.00  0.00    +0.142 C 
BRANCH  29  30
ATOM     30  C   UNL     1       5.170  -7.682   7.076  0.00  0.00    -0.030 A 
ATOM     31  C   UNL     1       5.349  -8.096   5.769  0.00  0.00    +0.009 A 
ATOM     32  C   UNL     1       6.580  -8.568   5.355  0.00  0.00    +0.046 A 
ATOM     33  C   UNL     1       7.637  -8.625   6.253  0.00  0.00    +0.120 A 
ATOM     34  C   UNL     1       7.454  -8.209   7.563  0.00  0.00    +0.046 A 
ATOM     35  C   UNL     1       6.223  -7.734   7.971  0.00  0.00    +0.009 A 
BRANCH  33  36
ATOM     36  O   UNL     1       8.848  -9.089   5.848  0.00  0.00    -0.495 OA
ATOM     37  C   UNL     1       9.890  -9.120   6.826  0.00  0.00    +0.277 C 
ENDBRANCH  33  36
ENDBRANCH  29  30
ENDBRANCH   1  29
TORSDOF 10
