REMARK  Name = ZINC21262162
REMARK  13 active torsions:
REMARK  status: ('A' for Active; 'I' for Inactive)
REMARK    1  A    between atoms: C_1  and  C_2
REMARK    2  A    between atoms: C_2  and  O_3
REMARK    3  A    between atoms: O_3  and  C_4
REMARK    4  A    between atoms: C_9  and  C_10
REMARK    5  A    between atoms: C_10  and  N_11
REMARK    6  A    between atoms: N_11  and  C_12
REMARK    7  A    between atoms: N_11  and  C_22
REMARK    8  A    between atoms: C_14  and  C_20
REMARK    9  A    between atoms: C_14  and  C_21
REMARK   10  A    between atoms: C_16  and  C_18
REMARK   11  A    between atoms: C_16  and  C_19
REMARK   12  A    between atoms: C_22  and  N_24
REMARK   13  A    between atoms: N_24  and  C_25
REMARK                            x       y       z     vdW  Elec       q    Type
REMARK                         _______ _______ _______ _____ _____    ______ ____
ROOT
ATOM      1  N   UNL     1       1.360   3.103  -3.377  0.00  0.00    -0.305 N 
ENDROOT
BRANCH   1   2
ATOM      2  C   UNL     1       1.163   2.847  -1.944  0.00  0.00    +0.073 C 
ATOM      3  C   UNL     1       2.399   2.145  -1.383  0.00  0.00    +0.009 C 
ATOM      4  C   UNL     1       2.213   1.848   0.103  0.00  0.00    -0.072 C 
ATOM      5  N   UNL     1       0.951   1.203   0.396  0.00  0.00    +0.386 N 
ATOM      6  C   UNL     1      -0.259   1.627  -0.277  0.00  0.00    -0.072 C 
ATOM      7  C   UNL     1      -0.044   1.929  -1.758  0.00  0.00    +0.009 C 
ATOM      8  C   UNL     1      -1.291   0.481  -0.181  0.00  0.00    -0.010 C 
ATOM      9  C   UNL     1      -0.876   2.851   0.411  0.00  0.00    -0.010 C 
ATOM     10  C   UNL     1       2.374   3.143   0.908  0.00  0.00    -0.010 C 
ATOM     11  C   UNL     1       3.353   0.898   0.533  0.00  0.00    -0.010 C 
ATOM     12  H   UNL     1       1.022   0.131   0.157  0.00  0.00    -0.084 HD
ATOM     13  H   UNL     1       0.715   1.326   1.463  0.00  0.00    -0.084 HD
ENDBRANCH   1   2
BRANCH   1  14
ATOM     14  C   UNL     1       1.594   2.076  -4.218  0.00  0.00    +0.134 C 
ATOM     15  S   UNL     1       1.907   2.380  -5.873  0.00  0.00    -0.019 S 
BRANCH  14  16
ATOM     16  N   UNL     1       1.581   0.810  -3.756  0.00  0.00    -0.324 N 
ATOM     17  H   UNL     1       1.465   0.618  -2.679  0.00  0.00    +0.148 HD
BRANCH  16  18
ATOM     18  C   UNL     1       1.721  -0.311  -4.689  0.00  0.00    +0.072 C 
ATOM     19  C   UNL     1       0.351  -0.665  -5.271  0.00  0.00    +0.022 C 
ATOM     20  C   UNL     1       0.535  -1.541  -6.512  0.00  0.00    +0.002 C 
ATOM     21  C   UNL     1       1.658  -0.968  -7.379  0.00  0.00    +0.000 C 
ATOM     22  C   UNL     1       2.843  -1.935  -7.384  0.00  0.00    +0.000 C 
ATOM     23  C   UNL     1       3.595  -1.826  -6.056  0.00  0.00    +0.000 C 
ATOM     24  C   UNL     1       2.805  -2.546  -4.962  0.00  0.00    +0.002 C 
ATOM     25  C   UNL     1       2.289  -1.523  -3.947  0.00  0.00    +0.022 C 
ENDBRANCH  16  18
ENDBRANCH  14  16
ENDBRANCH   1  14
BRANCH   1  26
ATOM     26  C   UNL     1       1.302   4.473  -3.891  0.00  0.00    +0.145 C 
BRANCH  26  32
ATOM     27  C   UNL     1       3.659   5.051  -4.523  0.00  0.00    +0.125 A 
ATOM     28  C   UNL     1       4.862   5.695  -4.272  0.00  0.00    +0.046 A 
ATOM     29  C   UNL     1       5.018   6.442  -3.121  0.00  0.00    +0.004 A 
ATOM     30  C   UNL     1       3.975   6.551  -2.220  0.00  0.00    +0.001 A 
ATOM     31  C   UNL     1       2.773   5.914  -2.469  0.00  0.00    +0.009 A 
ATOM     32  C   UNL     1       2.612   5.167  -3.620  0.00  0.00    +0.011 A 
BRANCH  27  33
ATOM     33  O   UNL     1       3.505   4.312  -5.653  0.00  0.00    -0.492 OA
BRANCH  33  35
ATOM     34  C   UNL     1       4.264   3.369  -7.744  0.00  0.00    +0.048 C 
ATOM     35  C   UNL     1       4.625   4.238  -6.537  0.00  0.00    +0.225 C 
ENDBRANCH  33  35
ENDBRANCH  27  33
ENDBRANCH  26  32
ENDBRANCH   1  26
TORSDOF 8
