REMARK  Name = ZINC67480832
REMARK  7 active torsions:
REMARK  status: ('A' for Active; 'I' for Inactive)
REMARK    1  A    between atoms: C_4  and  C_7
REMARK    2  A    between atoms: C_7  and  C_9
REMARK    3  A    between atoms: C_7  and  N_12
REMARK    4  A    between atoms: N_15  and  C_16
REMARK    5  A    between atoms: C_16  and  C_17
REMARK    6  A    between atoms: N_22  and  C_23
REMARK    7  A    between atoms: C_23  and  C_24
REMARK                            x       y       z     vdW  Elec       q    Type
REMARK                         _______ _______ _______ _____ _____    ______ ____
ROOT
ATOM      1  N   UNL     1       3.149  -2.002  -0.710  0.00  0.00    -0.284 N 
ATOM      2  C   UNL     1       4.315  -2.387  -1.265  0.00  0.00    +0.300 C 
ATOM      3  O   UNL     1       5.345  -1.809  -0.977  0.00  0.00    -0.253 OA
ATOM      4  N   UNL     1       4.339  -3.413  -2.139  0.00  0.00    -0.301 N 
ATOM      5  H   UNL     1       2.327  -2.463  -0.940  0.00  0.00    +0.151 HD
ATOM      6  H   UNL     1       3.517  -3.874  -2.369  0.00  0.00    +0.150 HD
ENDROOT
BRANCH   1   7
ATOM      7  C   UNL     1       3.122  -0.887   0.240  0.00  0.00    +0.190 C 
BRANCH   7  11
ATOM      8  C   UNL     1      -0.764   0.885   0.246  0.00  0.00    +0.000 A 
ATOM      9  C   UNL     1       0.360   1.685   0.318  0.00  0.00    +0.000 A 
ATOM     10  C   UNL     1       1.618   1.112   0.316  0.00  0.00    +0.006 A 
ATOM     11  C   UNL     1       1.751  -0.262   0.243  0.00  0.00    -0.018 A 
ATOM     12  C   UNL     1       0.626  -1.063   0.173  0.00  0.00    +0.006 A 
ATOM     13  C   UNL     1      -0.631  -0.489   0.173  0.00  0.00    +0.000 A 
ENDBRANCH   7  11
BRANCH   7  14
ATOM     14  C   UNL     1       3.445  -1.397   1.621  0.00  0.00    +0.235 C 
ATOM     15  O   UNL     1       3.675  -2.575   1.795  0.00  0.00    -0.274 OA
ATOM     16  N   UNL     1       3.479  -0.543   2.663  0.00  0.00    -0.328 N 
ATOM     17  H   UNL     1       3.295   0.399   2.525  0.00  0.00    +0.145 HD
ATOM     18  H   UNL     1       3.687  -0.871   3.552  0.00  0.00    +0.145 HD
ENDBRANCH   7  14
ENDBRANCH   1   7
BRANCH   4  19
ATOM     19  C   UNL     1       5.607  -3.831  -2.743  0.00  0.00    +0.090 C 
BRANCH  19  20
ATOM     20  C   UNL     1       5.357  -5.006  -3.690  0.00  0.00    -0.051 C 
ATOM     21  C   UNL     1       6.703  -5.564  -4.201  0.00  0.00    -0.016 C 
ATOM     22  C   UNL     1       6.965  -6.765  -3.256  0.00  0.00    -0.020 C 
ATOM     23  C   UNL     1       5.530  -7.305  -3.030  0.00  0.00    -0.078 C 
ATOM     24  N   UNL     1       4.675  -6.096  -2.969  0.00  0.00    +0.383 N 
ATOM     25  H   UNL     1       4.532  -5.829  -2.006  0.00  0.00    -0.081 HD
BRANCH  24  26
ATOM     26  C   UNL     1       3.378  -6.372  -3.601  0.00  0.00    -0.075 C 
BRANCH  26  27
ATOM     27  C   UNL     1       2.614  -7.403  -2.769  0.00  0.00    -0.028 C 
ATOM     28  C   UNL     1       1.327  -7.795  -3.499  0.00  0.00    +0.002 C 
ATOM     29  C   UNL     1       0.563  -8.826  -2.667  0.00  0.00    +0.000 C 
ATOM     30  C   UNL     1       0.214  -8.226  -1.304  0.00  0.00    +0.000 C 
ATOM     31  C   UNL     1       1.501  -7.834  -0.575  0.00  0.00    +0.000 C 
ATOM     32  C   UNL     1       2.265  -6.802  -1.406  0.00  0.00    +0.002 C 
ENDBRANCH  26  27
ENDBRANCH  24  26
ENDBRANCH  19  20
ENDBRANCH   4  19
TORSDOF 7
