REMARK  Name = ZINC03418013
REMARK  9 active torsions:
REMARK  status: ('A' for Active; 'I' for Inactive)
REMARK    1  A    between atoms: C_1  and  O_2
REMARK    2  A    between atoms: O_2  and  C_3
REMARK    3  A    between atoms: C_3  and  C_4
REMARK    4  A    between atoms: C_4  and  N_5
REMARK    5  A    between atoms: N_5  and  C_6
REMARK    6  A    between atoms: C_7  and  N_22
REMARK    7  A    between atoms: N_8  and  C_15
REMARK    8  A    between atoms: C_15  and  C_16
REMARK    9  A    between atoms: C_23  and  C_25
REMARK                            x       y       z     vdW  Elec       q    Type
REMARK                         _______ _______ _______ _____ _____    ______ ____
ROOT
ATOM      1  C   UNL     1       3.619   8.792  -0.239  0.00  0.00    +0.140 A 
ATOM      2  C   UNL     1       4.669   9.010   0.630  0.00  0.00    +0.128 A 
ATOM      3  N   UNL     1       5.450  10.131   0.471  0.00  0.00    -0.276 N 
ATOM      4  C   UNL     1       5.187  11.011  -0.512  0.00  0.00    +0.331 A 
ATOM      5  O   UNL     1       5.886  11.999  -0.632  0.00  0.00    -0.246 OA
ATOM      6  N   UNL     1       4.165  10.818  -1.365  0.00  0.00    -0.273 N 
ATOM      7  H   UNL     1       3.991  11.487  -2.087  0.00  0.00    +0.173 HD
ATOM      8  C   UNL     1       3.373   9.733  -1.257  0.00  0.00    +0.277 A 
ATOM      9  O   UNL     1       2.449   9.568  -2.035  0.00  0.00    -0.266 OA
ENDROOT
BRANCH   1  10
ATOM     10  N   UNL     1       2.804   7.649  -0.107  0.00  0.00    -0.258 N 
ATOM     11  C   UNL     1       3.348   6.419  -0.195  0.00  0.00    +0.259 C 
ATOM     12  O   UNL     1       4.553   6.293  -0.310  0.00  0.00    -0.269 OA
BRANCH  11  13
ATOM     13  C   UNL     1       2.486   5.231  -0.153  0.00  0.00    +0.094 A 
ATOM     14  C   UNL     1       2.827   3.929  -0.356  0.00  0.00    +0.068 A 
ATOM     15  C   UNL     1       1.843   2.925  -0.272  0.00  0.00    +0.008 A 
ATOM     16  C   UNL     1       1.999   1.526  -0.449  0.00  0.00    +0.010 A 
ATOM     17  C   UNL     1       0.936   0.689  -0.333  0.00  0.00    +0.001 A 
ATOM     18  C   UNL     1      -0.337   1.164  -0.043  0.00  0.00    +0.001 A 
ATOM     19  C   UNL     1      -0.532   2.518   0.143  0.00  0.00    +0.016 A 
ATOM     20  C   UNL     1       0.538   3.380   0.028  0.00  0.00    +0.021 A 
ATOM     21  S   UNL     1       0.735   5.138   0.175  0.00  0.00    -0.082 S 
ATOM     22 CL   UNL     1       4.472   3.507  -0.717  0.00  0.00    -0.082 Cl
ENDBRANCH  11  13
BRANCH  10  23
ATOM     23  C   UNL     1       1.365   7.799   0.127  0.00  0.00    +0.142 C 
BRANCH  23  24
ATOM     24  C   UNL     1       1.078   7.687   1.626  0.00  0.00    +0.179 C 
BRANCH  24  26
ATOM     25  C   UNL     1       1.479   8.774   3.724  0.00  0.00    +0.194 C 
ATOM     26  O   UNL     1       1.688   8.783   2.311  0.00  0.00    -0.381 OA
ENDBRANCH  24  26
ENDBRANCH  23  24
ENDBRANCH  10  23
ENDBRANCH   1  10
BRANCH   2  27
ATOM     27  N   UNL     1       4.934   8.115   1.638  0.00  0.00    -0.343 N 
ATOM     28  H   UNL     1       4.413   7.300   1.713  0.00  0.00    +0.144 HD
ATOM     29  H   UNL     1       5.642   8.297   2.275  0.00  0.00    +0.144 HD
ENDBRANCH   2  27
BRANCH   3  30
ATOM     30  C   UNL     1       6.571  10.372   1.383  0.00  0.00    +0.163 C 
BRANCH  30  31
ATOM     31  C   UNL     1       6.093  11.171   2.568  0.00  0.00    -0.028 A 
ATOM     32  C   UNL     1       6.134  12.553   2.531  0.00  0.00    +0.005 A 
ATOM     33  C   UNL     1       5.690  13.286   3.616  0.00  0.00    +0.000 A 
ATOM     34  C   UNL     1       5.216  12.638   4.741  0.00  0.00    +0.000 A 
ATOM     35  C   UNL     1       5.180  11.257   4.779  0.00  0.00    +0.000 A 
ATOM     36  C   UNL     1       5.618  10.523   3.693  0.00  0.00    +0.005 A 
ENDBRANCH  30  31
ENDBRANCH   3  30
TORSDOF 8
