REMARK  Name = ZINC01962960
REMARK  12 active torsions:
REMARK  status: ('A' for Active; 'I' for Inactive)
REMARK    1  A    between atoms: C_1  and  C_2
REMARK    2  A    between atoms: C_6  and  N_9
REMARK    3  A    between atoms: C_7  and  C_8
REMARK    4  A    between atoms: C_10  and  C_12
REMARK    5  A    between atoms: C_15  and  O_18
REMARK    6  A    between atoms: O_18  and  C_19
REMARK    7  A    between atoms: C_19  and  C_20
REMARK    8  A    between atoms: N_22  and  C_23
REMARK    9  A    between atoms: C_24  and  C_34
REMARK   10  A    between atoms: C_29  and  C_33
REMARK   11  A    between atoms: C_34  and  O_36
REMARK   12  A    between atoms: O_36  and  C_37
REMARK                            x       y       z     vdW  Elec       q    Type
REMARK                         _______ _______ _______ _____ _____    ______ ____
ROOT
ATOM      1  O   UNL     1      -5.453  -7.659   0.097  0.00  0.00    -0.483 OA
ENDROOT
BRANCH   1   5
ATOM      2  C   UNL     1      -7.309 -11.345   0.142  0.00  0.00    +0.037 A 
ATOM      3  C   UNL     1      -8.004 -10.216  -0.299  0.00  0.00    +0.016 A 
ATOM      4  C   UNL     1      -7.381  -8.988  -0.313  0.00  0.00    +0.046 A 
ATOM      5  C   UNL     1      -6.063  -8.871   0.112  0.00  0.00    +0.121 A 
ATOM      6  C   UNL     1      -5.367  -9.992   0.547  0.00  0.00    +0.046 A 
ATOM      7  C   UNL     1      -5.984 -11.223   0.568  0.00  0.00    +0.016 A 
BRANCH   2   9
ATOM      8  N   UNL     1      -7.300 -13.751   0.585  0.00  0.00    -0.281 N 
ATOM      9  C   UNL     1      -7.973 -12.663   0.159  0.00  0.00    +0.248 C 
ATOM     10  O   UNL     1      -9.126 -12.768  -0.212  0.00  0.00    -0.270 OA
ATOM     11  H   UNL     1      -6.358 -13.684   0.804  0.00  0.00    +0.155 HD
BRANCH   8  17
ATOM     12  C   UNL     1      -7.125 -18.663   0.681  0.00  0.00    +0.044 C 
ATOM     13  C   UNL     1      -7.901 -17.374   0.761  0.00  0.00    -0.046 A 
ATOM     14  C   UNL     1      -9.270 -17.402   0.959  0.00  0.00    +0.004 A 
ATOM     15  C   UNL     1      -9.986 -16.222   1.032  0.00  0.00    +0.002 A 
ATOM     16  C   UNL     1      -9.336 -15.009   0.909  0.00  0.00    +0.023 A 
ATOM     17  C   UNL     1      -7.962 -14.977   0.711  0.00  0.00    +0.037 A 
ATOM     18  C   UNL     1      -7.246 -16.165   0.631  0.00  0.00    -0.026 A 
ATOM     19  C   UNL     1      -5.756 -16.135   0.410  0.00  0.00    +0.046 C 
ENDBRANCH   8  17
ENDBRANCH   2   9
ENDBRANCH   1   5
BRANCH   1  20
ATOM     20  C   UNL     1      -4.098  -7.609   0.547  0.00  0.00    +0.324 C 
BRANCH  20  21
ATOM     21  C   UNL     1      -3.591  -6.192   0.460  0.00  0.00    +0.255 C 
ATOM     22  O   UNL     1      -4.319  -5.312   0.052  0.00  0.00    -0.272 OA
ATOM     23  N   UNL     1      -2.329  -5.904   0.834  0.00  0.00    -0.277 N 
ATOM     24  H   UNL     1      -1.747  -6.608   1.160  0.00  0.00    +0.155 HD
BRANCH  23  25
ATOM     25  C   UNL     1      -1.863  -4.601   0.754  0.00  0.00    +0.086 A 
ATOM     26  C   UNL     1      -0.607  -4.112   1.090  0.00  0.00    +0.091 A 
ATOM     27  C   UNL     1      -0.372  -2.689   0.909  0.00  0.00    -0.021 A 
ATOM     28  C   UNL     1      -1.420  -1.989   0.425  0.00  0.00    -0.004 A 
ATOM     29  S   UNL     1      -2.705  -3.188   0.210  0.00  0.00    -0.077 S 
ATOM     30  C   UNL     1      -1.470  -0.520   0.138  0.00  0.00    +0.046 C 
ATOM     31  C   UNL     1      -0.032   0.019   0.120  0.00  0.00    -0.009 C 
ATOM     32  C   UNL     1       0.703  -0.497   1.360  0.00  0.00    +0.008 C 
ATOM     33  C   UNL     1       0.949  -2.001   1.232  0.00  0.00    +0.037 C 
ATOM     34  C   UNL     1      -0.057   1.548   0.137  0.00  0.00    +0.008 C 
BRANCH  26  35
ATOM     35  C   UNL     1       0.440  -4.995   1.606  0.00  0.00    +0.342 C 
ATOM     36  O   UNL     1       0.542  -5.183   2.804  0.00  0.00    -0.245 OA
BRANCH  35  37
ATOM     37  O   UNL     1       1.291  -5.602   0.754  0.00  0.00    -0.464 OA
ATOM     38  C   UNL     1       2.304  -6.464   1.336  0.00  0.00    +0.280 C 
ENDBRANCH  35  37
ENDBRANCH  26  35
ENDBRANCH  23  25
ENDBRANCH  20  21
ENDBRANCH   1  20
TORSDOF 8
