REMARK  Name = ZINC15978689
REMARK  8 active torsions:
REMARK  status: ('A' for Active; 'I' for Inactive)
REMARK    1  A    between atoms: C_1  and  C_2
REMARK    2  A    between atoms: C_5  and  S_7
REMARK    3  A    between atoms: S_7  and  C_8
REMARK    4  A    between atoms: C_8  and  C_9
REMARK    5  A    between atoms: C_13  and  N_15
REMARK    6  A    between atoms: N_18  and  C_19
REMARK    7  A    between atoms: C_24  and  S_25
REMARK    8  A    between atoms: S_25  and  C_26
REMARK                            x       y       z     vdW  Elec       q    Type
REMARK                         _______ _______ _______ _____ _____    ______ ____
ROOT
ATOM      1  N   UNL     1      -2.061  -9.319   0.702  0.00  0.00    -0.177 NA
ATOM      2  C   UNL     1      -2.171 -10.591   0.381  0.00  0.00    +0.203 C 
ATOM      3  N   UNL     1      -3.268 -11.306   0.783  0.00  0.00    -0.369 N 
ATOM      4  N   UNL     1      -1.188 -11.200  -0.354  0.00  0.00    -0.325 N 
ATOM      5  H   UNL     1      -4.106 -10.851   0.959  0.00  0.00    +0.159 HD
ATOM      6  H   UNL     1      -0.392 -10.705  -0.603  0.00  0.00    +0.169 HD
ATOM      7  H   UNL     1      -3.207 -12.268   0.890  0.00  0.00    +0.159 HD
ENDROOT
BRANCH   1  12
ATOM      8  C   UNL     1      -0.199  -6.454  -0.230  0.00  0.00    +0.061 A 
ATOM      9  C   UNL     1       0.455  -6.915  -1.358  0.00  0.00    +0.096 A 
ATOM     10  C   UNL     1       0.229  -8.228  -1.771  0.00  0.00    +0.275 A 
ATOM     11  N   UNL     1      -0.602  -8.991  -1.073  0.00  0.00    -0.172 NA
ATOM     12  C   UNL     1      -1.214  -8.513   0.007  0.00  0.00    +0.257 A 
ATOM     13  N   UNL     1      -1.012  -7.266   0.425  0.00  0.00    -0.215 NA
ATOM     14  O   UNL     1       0.851  -8.718  -2.872  0.00  0.00    -0.266 OA
BRANCH   8  15
ATOM     15  C   UNL     1       0.017  -5.042   0.251  0.00  0.00    +0.132 C 
BRANCH  15  16
ATOM     16  S   UNL     1       1.411  -5.004   1.410  0.00  0.00    -0.091 S 
BRANCH  16  21
ATOM     17  C   UNL     1       2.427   0.449   3.419  0.00  0.00    +0.075 C 
ATOM     18  C   UNL     1       2.004  -0.853   2.790  0.00  0.00    +0.100 A 
ATOM     19  N   UNL     1       1.033  -1.105   1.935  0.00  0.00    -0.146 NA
ATOM     20  N   UNL     1       0.806  -2.266   1.498  0.00  0.00    -0.135 NA
ATOM     21  C   UNL     1       1.534  -3.309   1.875  0.00  0.00    +0.159 A 
ATOM     22  S   UNL     1       2.681  -2.499   2.985  0.00  0.00    -0.044 S 
ENDBRANCH  16  21
ENDBRANCH  15  16
ENDBRANCH   8  15
ENDBRANCH   1  12
BRANCH   4  23
ATOM     23  C   UNL     1      -1.333 -12.537  -0.746  0.00  0.00    +0.056 A 
ATOM     24  C   UNL     1      -2.598 -13.085  -0.894  0.00  0.00    +0.027 A 
ATOM     25  C   UNL     1      -2.739 -14.405  -1.281  0.00  0.00    +0.002 A 
ATOM     26  C   UNL     1      -1.621 -15.183  -1.521  0.00  0.00    +0.001 A 
ATOM     27  C   UNL     1      -0.356 -14.645  -1.375  0.00  0.00    +0.017 A 
ATOM     28  C   UNL     1      -0.205 -13.320  -0.994  0.00  0.00    +0.036 A 
BRANCH  28  29
ATOM     29  S   UNL     1       1.406 -12.629  -0.815  0.00  0.00    -0.087 S 
BRANCH  29  30
ATOM     30  C   UNL     1       2.482 -13.910  -1.369  0.00  0.00    +0.013 A 
ATOM     31  C   UNL     1       2.823 -14.001  -2.713  0.00  0.00    +0.015 A 
ATOM     32  C   UNL     1       3.667 -15.005  -3.143  0.00  0.00    +0.001 A 
ATOM     33  C   UNL     1       4.173 -15.921  -2.238  0.00  0.00    +0.000 A 
ATOM     34  C   UNL     1       3.835 -15.834  -0.900  0.00  0.00    +0.001 A 
ATOM     35  C   UNL     1       2.997 -14.828  -0.461  0.00  0.00    +0.015 A 
ENDBRANCH  29  30
ENDBRANCH  28  29
ENDBRANCH   4  23
TORSDOF 7
