REMARK  Name = ZINC50307352
REMARK  8 active torsions:
REMARK  status: ('A' for Active; 'I' for Inactive)
REMARK    1  A    between atoms: C_1  and  C_2
REMARK    2  A    between atoms: C_2  and  C_3
REMARK    3  A    between atoms: C_4  and  N_21
REMARK    4  A    between atoms: C_5  and  C_9
REMARK    5  A    between atoms: N_11  and  C_12
REMARK    6  A    between atoms: C_13  and  C_19
REMARK    7  A    between atoms: C_14  and  C_18
REMARK    8  A    between atoms: C_15  and  C_17
REMARK                            x       y       z     vdW  Elec       q    Type
REMARK                         _______ _______ _______ _____ _____    ______ ____
ROOT
ATOM      1  C   UNL     1       3.498  -1.460  -3.373  0.00  0.00    +0.271 C 
ATOM      2  O   UNL     1       4.543  -1.337  -2.763  0.00  0.00    -0.268 OA
ATOM      3  N   UNL     1       3.510  -1.901  -4.647  0.00  0.00    -0.274 N 
ATOM      4  H   UNL     1       2.676  -1.999  -5.133  0.00  0.00    +0.156 HD
ENDROOT
BRANCH   3   5
ATOM      5  C   UNL     1       4.713  -2.214  -5.261  0.00  0.00    +0.090 A 
ATOM      6  C   UNL     1       4.916  -2.671  -6.555  0.00  0.00    +0.083 A 
ATOM      7  C   UNL     1       6.284  -2.921  -6.945  0.00  0.00    -0.021 A 
ATOM      8  C   UNL     1       7.216  -2.680  -6.003  0.00  0.00    -0.007 A 
ATOM      9  S   UNL     1       6.257  -2.119  -4.613  0.00  0.00    -0.077 S 
ATOM     10  C   UNL     1       8.711  -2.843  -6.104  0.00  0.00    +0.052 C 
ATOM     11  C   UNL     1       6.646  -3.420  -8.320  0.00  0.00    +0.046 C 
BRANCH   6  12
ATOM     12  C   UNL     1       3.825  -2.885  -7.457  0.00  0.00    +0.102 C 
ATOM     13  N   UNL     1       2.959  -3.054  -8.173  0.00  0.00    -0.191 NA
ENDBRANCH   6  12
ENDBRANCH   3   5
BRANCH   1  16
ATOM     14  C   UNL     1       0.707  -0.490  -1.238  0.00  0.00    +0.057 A 
ATOM     15  C   UNL     1       2.048  -0.656  -1.393  0.00  0.00    +0.078 A 
ATOM     16  C   UNL     1       2.219  -1.128  -2.720  0.00  0.00    +0.168 A 
ATOM     17  N   UNL     1       1.018  -1.213  -3.259  0.00  0.00    -0.167 NA
ATOM     18  N   UNL     1       0.123  -0.851  -2.410  0.00  0.00    -0.279 N 
ATOM     19  H   UNL     1      -0.831  -0.835  -2.583  0.00  0.00    +0.189 HD
BRANCH  15  20
ATOM     20  N   UNL     1       3.050  -0.411  -0.442  0.00  0.00    -0.355 N 
ATOM     21  H   UNL     1       2.812  -0.086   0.441  0.00  0.00    +0.142 HD
ATOM     22  H   UNL     1       3.980  -0.567  -0.666  0.00  0.00    +0.142 HD
ENDBRANCH  15  20
BRANCH  14  24
ATOM     23  C   UNL     1      -0.019   1.526   0.010  0.00  0.00    +0.010 C 
ATOM     24  C   UNL     1       0.002  -0.004   0.002  0.00  0.00    +0.053 C 
ENDBRANCH  14  24
ENDBRANCH   1  16
TORSDOF 5
