REMARK  Name = ZINC39464600
REMARK  4 active torsions:
REMARK  status: ('A' for Active; 'I' for Inactive)
REMARK    1  A    between atoms: C_1  and  O_2
REMARK    2  A    between atoms: O_2  and  P_3
REMARK    3  A    between atoms: C_11  and  C_20
REMARK    4  A    between atoms: C_25  and  O_26
REMARK                            x       y       z     vdW  Elec       q    Type
REMARK                         _______ _______ _______ _____ _____    ______ ____
ROOT
ATOM      1  P   UNL     1       0.700  -0.878   1.160  0.00  0.00    +0.421 P 
ATOM      2  O   UNL     1       0.276  -0.392   2.492  0.00  0.00    -0.239 OA
ATOM      3  N   UNL     1       2.346  -0.803   1.019  0.00  0.00    -0.156 NA
ATOM      4  N   UNL     1       2.919  -1.612   0.063  0.00  0.00    -0.224 NA
ATOM      5  C   UNL     1       4.380  -1.443   0.078  0.00  0.00    +0.108 C 
ATOM      6  C   UNL     1       4.962  -2.076  -1.186  0.00  0.00    +0.052 C 
ATOM      7  C   UNL     1       4.455  -3.489  -1.325  0.00  0.00    -0.041 A 
ATOM      8  C   UNL     1       5.142  -4.357  -2.155  0.00  0.00    +0.013 A 
ATOM      9  C   UNL     1       4.706  -5.670  -2.312  0.00  0.00    -0.001 A 
ATOM     10  C   UNL     1       3.572  -6.103  -1.626  0.00  0.00    +0.022 A 
ATOM     11  C   UNL     1       2.896  -5.230  -0.802  0.00  0.00    +0.020 A 
ATOM     12  C   UNL     1       3.333  -3.920  -0.648  0.00  0.00    -0.023 A 
ATOM     13  C   UNL     1       2.553  -3.013   0.267  0.00  0.00    +0.130 C 
ATOM     14  C   UNL     1       1.056  -3.231   0.028  0.00  0.00    +0.196 C 
ATOM     15  O   UNL     1       0.317  -2.449   0.987  0.00  0.00    -0.294 OA
ATOM     16  I   UNL     1       2.900  -8.075  -1.847  0.00  0.00    -0.043 I 
ATOM     17  H   UNL     1       2.880  -0.220   1.580  0.00  0.00    +0.153 HD
ENDROOT
BRANCH   9  18
ATOM     18  C   UNL     1       5.443  -6.601  -3.201  0.00  0.00    +0.025 A 
ATOM     19  C   UNL     1       6.745  -6.983  -2.889  0.00  0.00    +0.012 A 
ATOM     20  C   UNL     1       7.427  -7.849  -3.720  0.00  0.00    +0.001 A 
ATOM     21  C   UNL     1       6.820  -8.340  -4.862  0.00  0.00    +0.004 A 
ATOM     22  C   UNL     1       5.528  -7.968  -5.181  0.00  0.00    +0.046 A 
ATOM     23  C   UNL     1       4.830  -7.103  -4.353  0.00  0.00    +0.125 A 
BRANCH  23  24
ATOM     24  O   UNL     1       3.558  -6.741  -4.662  0.00  0.00    -0.506 OA
ATOM     25  H   UNL     1       3.498  -5.949  -5.215  0.00  0.00    +0.292 HD
ENDBRANCH  23  24
ENDBRANCH   9  18
BRANCH   1  27
ATOM     26  C   UNL     1      -0.017   1.425   0.010  0.00  0.00    +0.206 C 
ATOM     27  O   UNL     1       0.002  -0.004   0.002  0.00  0.00    -0.299 OA
ENDBRANCH   1  27
TORSDOF 3
