REMARK  Name = ZINC19220546
REMARK  8 active torsions:
REMARK  status: ('A' for Active; 'I' for Inactive)
REMARK    1  A    between atoms: C_1  and  C_2
REMARK    2  A    between atoms: C_8  and  C_12
REMARK    3  A    between atoms: C_12  and  C_14
REMARK    4  A    between atoms: C_12  and  O_34
REMARK    5  A    between atoms: C_14  and  N_15
REMARK    6  A    between atoms: C_22  and  O_33
REMARK    7  A    between atoms: C_26  and  O_31
REMARK    8  A    between atoms: O_31  and  C_32
REMARK                            x       y       z     vdW  Elec       q    Type
REMARK                         _______ _______ _______ _____ _____    ______ ____
ROOT
ATOM      1  N   UNL     1       4.965   0.059   2.371  0.00  0.00    +0.382 N 
ATOM      2  C   UNL     1       3.961   0.984   2.912  0.00  0.00    -0.075 C 
ATOM      3  C   UNL     1       4.165   2.374   2.306  0.00  0.00    +0.029 C 
ATOM      4  C   UNL     1       4.042   2.285   0.784  0.00  0.00    +0.110 C 
ATOM      5  C   UNL     1       5.062   1.278   0.249  0.00  0.00    +0.029 C 
ATOM      6  C   UNL     1       4.829  -0.080   0.915  0.00  0.00    -0.075 C 
ATOM      7  C   UNL     1       4.310   3.662   0.166  0.00  0.00    +0.084 C 
ATOM      8  C   UNL     1       3.345   4.669   0.796  0.00  0.00    +0.152 C 
ATOM      9  C   UNL     1       1.944   4.112   0.773  0.00  0.00    +0.026 A 
ATOM     10  C   UNL     1       0.879   4.983   0.934  0.00  0.00    +0.055 A 
ATOM     11  C   UNL     1      -0.422   4.505   0.923  0.00  0.00    +0.121 A 
ATOM     12  C   UNL     1      -0.658   3.150   0.745  0.00  0.00    +0.049 A 
ATOM     13  C   UNL     1       0.402   2.282   0.588  0.00  0.00    +0.049 A 
ATOM     14  C   UNL     1       1.708   2.760   0.597  0.00  0.00    +0.127 A 
ATOM     15  O   UNL     1       2.724   1.873   0.427  0.00  0.00    -0.485 OA
ATOM     16  H   UNL     1       5.958   0.487   2.575  0.00  0.00    -0.082 HD
ENDROOT
BRANCH  11  17
ATOM     17  O   UNL     1      -1.464   5.364   1.081  0.00  0.00    -0.495 OA
ATOM     18  C   UNL     1      -2.777   4.801   1.060  0.00  0.00    +0.277 C 
ENDBRANCH  11  17
BRANCH   8  19
ATOM     19  O   UNL     1       3.382   5.891   0.055  0.00  0.00    -0.387 OA
ATOM     20  H   UNL     1       2.751   6.738   0.359  0.00  0.00    +0.210 HD
ENDBRANCH   8  19
BRANCH   1  21
ATOM     21  C   UNL     1       4.889  -1.249   3.034  0.00  0.00    -0.042 C 
BRANCH  21  22
ATOM     22  C   UNL     1       5.883  -2.211   2.381  0.00  0.00    +0.130 C 
BRANCH  22  30
ATOM     23  C   UNL     1       1.999  -6.160   0.918  0.00  0.00    +0.044 C 
ATOM     24  C   UNL     1       3.134  -5.976   1.894  0.00  0.00    -0.050 A 
ATOM     25  C   UNL     1       3.454  -6.998   2.777  0.00  0.00    +0.005 A 
ATOM     26  C   UNL     1       4.487  -6.851   3.677  0.00  0.00    +0.026 A 
ATOM     27  C   UNL     1       5.217  -5.667   3.702  0.00  0.00    +0.047 A 
ATOM     28  C   UNL     1       4.884  -4.632   2.809  0.00  0.00    +0.005 A 
ATOM     29  C   UNL     1       3.838  -4.805   1.901  0.00  0.00    +0.013 A 
ATOM     30  C   UNL     1       5.827  -3.544   3.081  0.00  0.00    +0.004 A 
ATOM     31  C   UNL     1       6.627  -3.957   4.077  0.00  0.00    +0.089 A 
ATOM     32  N   UNL     1       6.277  -5.223   4.461  0.00  0.00    -0.360 N 
ATOM     33  H   UNL     1       6.707  -5.873   5.238  0.00  0.00    +0.165 HD
ENDBRANCH  22  30
BRANCH  22  34
ATOM     34  O   UNL     1       7.203  -1.674   2.484  0.00  0.00    -0.389 OA
ATOM     35  H   UNL     1       7.438  -0.700   2.030  0.00  0.00    +0.210 HD
ENDBRANCH  22  34
ENDBRANCH  21  22
ENDBRANCH   1  21
TORSDOF 6
