REMARK  Name = ZINC44516076
REMARK  6 active torsions:
REMARK  status: ('A' for Active; 'I' for Inactive)
REMARK    1  A    between atoms: C_1  and  N_2
REMARK    2  A    between atoms: C_5  and  C_8
REMARK    3  A    between atoms: C_8  and  N_9
REMARK    4  A    between atoms: N_9  and  S_10
REMARK    5  A    between atoms: S_10  and  C_13
REMARK    6  A    between atoms: C_16  and  N_20
REMARK                            x       y       z     vdW  Elec       q    Type
REMARK                         _______ _______ _______ _____ _____    ______ ____
ROOT
ATOM      1  S   UNL     1       1.765  -6.224   1.550  0.00  0.00    +0.061 S 
ATOM      2  O   UNL     1       2.666  -6.464   2.622  0.00  0.00    -0.153 OA
ATOM      3  O   UNL     1       0.362  -6.409   1.678  0.00  0.00    -0.153 OA
ENDROOT
BRANCH   1   4
ATOM      4  C   UNL     1       2.288  -7.248   0.215  0.00  0.00    +0.133 A 
ATOM      5  C   UNL     1       1.385  -7.619  -0.766  0.00  0.00    +0.047 A 
ATOM      6  C   UNL     1       1.793  -8.422  -1.814  0.00  0.00    +0.040 A 
ATOM      7  C   UNL     1       3.110  -8.858  -1.883  0.00  0.00    +0.027 A 
ATOM      8  C   UNL     1       4.014  -8.484  -0.897  0.00  0.00    +0.040 A 
ATOM      9  C   UNL     1       3.602  -7.676   0.146  0.00  0.00    +0.047 A 
ATOM     10 BR   UNL     1       4.834  -7.161   1.485  0.00  0.00    -0.048 Br
ATOM     11 BR   UNL     1      -0.407  -7.025  -0.672  0.00  0.00    -0.048 Br
BRANCH   7  12
ATOM     12  N   UNL     1       3.524  -9.671  -2.940  0.00  0.00    -0.358 N 
ATOM     13  H   UNL     1       2.892  -9.931  -3.628  0.00  0.00    +0.142 HD
ATOM     14  H   UNL     1       4.444  -9.974  -2.987  0.00  0.00    +0.142 HD
ENDBRANCH   7  12
ENDBRANCH   1   4
BRANCH   1  15
ATOM     15  N   UNL     1       1.995  -4.653   1.081  0.00  0.00    -0.190 NA
ATOM     16  H   UNL     1       2.641  -4.098   1.545  0.00  0.00    +0.148 HD
BRANCH  15  17
ATOM     17  C   UNL     1       1.223  -4.101  -0.035  0.00  0.00    +0.109 C 
BRANCH  17  22
ATOM     18  C   UNL     1      -0.018   1.465   0.010  0.00  0.00    -0.096 C 
ATOM     19  N   UNL     1       0.002  -0.004   0.002  0.00  0.00    +0.378 N 
ATOM     20  C   UNL     1       0.681  -0.476  -1.210  0.00  0.00    -0.079 C 
ATOM     21  C   UNL     1       0.634  -2.005  -1.264  0.00  0.00    -0.014 C 
ATOM     22  C   UNL     1       1.336  -2.575  -0.029  0.00  0.00    +0.001 C 
ATOM     23  C   UNL     1       0.666  -2.018   1.230  0.00  0.00    -0.014 C 
ATOM     24  C   UNL     1       0.712  -0.489   1.192  0.00  0.00    -0.079 C 
ATOM     25  H   UNL     1      -0.945  -0.352   0.012  0.00  0.00    -0.082 HD
ENDBRANCH  17  22
ENDBRANCH  15  17
ENDBRANCH   1  15
TORSDOF 5
