REMARK  Name = ZINC12369316
REMARK  10 active torsions:
REMARK  status: ('A' for Active; 'I' for Inactive)
REMARK    1  A    between atoms: C_1  and  C_2
REMARK    2  A    between atoms: C_2  and  C_3
REMARK    3  A    between atoms: C_3  and  C_5
REMARK    4  A    between atoms: C_3  and  C_6
REMARK    5  A    between atoms: C_6  and  N_7
REMARK    6  A    between atoms: N_7  and  C_8
REMARK    7  A    between atoms: C_8  and  N_10
REMARK    8  A    between atoms: N_10  and  C_11
REMARK    9  A    between atoms: N_19  and  C_22
REMARK   10  A    between atoms: C_25  and  C_27
REMARK                            x       y       z     vdW  Elec       q    Type
REMARK                         _______ _______ _______ _____ _____    ______ ____
ROOT
ATOM      1  C   UNL     1      -6.793   4.366   9.923  0.00  0.00    +0.049 A 
ATOM      2  C   UNL     1      -6.378   3.035   9.911  0.00  0.00    +0.028 A 
ATOM      3  C   UNL     1      -5.657   2.579   8.823  0.00  0.00    +0.043 A 
ATOM      4  C   UNL     1      -5.362   3.461   7.787  0.00  0.00    +0.099 A 
ATOM      5  C   UNL     1      -6.466   5.185   8.853  0.00  0.00    +0.107 A 
ATOM      6  N   UNL     1      -4.633   3.013   6.689  0.00  0.00    -0.314 N 
ATOM      7  C   UNL     1      -4.437   4.093   5.712  0.00  0.00    +0.125 C 
ATOM      8  C   UNL     1      -3.702   3.541   4.487  0.00  0.00    +0.125 C 
ATOM      9  N   UNL     1      -2.413   2.974   4.907  0.00  0.00    -0.314 N 
ATOM     10  C   UNL     1      -2.609   1.895   5.885  0.00  0.00    +0.125 C 
ATOM     11  C   UNL     1      -3.344   2.446   7.109  0.00  0.00    +0.125 C 
ATOM     12  N   UNL     1      -5.755   4.767   7.772  0.00  0.00    -0.348 N 
ATOM     13  H   UNL     1      -5.527   5.395   6.993  0.00  0.00    +0.167 HD
ENDROOT
BRANCH   9  14
ATOM     14  C   UNL     1      -1.685   2.527   3.811  0.00  0.00    +0.099 A 
ATOM     15  C   UNL     1      -0.431   1.955   4.003  0.00  0.00    +0.042 A 
ATOM     16  C   UNL     1       0.282   1.515   2.903  0.00  0.00    +0.017 A 
ATOM     17  C   UNL     1      -0.284   1.662   1.643  0.00  0.00    +0.071 A 
ATOM     18  C   UNL     1      -1.530   2.244   1.526  0.00  0.00    +0.096 A 
ATOM     19  N   UNL     1      -2.262   2.682   2.584  0.00  0.00    -0.349 N 
ATOM     20  H   UNL     1      -3.192   3.103   2.468  0.00  0.00    +0.167 HD
BRANCH  17  21
ATOM     21  C   UNL     1       0.458   1.197   0.416  0.00  0.00    +0.419 C 
ATOM     22  F   UNL     1       0.128  -0.136   0.149  0.00  0.00    -0.166 F 
ATOM     23  F   UNL     1       1.835   1.301   0.637  0.00  0.00    -0.166 F 
ATOM     24  F   UNL     1       0.099   1.994  -0.676  0.00  0.00    -0.166 F 
ENDBRANCH  17  21
ENDBRANCH   9  14
BRANCH   1  25
ATOM     25  N   UNL     1      -7.530   4.870  11.003  0.00  0.00    -0.296 N 
ATOM     26  H   UNL     1      -7.302   5.732  11.386  0.00  0.00    +0.154 HD
BRANCH  25  27
ATOM     27  C   UNL     1      -8.555   4.158  11.510  0.00  0.00    +0.135 C 
ATOM     28  S   UNL     1      -8.890   2.591  10.907  0.00  0.00    -0.019 S 
BRANCH  27  29
ATOM     29  N   UNL     1      -9.318   4.679  12.492  0.00  0.00    -0.326 N 
ATOM     30  H   UNL     1      -9.129   5.567  12.833  0.00  0.00    +0.148 HD
BRANCH  29  31
ATOM     31  C   UNL     1     -10.433   3.905  13.043  0.00  0.00    +0.106 C 
BRANCH  31  32
ATOM     32  C   UNL     1     -11.129   4.720  14.134  0.00  0.00    +0.003 C 
ATOM     33  C   UNL     1     -11.768   5.963  13.513  0.00  0.00    +0.009 C 
BRANCH  32  35
ATOM     34  C   UNL     1     -12.825   4.635  15.967  0.00  0.00    +0.004 C 
ATOM     35  C   UNL     1     -12.213   3.865  14.795  0.00  0.00    +0.001 C 
ENDBRANCH  32  35
ENDBRANCH  31  32
ENDBRANCH  29  31
ENDBRANCH  27  29
ENDBRANCH  25  27
ENDBRANCH   1  25
TORSDOF 8
