REMARK  Name = ZINC39693483
REMARK  11 active torsions:
REMARK  status: ('A' for Active; 'I' for Inactive)
REMARK    1  A    between atoms: C_1  and  C_2
REMARK    2  A    between atoms: C_2  and  C_3
REMARK    3  A    between atoms: C_2  and  C_4
REMARK    4  A    between atoms: C_2  and  O_5
REMARK    5  A    between atoms: O_5  and  C_6
REMARK    6  A    between atoms: N_8  and  C_9
REMARK    7  A    between atoms: C_9  and  C_10
REMARK    8  A    between atoms: C_10  and  N_11
REMARK    9  A    between atoms: C_12  and  C_14
REMARK   10  A    between atoms: C_25  and  C_27
REMARK   11  A    between atoms: N_31  and  C_32
REMARK                            x       y       z     vdW  Elec       q    Type
REMARK                         _______ _______ _______ _____ _____    ______ ____
ROOT
ATOM      1  C   UNL     1       8.904   0.277  -4.950  0.00  0.00    +0.100 C 
ATOM      2  C   UNL     1       9.670  -0.511  -3.864  0.00  0.00    +0.121 C 
ATOM      3  N   UNL     1       9.864  -1.860  -4.447  0.00  0.00    -0.295 N 
ATOM      4  C   UNL     1      10.170  -1.604  -5.875  0.00  0.00    +0.115 C 
ATOM      5  C   UNL     1       9.238  -0.441  -6.269  0.00  0.00    -0.004 C 
ATOM      6  C   UNL     1       9.955   0.510  -7.222  0.00  0.00    -0.010 C 
ATOM      7  C   UNL     1      10.225  -0.208  -8.547  0.00  0.00    -0.082 C 
ATOM      8  N   UNL     1       8.954  -0.654  -9.132  0.00  0.00    +0.379 N 
ATOM      9  C   UNL     1       8.316  -1.640  -8.251  0.00  0.00    -0.082 C 
ATOM     10  C   UNL     1       7.965  -0.981  -6.914  0.00  0.00    -0.010 C 
ATOM     11  C   UNL     1       9.780  -3.050  -3.820  0.00  0.00    +0.263 C 
ATOM     12  O   UNL     1      10.152  -4.062  -4.385  0.00  0.00    -0.268 OA
ATOM     13  H   UNL     1       8.341   0.140  -9.245  0.00  0.00    -0.086 HD
ATOM     14  H   UNL     1       9.129  -1.073 -10.033  0.00  0.00    -0.086 HD
ENDROOT
BRANCH  11  15
ATOM     15  C   UNL     1       9.242  -3.126  -2.458  0.00  0.00    +0.104 A 
ATOM     16  C   UNL     1       8.473  -2.168  -1.831  0.00  0.00    +0.032 A 
ATOM     17  C   UNL     1       8.181  -2.649  -0.551  0.00  0.00    +0.020 A 
ATOM     18  C   UNL     1       8.764  -3.865  -0.421  0.00  0.00    +0.086 A 
ATOM     19  N   UNL     1       9.406  -4.169  -1.575  0.00  0.00    -0.346 N 
ATOM     20  C   UNL     1      10.154  -5.401  -1.837  0.00  0.00    +0.149 C 
ENDBRANCH  11  15
BRANCH   1  22
ATOM     21  N   UNL     1       6.636   1.258  -5.060  0.00  0.00    -0.314 N 
ATOM     22  C   UNL     1       7.421   0.228  -4.688  0.00  0.00    +0.218 C 
ATOM     23  O   UNL     1       6.934  -0.739  -4.141  0.00  0.00    -0.275 OA
ATOM     24  H   UNL     1       7.025   2.031  -5.498  0.00  0.00    +0.149 HD
BRANCH  21  25
ATOM     25  C   UNL     1       5.194   1.210  -4.804  0.00  0.00    +0.123 C 
BRANCH  25  26
ATOM     26  C   UNL     1       4.542   2.493  -5.321  0.00  0.00    +0.126 C 
BRANCH  26  29
ATOM     27  C   UNL     1       2.315   3.475  -5.438  0.00  0.00    +0.401 C 
ATOM     28  O   UNL     1       2.803   4.444  -5.986  0.00  0.00    -0.226 OA
ATOM     29  N   UNL     1       3.100   2.445  -5.066  0.00  0.00    -0.280 N 
ATOM     30  H   UNL     1       2.710   1.672  -4.628  0.00  0.00    +0.152 HD
BRANCH  27  31
ATOM     31  O   UNL     1       0.990   3.431  -5.203  0.00  0.00    -0.445 OA
BRANCH  31  33
ATOM     32  C   UNL     1       0.362   4.737  -7.138  0.00  0.00    +0.055 C 
ATOM     33  C   UNL     1       0.218   4.558  -5.625  0.00  0.00    +0.107 C 
ATOM     34  C   UNL     1       0.720   5.815  -4.912  0.00  0.00    +0.055 C 
ATOM     35  C   UNL     1      -1.254   4.327  -5.276  0.00  0.00    +0.055 C 
ENDBRANCH  31  33
ENDBRANCH  27  31
ENDBRANCH  26  29
ENDBRANCH  25  26
ENDBRANCH  21  25
ENDBRANCH   1  22
TORSDOF 7
