REMARK  Name = ZINC11990910
REMARK  6 active torsions:
REMARK  status: ('A' for Active; 'I' for Inactive)
REMARK    1  A    between atoms: C_4  and  C_7
REMARK    2  A    between atoms: N_17  and  C_18
REMARK    3  A    between atoms: C_18  and  C_19
REMARK    4  A    between atoms: N_21  and  N_22
REMARK    5  A    between atoms: C_23  and  C_25
REMARK    6  A    between atoms: C_25  and  C_26
REMARK                            x       y       z     vdW  Elec       q    Type
REMARK                         _______ _______ _______ _____ _____    ______ ____
ROOT
ATOM      1  C   UNL     1      -1.262   5.859   0.122  0.00  0.00    +0.144 A 
ATOM      2  N   UNL     1      -0.092   5.276   0.075  0.00  0.00    -0.229 NA
ATOM      3  C   UNL     1       0.027   3.935  -0.008  0.00  0.00    +0.079 A 
ATOM      4  C   UNL     1       1.279   3.314  -0.059  0.00  0.00    +0.028 A 
ATOM      5  C   UNL     1       1.358   1.953  -0.142  0.00  0.00    +0.002 A 
ATOM      6  C   UNL     1       0.211   1.171  -0.178  0.00  0.00    +0.001 A 
ATOM      7  C   UNL     1      -1.036   1.754  -0.135  0.00  0.00    +0.015 A 
ATOM      8  C   UNL     1      -1.141   3.140  -0.044  0.00  0.00    +0.065 A 
ATOM      9  C   UNL     1      -2.445   3.818   0.011  0.00  0.00    +0.262 A 
ATOM     10  O   UNL     1      -3.486   3.189  -0.017  0.00  0.00    -0.267 OA
ATOM     11  N   UNL     1      -2.442   5.170   0.092  0.00  0.00    -0.283 N 
ENDROOT
BRANCH   1  15
ATOM     12  C   UNL     1      -1.400  10.097   0.380  0.00  0.00    +0.000 A 
ATOM     13  C   UNL     1      -0.706   9.371   1.332  0.00  0.00    +0.001 A 
ATOM     14  C   UNL     1      -0.658   7.995   1.254  0.00  0.00    +0.011 A 
ATOM     15  C   UNL     1      -1.310   7.334   0.211  0.00  0.00    +0.018 A 
ATOM     16  C   UNL     1      -2.002   8.073  -0.749  0.00  0.00    +0.011 A 
ATOM     17  C   UNL     1      -2.049   9.448  -0.656  0.00  0.00    +0.001 A 
ENDBRANCH   1  15
BRANCH  11  18
ATOM     18  C   UNL     1      -3.713   5.897   0.149  0.00  0.00    +0.224 C 
BRANCH  18  19
ATOM     19  C   UNL     1      -4.151   6.030   1.585  0.00  0.00    +0.249 C 
ATOM     20  O   UNL     1      -3.470   5.564   2.473  0.00  0.00    -0.272 OA
ATOM     21  N   UNL     1      -5.301   6.669   1.882  0.00  0.00    -0.233 N 
ATOM     22  H   UNL     1      -5.846   7.042   1.172  0.00  0.00    +0.173 HD
BRANCH  21  23
ATOM     23  N   UNL     1      -5.708   6.793   3.217  0.00  0.00    -0.234 N 
ATOM     24  C   UNL     1      -6.858   7.431   3.514  0.00  0.00    +0.229 C 
ATOM     25  O   UNL     1      -7.539   7.898   2.626  0.00  0.00    -0.274 OA
ATOM     26  H   UNL     1      -5.163   6.419   3.927  0.00  0.00    +0.173 HD
BRANCH  24  27
ATOM     27  C   UNL     1      -7.296   7.564   4.949  0.00  0.00    +0.102 C 
BRANCH  27  28
ATOM     28  C   UNL     1      -8.623   8.324   5.009  0.00  0.00    +0.020 C 
ATOM     29  C   UNL     1      -8.411   9.775   4.545  0.00  0.00    +0.028 C 
ATOM     30  C   UNL     1      -9.652  10.629   4.901  0.00  0.00    +0.166 C 
ATOM     31  S   UNL     1     -10.323   9.769   6.382  0.00  0.00    -0.031 S 
ATOM     32  O   UNL     1     -11.619   9.271   6.080  0.00  0.00    -0.174 OA
ATOM     33  O   UNL     1     -10.140  10.598   7.521  0.00  0.00    -0.174 OA
ATOM     34  C   UNL     1      -9.145   8.355   6.474  0.00  0.00    +0.170 C 
ENDBRANCH  27  28
ENDBRANCH  24  27
ENDBRANCH  21  23
ENDBRANCH  18  19
ENDBRANCH  11  18
TORSDOF 6
