REMARK  Name = ZINC29561580
REMARK  9 active torsions:
REMARK  status: ('A' for Active; 'I' for Inactive)
REMARK    1  A    between atoms: C_1  and  C_2
REMARK    2  A    between atoms: C_5  and  S_8
REMARK    3  A    between atoms: S_8  and  N_11
REMARK    4  A    between atoms: N_11  and  C_12
REMARK    5  A    between atoms: N_11  and  C_13
REMARK    6  A    between atoms: C_13  and  C_14
REMARK    7  A    between atoms: N_16  and  N_17
REMARK    8  A    between atoms: C_18  and  C_20
REMARK    9  A    between atoms: C_24  and  C_30
REMARK                            x       y       z     vdW  Elec       q    Type
REMARK                         _______ _______ _______ _____ _____    ______ ____
ROOT
ATOM      1  C   UNL     1       1.722   2.369  -1.417  0.00  0.00    +0.245 C 
ATOM      2  O   UNL     1       1.077   1.901  -2.332  0.00  0.00    -0.273 OA
ATOM      3  N   UNL     1       2.869   3.030  -1.670  0.00  0.00    -0.233 N 
ATOM      4  H   UNL     1       3.454   3.454  -0.840  0.00  0.00    +0.173 HD
ENDROOT
BRANCH   3   5
ATOM      5  N   UNL     1       3.317   3.177  -2.989  0.00  0.00    -0.229 N 
ATOM      6  C   UNL     1       4.464   3.838  -3.242  0.00  0.00    +0.276 C 
ATOM      7  O   UNL     1       5.111   4.307  -2.325  0.00  0.00    -0.267 OA
ATOM      8  H   UNL     1       2.732   2.753  -3.819  0.00  0.00    +0.173 HD
BRANCH   6   9
ATOM      9  C   UNL     1       4.934   3.992  -4.627  0.00  0.00    +0.104 A 
ATOM     10  C   UNL     1       6.066   4.639  -5.007  0.00  0.00    +0.041 A 
ATOM     11  C   UNL     1       6.156   4.558  -6.418  0.00  0.00    +0.001 A 
ATOM     12  C   UNL     1       7.089   5.029  -7.351  0.00  0.00    +0.013 A 
ATOM     13  C   UNL     1       6.897   4.794  -8.681  0.00  0.00    -0.050 A 
ATOM     14  C   UNL     1       5.782   4.091  -9.121  0.00  0.00    +0.005 A 
ATOM     15  C   UNL     1       4.851   3.618  -8.224  0.00  0.00    +0.026 A 
ATOM     16  C   UNL     1       5.026   3.845  -6.861  0.00  0.00    +0.047 A 
ATOM     17  N   UNL     1       4.291   3.508  -5.750  0.00  0.00    -0.351 N 
ATOM     18  H   UNL     1       3.346   2.954  -5.646  0.00  0.00    +0.166 HD
ATOM     19  C   UNL     1       7.902   5.301  -9.682  0.00  0.00    +0.044 C 
ENDBRANCH   6   9
ENDBRANCH   3   5
BRANCH   1  20
ATOM     20  C   UNL     1       1.241   2.211   0.002  0.00  0.00    +0.206 C 
BRANCH  20  21
ATOM     21  N   UNL     1      -0.018   1.461   0.010  0.00  0.00    -0.171 NA
ATOM     22  C   UNL     1       0.002  -0.004   0.002  0.00  0.00    +0.132 C 
BRANCH  21  23
ATOM     23  S   UNL     1      -1.463   2.269   0.021  0.00  0.00    +0.061 S 
ATOM     24  O   UNL     1      -1.212   3.557  -0.524  0.00  0.00    -0.153 OA
ATOM     25  O   UNL     1      -2.428   1.384  -0.530  0.00  0.00    -0.153 OA
BRANCH  23  30
ATOM     26  C   UNL     1      -2.993   3.109   5.797  0.00  0.00    +0.044 C 
ATOM     27  C   UNL     1      -2.611   2.899   4.354  0.00  0.00    -0.050 A 
ATOM     28  C   UNL     1      -1.851   3.848   3.696  0.00  0.00    +0.005 A 
ATOM     29  C   UNL     1      -1.500   3.655   2.373  0.00  0.00    +0.029 A 
ATOM     30  C   UNL     1      -1.910   2.514   1.708  0.00  0.00    +0.105 A 
ATOM     31  C   UNL     1      -2.674   1.568   2.365  0.00  0.00    +0.029 A 
ATOM     32  C   UNL     1      -3.021   1.759   3.690  0.00  0.00    +0.005 A 
ENDBRANCH  23  30
ENDBRANCH  21  23
ENDBRANCH  20  21
ENDBRANCH   1  20
TORSDOF 6
