REMARK  Name = ZINC13552415
REMARK  8 active torsions:
REMARK  status: ('A' for Active; 'I' for Inactive)
REMARK    1  A    between atoms: C_1  and  C_2
REMARK    2  A    between atoms: C_2  and  O_3
REMARK    3  A    between atoms: O_3  and  C_4
REMARK    4  A    between atoms: C_7  and  N_10
REMARK    5  A    between atoms: C_16  and  C_26
REMARK    6  A    between atoms: C_16  and  C_27
REMARK    7  A    between atoms: C_21  and  C_25
REMARK    8  A    between atoms: C_23  and  C_24
REMARK                            x       y       z     vdW  Elec       q    Type
REMARK                         _______ _______ _______ _____ _____    ______ ____
ROOT
ATOM      1  N   UNL     1      -1.111   2.543   0.021  0.00  0.00    -0.240 NA
ATOM      2  C   UNL     1      -0.023   1.783   0.021  0.00  0.00    +0.117 A 
ATOM      3  C   UNL     1       1.318   2.256   0.005  0.00  0.00    +0.029 A 
ATOM      4  C   UNL     1       2.453   1.486  -0.021  0.00  0.00    +0.030 A 
ATOM      5  S   UNL     1       2.083  -0.206  -0.001  0.00  0.00    -0.052 S 
ATOM      6  S   UNL     1       0.001  -0.005   0.032  0.00  0.00    -0.032 S 
ATOM      7  C   UNL     1       3.845   2.067  -0.076  0.00  0.00    +0.059 C 
ATOM      8  N   UNL     1       3.879   3.344   0.640  0.00  0.00    -0.334 N 
ATOM      9  C   UNL     1       2.851   4.213   0.281  0.00  0.00    +0.039 A 
ATOM     10  C   UNL     1       1.565   3.748   0.001  0.00  0.00    +0.007 A 
ATOM     11  C   UNL     1       0.530   4.624  -0.282  0.00  0.00    +0.013 A 
ATOM     12  C   UNL     1       0.783   5.985  -0.304  0.00  0.00    -0.050 A 
ATOM     13  C   UNL     1       2.059   6.454  -0.049  0.00  0.00    +0.008 A 
ATOM     14  C   UNL     1       3.091   5.582   0.241  0.00  0.00    -0.029 A 
ATOM     15  C   UNL     1       4.474   6.114   0.515  0.00  0.00    +0.045 C 
ATOM     16  C   UNL     1      -0.331   6.954  -0.606  0.00  0.00    +0.044 C 
ATOM     17  C   UNL     1       4.829   1.093   0.575  0.00  0.00    +0.037 C 
ATOM     18  C   UNL     1       4.245   2.291  -1.536  0.00  0.00    +0.037 C 
ATOM     19  H   UNL     1       3.898   3.198   1.638  0.00  0.00    +0.147 HD
ENDROOT
BRANCH   1  23
ATOM     20  C   UNL     1      -4.853   0.801  -0.280  0.00  0.00    +0.121 A 
ATOM     21  C   UNL     1      -4.325   1.095   0.970  0.00  0.00    +0.048 A 
ATOM     22  C   UNL     1      -3.079   1.675   1.076  0.00  0.00    +0.031 A 
ATOM     23  C   UNL     1      -2.346   1.968  -0.078  0.00  0.00    +0.065 A 
ATOM     24  C   UNL     1      -2.884   1.675  -1.335  0.00  0.00    +0.031 A 
ATOM     25  C   UNL     1      -4.130   1.089  -1.429  0.00  0.00    +0.048 A 
BRANCH  20  26
ATOM     26  O   UNL     1      -6.083   0.229  -0.380  0.00  0.00    -0.492 OA
BRANCH  26  28
ATOM     27  C   UNL     1      -7.954  -0.684  -1.607  0.00  0.00    +0.048 C 
ATOM     28  C   UNL     1      -6.566  -0.046  -1.696  0.00  0.00    +0.225 C 
ENDBRANCH  26  28
ENDBRANCH  20  26
ENDBRANCH   1  23
TORSDOF 3
