REMARK  Name = ZINC20705541
REMARK  6 active torsions:
REMARK  status: ('A' for Active; 'I' for Inactive)
REMARK    1  A    between atoms: C_3  and  C_10
REMARK    2  A    between atoms: C_5  and  N_7
REMARK    3  A    between atoms: C_21  and  S_26
REMARK    4  A    between atoms: S_26  and  N_29
REMARK    5  A    between atoms: N_29  and  C_30
REMARK    6  A    between atoms: C_30  and  C_31
REMARK                            x       y       z     vdW  Elec       q    Type
REMARK                         _______ _______ _______ _____ _____    ______ ____
ROOT
ATOM      1  C   UNL     1       3.672   2.182  -0.025  0.00  0.00    +0.105 C 
ATOM      2  C   UNL     1       3.934   2.748  -1.409  0.00  0.00    +0.029 C 
ATOM      3  C   UNL     1       4.261   1.747  -2.525  0.00  0.00    +0.033 C 
ATOM      4  C   UNL     1       5.149   2.588  -3.443  0.00  0.00    -0.030 C 
ATOM      5  C   UNL     1       5.740   3.551  -2.746  0.00  0.00    -0.023 C 
ATOM      6  C   UNL     1       5.337   3.422  -1.323  0.00  0.00    +0.049 C 
ATOM      7  C   UNL     1       5.224   4.596  -0.431  0.00  0.00    -0.018 A 
ATOM      8  C   UNL     1       5.954   5.748  -0.629  0.00  0.00    +0.034 A 
ATOM      9  C   UNL     1       5.842   6.806   0.255  0.00  0.00    +0.106 A 
ATOM     10  C   UNL     1       4.992   6.711   1.341  0.00  0.00    +0.030 A 
ATOM     11  C   UNL     1       4.249   5.566   1.543  0.00  0.00    +0.025 A 
ATOM     12  C   UNL     1       4.351   4.499   0.658  0.00  0.00    +0.031 A 
ATOM     13  N   UNL     1       3.576   3.353   0.874  0.00  0.00    -0.336 N 
ATOM     14  H   UNL     1       2.886   3.333   1.731  0.00  0.00    +0.147 HD
ENDROOT
BRANCH   1  17
ATOM     15  C   UNL     1      -0.017   1.378   0.010  0.00  0.00    +0.003 A 
ATOM     16  C   UNL     1       1.171   2.085   0.002  0.00  0.00    +0.005 A 
ATOM     17  C   UNL     1       2.377   1.411  -0.015  0.00  0.00    -0.025 A 
ATOM     18  C   UNL     1       2.396   0.028  -0.022  0.00  0.00    +0.038 A 
ATOM     19  C   UNL     1       1.209  -0.679  -0.013  0.00  0.00    +0.127 A 
ATOM     20  C   UNL     1       0.002  -0.004   0.002  0.00  0.00    +0.033 A 
BRANCH  19  21
ATOM     21  N   UNL     1       1.229  -2.159  -0.021  0.00  0.00    +0.056 N 
ATOM     22  O   UNL     1       0.182  -2.782  -0.014  0.00  0.00    -0.126 OA
ATOM     23  O   UNL     1       2.292  -2.754  -0.034  0.00  0.00    -0.126 OA
ENDBRANCH  19  21
ENDBRANCH   1  17
BRANCH   9  24
ATOM     24  S   UNL     1       6.780   8.274  -0.005  0.00  0.00    +0.058 S 
ATOM     25  O   UNL     1       7.087   8.320  -1.391  0.00  0.00    -0.153 OA
ATOM     26  O   UNL     1       6.086   9.322   0.657  0.00  0.00    -0.153 OA
BRANCH  24  27
ATOM     27  N   UNL     1       8.219   8.083   0.792  0.00  0.00    -0.187 NA
ATOM     28  H   UNL     1       8.386   8.620   1.738  0.00  0.00    +0.148 HD
BRANCH  27  29
ATOM     29  C   UNL     1       9.163   7.048   0.362  0.00  0.00    +0.137 C 
BRANCH  29  30
ATOM     30  C   UNL     1      10.533   7.314   0.990  0.00  0.00    +0.134 C 
ATOM     31  C   UNL     1      11.562   6.297   0.452  0.00  0.00    +0.035 C 
ATOM     32  C   UNL     1      12.405   5.980   1.718  0.00  0.00    +0.031 C 
ATOM     33  C   UNL     1      11.323   6.073   2.823  0.00  0.00    +0.160 C 
ATOM     34  O   UNL     1      10.457   7.143   2.410  0.00  0.00    -0.375 OA
ENDBRANCH  29  30
ENDBRANCH  27  29
ENDBRANCH  24  27
ENDBRANCH   9  24
TORSDOF 6
