REMARK  Name = ZINC59112597
REMARK  14 active torsions:
REMARK  status: ('A' for Active; 'I' for Inactive)
REMARK    1  A    between atoms: C_1  and  C_2
REMARK    2  A    between atoms: C_3  and  N_9
REMARK    3  A    between atoms: N_9  and  C_10
REMARK    4  A    between atoms: C_10  and  N_12
REMARK    5  A    between atoms: N_12  and  C_13
REMARK    6  A    between atoms: C_13  and  C_14
REMARK    7  A    between atoms: C_14  and  C_15
REMARK    8  A    between atoms: C_14  and  C_16
REMARK    9  A    between atoms: C_14  and  C_17
REMARK   10  A    between atoms: C_17  and  N_18
REMARK   11  A    between atoms: N_18  and  C_19
REMARK   12  A    between atoms: C_19  and  N_21
REMARK   13  A    between atoms: N_21  and  C_22
REMARK   14  A    between atoms: C_27  and  C_28
REMARK                            x       y       z     vdW  Elec       q    Type
REMARK                         _______ _______ _______ _____ _____    ______ ____
ROOT
ATOM      1  C   UNL     1       0.000   0.404  -7.194  0.00  0.00    -0.004 C 
ATOM      2  C   UNL     1      -1.091   1.473  -7.277  0.00  0.00    +0.014 C 
ATOM      3  C   UNL     1       1.351   1.073  -6.929  0.00  0.00    +0.014 C 
ENDROOT
BRANCH   1   4
ATOM      4  C   UNL     1      -0.321  -0.566  -6.056  0.00  0.00    +0.111 C 
BRANCH   4   5
ATOM      5  N   UNL     1      -0.380   0.169  -4.790  0.00  0.00    -0.326 N 
ATOM      6  H   UNL     1      -0.225   1.127  -4.778  0.00  0.00    +0.148 HD
BRANCH   5   7
ATOM      7  C   UNL     1      -0.650  -0.485  -3.643  0.00  0.00    +0.135 C 
ATOM      8  S   UNL     1      -0.924  -2.174  -3.665  0.00  0.00    -0.019 S 
BRANCH   7   9
ATOM      9  N   UNL     1      -0.705   0.192  -2.478  0.00  0.00    -0.297 N 
ATOM     10  H   UNL     1      -0.598   1.156  -2.472  0.00  0.00    +0.154 HD
BRANCH   9  13
ATOM     11  C   UNL     1      -2.361   1.405  -0.508  0.00  0.00    +0.047 C 
ATOM     12  C   UNL     1      -1.718   0.059  -0.290  0.00  0.00    -0.011 A 
ATOM     13  C   UNL     1      -0.917  -0.496  -1.279  0.00  0.00    +0.037 A 
ATOM     14  C   UNL     1      -0.326  -1.736  -1.075  0.00  0.00    +0.023 A 
ATOM     15  C   UNL     1      -0.536  -2.414   0.110  0.00  0.00    +0.003 A 
ATOM     16  C   UNL     1      -1.335  -1.859   1.093  0.00  0.00    +0.020 A 
ATOM     17  C   UNL     1      -1.920  -0.621   0.896  0.00  0.00    +0.046 A 
ATOM     18 CL   UNL     1      -2.916   0.075   2.136  0.00  0.00    -0.083 Cl
ENDBRANCH   9  13
ENDBRANCH   7   9
ENDBRANCH   5   7
ENDBRANCH   4   5
ENDBRANCH   1   4
BRANCH   1  19
ATOM     19  C   UNL     1       0.063  -0.364  -8.516  0.00  0.00    +0.111 C 
BRANCH  19  20
ATOM     20  N   UNL     1       0.370   0.564  -9.607  0.00  0.00    -0.326 N 
ATOM     21  H   UNL     1       0.498   1.507  -9.419  0.00  0.00    +0.148 HD
BRANCH  20  22
ATOM     22  C   UNL     1       0.475   0.108 -10.871  0.00  0.00    +0.135 C 
ATOM     23  S   UNL     1       0.250  -1.556 -11.202  0.00  0.00    -0.019 S 
BRANCH  22  24
ATOM     24  N   UNL     1       0.758   0.963 -11.874  0.00  0.00    -0.297 N 
ATOM     25  H   UNL     1       0.955   1.892 -11.678  0.00  0.00    +0.154 HD
BRANCH  24  26
ATOM     26  C   UNL     1       0.767   0.509 -13.197  0.00  0.00    +0.037 A 
ATOM     27  C   UNL     1       1.403  -0.682 -13.520  0.00  0.00    +0.023 A 
ATOM     28  C   UNL     1       1.411  -1.128 -14.827  0.00  0.00    +0.003 A 
ATOM     29  C   UNL     1       0.786  -0.390 -15.815  0.00  0.00    +0.020 A 
ATOM     30  C   UNL     1       0.151   0.798 -15.497  0.00  0.00    +0.046 A 
ATOM     31  C   UNL     1       0.136   1.247 -14.190  0.00  0.00    -0.011 A 
ATOM     32  C   UNL     1      -0.561   2.538 -13.843  0.00  0.00    +0.047 C 
ATOM     33 CL   UNL     1      -0.631   1.723 -16.741  0.00  0.00    -0.083 Cl
ENDBRANCH  24  26
ENDBRANCH  22  24
ENDBRANCH  20  22
ENDBRANCH  19  20
ENDBRANCH   1  19
TORSDOF 10
