REMARK  Name = ZINC44714390
REMARK  9 active torsions:
REMARK  status: ('A' for Active; 'I' for Inactive)
REMARK    1  A    between atoms: C_1  and  C_2
REMARK    2  A    between atoms: C_3  and  C_14
REMARK    3  A    between atoms: C_6  and  C_12
REMARK    4  A    between atoms: C_14  and  C_15
REMARK    5  A    between atoms: C_15  and  N_16
REMARK    6  A    between atoms: C_17  and  C_19
REMARK    7  A    between atoms: C_30  and  C_32
REMARK    8  A    between atoms: C_32  and  C_33
REMARK    9  A    between atoms: C_32  and  C_34
REMARK                            x       y       z     vdW  Elec       q    Type
REMARK                         _______ _______ _______ _____ _____    ______ ____
ROOT
ATOM      1  N   UNL     1       2.060   3.041  -4.625  0.00  0.00    -0.315 N 
ATOM      2  C   UNL     1       2.417   1.976  -5.370  0.00  0.00    +0.218 C 
ATOM      3  O   UNL     1       2.843   0.975  -4.834  0.00  0.00    -0.275 OA
ATOM      4  H   UNL     1       1.719   3.841  -5.054  0.00  0.00    +0.149 HD
ENDROOT
BRANCH   2   5
ATOM      5  C   UNL     1       2.286   2.029  -6.871  0.00  0.00    +0.100 C 
ATOM      6  C   UNL     1       2.073   0.609  -7.443  0.00  0.00    +0.121 C 
ATOM      7  N   UNL     1       2.835   0.599  -8.713  0.00  0.00    -0.300 N 
ATOM      8  C   UNL     1       4.071   1.360  -8.408  0.00  0.00    +0.115 C 
ATOM      9  C   UNL     1       3.599   2.517  -7.506  0.00  0.00    -0.004 C 
ATOM     10  C   UNL     1       4.636   2.799  -6.424  0.00  0.00    -0.010 C 
ATOM     11  C   UNL     1       5.913   3.339  -7.075  0.00  0.00    -0.082 C 
ATOM     12  N   UNL     1       5.604   4.568  -7.817  0.00  0.00    +0.379 N 
ATOM     13  C   UNL     1       4.676   4.270  -8.915  0.00  0.00    -0.082 C 
ATOM     14  C   UNL     1       3.347   3.769  -8.341  0.00  0.00    -0.010 C 
ATOM     15  C   UNL     1       2.485   0.028  -9.882  0.00  0.00    +0.218 C 
ATOM     16  O   UNL     1       1.397  -0.497  -9.999  0.00  0.00    -0.275 OA
ATOM     17  H   UNL     1       5.180   5.238  -7.194  0.00  0.00    -0.086 HD
ATOM     18  H   UNL     1       6.456   4.955  -8.195  0.00  0.00    -0.086 HD
BRANCH  15  19
ATOM     19  C   UNL     1       3.443   0.041 -11.045  0.00  0.00    +0.069 C 
ATOM     20  C   UNL     1       4.386  -1.159 -10.942  0.00  0.00    +0.017 C 
ATOM     21  C   UNL     1       2.657  -0.039 -12.355  0.00  0.00    +0.017 C 
ENDBRANCH  15  19
ENDBRANCH   2   5
BRANCH   1  22
ATOM     22  C   UNL     1       2.188   2.989  -3.166  0.00  0.00    +0.109 C 
BRANCH  22  23
ATOM     23  C   UNL     1       1.719   4.316  -2.566  0.00  0.00    +0.056 C 
BRANCH  23  26
ATOM     24  C   UNL     1       4.212   5.154  -0.917  0.00  0.00    +0.063 C 
ATOM     25  C   UNL     1       2.923   4.624  -0.345  0.00  0.00    +0.017 A 
ATOM     26  C   UNL     1       1.850   4.263  -1.066  0.00  0.00    -0.018 A 
ATOM     27  C   UNL     1       0.830   3.809  -0.117  0.00  0.00    +0.004 A 
ATOM     28  C   UNL     1      -0.469   3.323  -0.252  0.00  0.00    +0.029 A 
ATOM     29  C   UNL     1      -1.188   2.971   0.887  0.00  0.00    +0.052 A 
ATOM     30  C   UNL     1      -0.606   3.107   2.155  0.00  0.00    +0.021 A 
ATOM     31  C   UNL     1       0.665   3.583   2.289  0.00  0.00    +0.027 A 
ATOM     32  C   UNL     1       1.403   3.941   1.163  0.00  0.00    +0.047 A 
ATOM     33  N   UNL     1       2.675   4.433   0.988  0.00  0.00    -0.358 N 
ATOM     34  H   UNL     1       3.304   4.619   1.703  0.00  0.00    +0.166 HD
BRANCH  29  35
ATOM     35  C   UNL     1      -2.524   2.470   0.763  0.00  0.00    +0.099 C 
ATOM     36  N   UNL     1      -3.583   2.073   0.664  0.00  0.00    -0.191 NA
ENDBRANCH  29  35
ENDBRANCH  23  26
ENDBRANCH  22  23
ENDBRANCH   1  22
TORSDOF 6
