REMARK  Name = ZINC33933375
REMARK  9 active torsions:
REMARK  status: ('A' for Active; 'I' for Inactive)
REMARK    1  A    between atoms: C_1  and  C_2
REMARK    2  A    between atoms: C_4  and  C_17
REMARK    3  A    between atoms: N_8  and  C_10
REMARK    4  A    between atoms: CA_23  and  C_26
REMARK    5  A    between atoms: N_31  and  C_34
REMARK    6  A    between atoms: C_34  and  C_35
REMARK    7  A    between atoms: C_35  and  N_36
REMARK    8  A    between atoms: N_36  and  C_37
REMARK    9  A    between atoms: C_37  and  C_38
REMARK                            x       y       z     vdW  Elec       q    Type
REMARK                         _______ _______ _______ _____ _____    ______ ____
ROOT
ATOM      1  C   UNL     1      -3.831   0.363   1.959  0.00  0.00    -0.050 C 
ATOM      2  C   UNL     1      -5.224   0.980   2.034  0.00  0.00    +0.073 C 
ATOM      3  C   UNL     1      -4.822   2.430   1.565  0.00  0.00    +0.082 C 
ATOM      4  CA  UNL     1      -4.006   2.188   0.369  0.00  0.00    +0.057 C 
ATOM      5  N   UNL     1      -3.292   0.890   0.663  0.00  0.00    +0.391 N 
ATOM      6  C   UNL     1      -5.960   3.208   1.990  0.00  0.00    +0.224 C 
ATOM      7  O   UNL     1      -6.433   4.183   1.445  0.00  0.00    -0.275 OA
ATOM      8  N   UNL     1      -6.391   2.606   3.145  0.00  0.00    -0.244 N 
ATOM      9  C   UNL     1      -5.831   1.361   3.347  0.00  0.00    +0.224 C 
ATOM     10  O   UNL     1      -5.822   0.710   4.370  0.00  0.00    -0.275 OA
ATOM     11  H1  UNL     1      -2.298   1.044   0.743  0.00  0.00    -0.084 HD
ATOM     12  H2  UNL     1      -3.478   0.231  -0.078  0.00  0.00    -0.084 HD
ENDROOT
BRANCH   1  15
ATOM     13  C   UNL     1      -5.259  -0.700  -0.178  0.00  0.00    +0.026 C 
ATOM     14  C   UNL     1      -4.302  -1.674   0.513  0.00  0.00    +0.074 C 
ATOM     15  C   UNL     1      -3.917  -1.164   1.928  0.00  0.00    +0.031 C 
ATOM     16  C   UNL     1      -2.520  -1.805   2.107  0.00  0.00    +0.185 C 
ATOM     17  N   UNL     1      -2.062  -2.132   0.747  0.00  0.00    -0.249 N 
ATOM     18  N   UNL     1      -2.984  -1.698  -0.171  0.00  0.00    -0.236 NA
ATOM     19 CL   UNL     1      -1.391  -0.633   2.884  0.00  0.00    -0.099 Cl
ATOM     20  H   UNL     1      -2.741  -0.784  -0.522  0.00  0.00    +0.145 HD
BRANCH  17  21
ATOM     21  C   UNL     1      -0.867  -2.786   0.438  0.00  0.00    +0.046 A 
ATOM     22  C   UNL     1      -0.009  -3.186   1.454  0.00  0.00    +0.024 A 
ATOM     23  C   UNL     1       1.171  -3.833   1.145  0.00  0.00    +0.002 A 
ATOM     24  C   UNL     1       1.499  -4.082  -0.175  0.00  0.00    +0.000 A 
ATOM     25  C   UNL     1       0.647  -3.685  -1.190  0.00  0.00    +0.002 A 
ATOM     26  C   UNL     1      -0.537  -3.042  -0.887  0.00  0.00    +0.024 A 
ENDBRANCH  17  21
ENDBRANCH   1  15
BRANCH   4  27
ATOM     27  C   UNL     1      -4.883   2.073  -0.851  0.00  0.00    +0.343 C 
ATOM     28  O   UNL     1      -5.823   2.836  -1.000  0.00  0.00    -0.248 OA
ATOM     29  OXT UNL     1      -4.653   1.218  -1.689  0.00  0.00    -0.248 OA
ENDBRANCH   4  27
BRANCH   8  30
ATOM     30  C   UNL     1      -7.356   3.212   4.066  0.00  0.00    +0.097 C 
BRANCH  30  31
ATOM     31  C   UNL     1      -8.774   2.804   3.660  0.00  0.00    -0.062 C 
BRANCH  31  32
ATOM     32  N   UNL     1      -9.741   3.413   4.583  0.00  0.00    +0.383 N 
ATOM     33  H   UNL     1      -9.556   3.095   5.522  0.00  0.00    -0.085 HD
ATOM     34  H   UNL     1      -9.657   4.417   4.545  0.00  0.00    -0.085 HD
BRANCH  32  35
ATOM     35  C   UNL     1     -11.102   3.021   4.194  0.00  0.00    -0.047 C 
BRANCH  35  36
ATOM     36  C   UNL     1     -12.095   3.645   5.140  0.00  0.00    -0.064 A 
ATOM     37  C   UNL     1     -12.473   2.973   6.288  0.00  0.00    +0.002 A 
ATOM     38  C   UNL     1     -13.383   3.546   7.156  0.00  0.00    +0.000 A 
ATOM     39  C   UNL     1     -13.916   4.790   6.877  0.00  0.00    +0.000 A 
ATOM     40  C   UNL     1     -13.538   5.463   5.730  0.00  0.00    +0.000 A 
ATOM     41  C   UNL     1     -12.624   4.892   4.864  0.00  0.00    +0.002 A 
ENDBRANCH  35  36
ENDBRANCH  32  35
ENDBRANCH  31  32
ENDBRANCH  30  31
ENDBRANCH   8  30
TORSDOF 8
