REMARK  Name = ZINC43687366
REMARK  2 active torsions:
REMARK  status: ('A' for Active; 'I' for Inactive)
REMARK    1  A    between atoms: C_5  and  C_6
REMARK    2  A    between atoms: C_6  and  N_7
REMARK                            x       y       z     vdW  Elec       q    Type
REMARK                         _______ _______ _______ _____ _____    ______ ____
ROOT
ATOM      1  N   UNL     1      -1.544  -1.274  -1.371  0.00  0.00    -0.219 N 
ATOM      2  C   UNL     1      -2.456  -0.572  -2.075  0.00  0.00    +0.247 C 
ATOM      3  O   UNL     1      -3.086   0.395  -1.701  0.00  0.00    -0.273 OA
ATOM      4  C   UNL     1      -2.527  -1.243  -3.427  0.00  0.00    +0.113 C 
ATOM      5  C   UNL     1      -3.931  -1.781  -3.681  0.00  0.00    +0.035 C 
ATOM      6  C   UNL     1      -3.973  -2.483  -5.040  0.00  0.00    +0.003 C 
ATOM      7  C   UNL     1      -3.583  -1.491  -6.138  0.00  0.00    +0.000 C 
ATOM      8  C   UNL     1      -2.164  -0.979  -5.882  0.00  0.00    +0.003 C 
ATOM      9  C   UNL     1      -2.114  -0.270  -4.526  0.00  0.00    +0.035 C 
ATOM     10  N   UNL     1      -1.563  -2.347  -3.328  0.00  0.00    -0.285 N 
ATOM     11  C   UNL     1      -1.035  -2.281  -2.091  0.00  0.00    +0.310 C 
ATOM     12  O   UNL     1      -0.193  -3.052  -1.674  0.00  0.00    -0.252 OA
ATOM     13  H   UNL     1      -1.348  -2.993  -4.018  0.00  0.00    +0.151 HD
ENDROOT
BRANCH   1  14
ATOM     14  C   UNL     1      -1.156  -0.969   0.008  0.00  0.00    +0.160 C 
BRANCH  14  19
ATOM     15  C   UNL     1      -0.016   1.351   0.009  0.00  0.00    +0.028 A 
ATOM     16  C   UNL     1       1.184   2.038   0.002  0.00  0.00    +0.025 A 
ATOM     17  C   UNL     1       2.343   1.335  -0.013  0.00  0.00    +0.060 A 
ATOM     18  S   UNL     1       1.753  -0.350  -0.017  0.00  0.00    -0.099 S 
ATOM     19  C   UNL     1       0.002  -0.004   0.002  0.00  0.00    +0.009 A 
ATOM     20 BR   UNL     1       1.208   3.929   0.011  0.00  0.00    -0.050 Br
ENDBRANCH  14  19
ENDBRANCH   1  14
TORSDOF 2
