REMARK  Name = ZINC03062549
REMARK  8 active torsions:
REMARK  status: ('A' for Active; 'I' for Inactive)
REMARK    1  A    between atoms: C_1  and  C_2
REMARK    2  A    between atoms: N_8  and  C_9
REMARK    3  A    between atoms: C_9  and  C_10
REMARK    4  A    between atoms: C_10  and  N_11
REMARK    5  A    between atoms: C_12  and  C_14
REMARK    6  A    between atoms: N_20  and  C_32
REMARK    7  A    between atoms: C_24  and  C_25
REMARK    8  A    between atoms: C_32  and  C_33
REMARK                            x       y       z     vdW  Elec       q    Type
REMARK                         _______ _______ _______ _____ _____    ______ ____
ROOT
ATOM      1  C   UNL     1      -7.247   4.511   2.652  0.00  0.00    +0.039 A 
ATOM      2  C   UNL     1      -6.253   5.452   2.368  0.00  0.00    +0.014 A 
ATOM      3  C   UNL     1      -5.178   5.091   1.587  0.00  0.00    +0.017 A 
ATOM      4  C   UNL     1      -5.081   3.800   1.085  0.00  0.00    +0.034 A 
ATOM      5  C   UNL     1      -6.065   2.845   1.362  0.00  0.00    +0.051 A 
ATOM      6  C   UNL     1      -7.149   3.213   2.150  0.00  0.00    +0.037 A 
ATOM      7  N   UNL     1      -6.008   1.541   0.885  0.00  0.00    -0.262 N 
ATOM      8  C   UNL     1      -4.919   0.896   0.457  0.00  0.00    +0.258 C 
ATOM      9  O   UNL     1      -4.996  -0.278   0.148  0.00  0.00    -0.269 OA
ATOM     10  C   UNL     1      -3.620   1.598   0.355  0.00  0.00    +0.076 C 
ATOM     11  C   UNL     1      -2.440   0.942   0.467  0.00  0.00    +0.028 C 
ATOM     12  S   UNL     1      -3.697   3.350   0.088  0.00  0.00    -0.082 S 
ENDROOT
BRANCH  11  13
ATOM     13  C   UNL     1      -1.177   1.652   0.217  0.00  0.00    -0.024 A 
ATOM     14  C   UNL     1      -1.130   2.697  -0.713  0.00  0.00    +0.008 A 
ATOM     15  C   UNL     1       0.057   3.361  -0.937  0.00  0.00    +0.001 A 
ATOM     16  C   UNL     1       1.201   2.994  -0.250  0.00  0.00    +0.000 A 
ATOM     17  C   UNL     1       1.163   1.958   0.668  0.00  0.00    +0.001 A 
ATOM     18  C   UNL     1      -0.016   1.284   0.904  0.00  0.00    +0.008 A 
ENDBRANCH  11  13
BRANCH   1  20
ATOM     19  N   UNL     1      -8.499   6.144   3.974  0.00  0.00    -0.313 N 
ATOM     20  C   UNL     1      -8.402   4.891   3.487  0.00  0.00    +0.244 C 
ATOM     21  O   UNL     1      -9.268   4.074   3.736  0.00  0.00    -0.270 OA
ATOM     22  H   UNL     1      -7.716   6.883   3.749  0.00  0.00    +0.149 HD
BRANCH  19  23
ATOM     23  C   UNL     1      -9.646   6.522   4.803  0.00  0.00    +0.086 C 
BRANCH  23  24
ATOM     24  C   UNL     1      -9.513   7.987   5.221  0.00  0.00    -0.059 C 
BRANCH  24  31
ATOM     25  C   UNL     1     -11.874   8.899   3.992  0.00  0.00    -0.013 C 
ATOM     26  C   UNL     1     -11.925   8.159   5.330  0.00  0.00    -0.072 C 
ATOM     27  C   UNL     1     -13.088   8.697   6.167  0.00  0.00    -0.016 C 
ATOM     28  C   UNL     1     -13.122   7.968   7.513  0.00  0.00    -0.003 C 
ATOM     29  C   UNL     1     -11.780   8.159   8.223  0.00  0.00    -0.019 C 
ATOM     30  C   UNL     1     -10.655   7.636   7.327  0.00  0.00    -0.078 C 
ATOM     31  N   UNL     1     -10.663   8.366   6.053  0.00  0.00    +0.382 N 
ATOM     32  H   UNL     1     -10.579   9.439   6.280  0.00  0.00    -0.081 HD
ENDBRANCH  24  31
ENDBRANCH  23  24
ENDBRANCH  19  23
ENDBRANCH   1  20
BRANCH   7  33
ATOM     33  C   UNL     1      -7.269   0.798   0.848  0.00  0.00    +0.149 C 
BRANCH  33  34
ATOM     34  C   UNL     1      -8.011   1.129  -0.421  0.00  0.00    -0.030 A 
ATOM     35  C   UNL     1      -8.970   2.125  -0.421  0.00  0.00    +0.008 A 
ATOM     36  C   UNL     1      -9.647   2.433  -1.586  0.00  0.00    +0.038 A 
ATOM     37  C   UNL     1      -9.372   1.738  -2.751  0.00  0.00    +0.123 A 
ATOM     38  C   UNL     1      -8.415   0.737  -2.749  0.00  0.00    +0.038 A 
ATOM     39  C   UNL     1      -7.735   0.434  -1.584  0.00  0.00    +0.008 A 
ATOM     40  F   UNL     1     -10.037   2.035  -3.889  0.00  0.00    -0.205 F 
ENDBRANCH  33  34
ENDBRANCH   7  33
TORSDOF 7
