REMARK  Name = ZINC64032250
REMARK  6 active torsions:
REMARK  status: ('A' for Active; 'I' for Inactive)
REMARK    1  A    between atoms: C_10  and  S_20
REMARK    2  A    between atoms: C_12  and  C_15
REMARK    3  A    between atoms: S_20  and  C_21
REMARK    4  A    between atoms: C_21  and  C_22
REMARK    5  A    between atoms: N_24  and  C_25
REMARK    6  A    between atoms: C_25  and  C_26
REMARK                            x       y       z     vdW  Elec       q    Type
REMARK                         _______ _______ _______ _____ _____    ______ ____
ROOT
ATOM      1  C   UNL     1      -0.017   1.379   0.010  0.00  0.00    +0.001 A 
ATOM      2  C   UNL     1       1.170   2.092   0.002  0.00  0.00    +0.002 A 
ATOM      3  C   UNL     1       2.388   1.437  -0.001  0.00  0.00    +0.024 A 
ATOM      4  C   UNL     1       2.428   0.053  -0.003  0.00  0.00    +0.040 A 
ATOM      5  C   UNL     1       1.218  -0.669  -0.016  0.00  0.00    +0.040 A 
ATOM      6  C   UNL     1       0.002  -0.004   0.002  0.00  0.00    +0.013 A 
ATOM      7  C   UNL     1       1.329  -2.138  -0.085  0.00  0.00    +0.168 A 
ATOM      8  N   UNL     1       0.456  -3.087   0.045  0.00  0.00    -0.128 NA
ATOM      9  N   UNL     1       1.039  -4.233  -0.067  0.00  0.00    -0.122 NA
ATOM     10  C   UNL     1       2.329  -4.068  -0.288  0.00  0.00    +0.194 A 
ATOM     11  N   UNL     1       2.557  -2.737  -0.325  0.00  0.00    -0.276 N 
ATOM     12  C   UNL     1       3.773  -1.969  -0.579  0.00  0.00    +0.243 C 
ATOM     13  N   UNL     1       3.638  -0.638   0.029  0.00  0.00    -0.317 N 
ATOM     14  H   UNL     1       4.406  -0.232   0.460  0.00  0.00    +0.148 HD
ENDROOT
BRANCH  12  15
ATOM     15  C   UNL     1       3.978  -1.827  -2.066  0.00  0.00    +0.146 A 
ATOM     16  C   UNL     1       4.812  -2.566  -2.819  0.00  0.00    +0.048 A 
ATOM     17  C   UNL     1       4.688  -2.098  -4.147  0.00  0.00    +0.041 A 
ATOM     18  C   UNL     1       3.785  -1.100  -4.126  0.00  0.00    +0.195 A 
ATOM     19  O   UNL     1       3.355  -0.944  -2.864  0.00  0.00    -0.464 OA
ENDBRANCH  12  15
BRANCH  10  20
ATOM     20  S   UNL     1       3.528  -5.343  -0.495  0.00  0.00    -0.077 S 
BRANCH  20  21
ATOM     21  C   UNL     1       2.571  -6.876  -0.334  0.00  0.00    +0.173 C 
BRANCH  21  22
ATOM     22  C   UNL     1       3.490  -8.060  -0.493  0.00  0.00    +0.223 C 
ATOM     23  O   UNL     1       4.673  -7.887  -0.695  0.00  0.00    -0.275 OA
ATOM     24  N   UNL     1       2.996  -9.311  -0.410  0.00  0.00    -0.311 N 
ATOM     25  H   UNL     1       2.050  -9.450  -0.249  0.00  0.00    +0.149 HD
BRANCH  24  26
ATOM     26  C   UNL     1       3.889 -10.463  -0.565  0.00  0.00    +0.151 C 
BRANCH  26  27
ATOM     27  C   UNL     1       3.082 -11.755  -0.429  0.00  0.00    +0.191 C 
ATOM     28  N   UNL     1       1.995 -11.777  -1.416  0.00  0.00    -0.362 N 
ATOM     29  C   UNL     1       0.873 -11.841  -0.759  0.00  0.00    +0.060 A 
ATOM     30  C   UNL     1      -0.532 -11.889  -1.186  0.00  0.00    +0.027 A 
ATOM     31  C   UNL     1      -1.507 -11.953  -0.257  0.00  0.00    +0.002 A 
ATOM     32  C   UNL     1      -1.239 -11.975   1.123  0.00  0.00    +0.002 A 
ATOM     33  C   UNL     1       0.013 -11.934   1.621  0.00  0.00    +0.027 A 
ATOM     34  C   UNL     1       1.157 -11.864   0.702  0.00  0.00    +0.060 A 
ATOM     35  N   UNL     1       2.444 -11.815   0.892  0.00  0.00    -0.362 N 
ATOM     36  H   UNL     1       2.095 -11.749  -2.380  0.00  0.00    +0.162 HD
ATOM     37  H   UNL     1       2.897 -11.816   1.749  0.00  0.00    +0.162 HD
ENDBRANCH  26  27
ENDBRANCH  24  26
ENDBRANCH  21  22
ENDBRANCH  20  21
ENDBRANCH  10  20
TORSDOF 6
