REMARK  Name = ZINC38678912
REMARK  11 active torsions:
REMARK  status: ('A' for Active; 'I' for Inactive)
REMARK    1  A    between atoms: C_1  and  C_2
REMARK    2  A    between atoms: C_2  and  C_3
REMARK    3  A    between atoms: C_6  and  O_9
REMARK    4  A    between atoms: O_9  and  C_10
REMARK    5  A    between atoms: C_10  and  C_12
REMARK    6  A    between atoms: C_10  and  C_13
REMARK    7  A    between atoms: C_13  and  O_15
REMARK    8  A    between atoms: O_15  and  C_16
REMARK    9  A    between atoms: C_23  and  N_36
REMARK   10  A    between atoms: C_24  and  C_34
REMARK   11  A    between atoms: C_25  and  C_27
REMARK                            x       y       z     vdW  Elec       q    Type
REMARK                         _______ _______ _______ _____ _____    ______ ____
ROOT
ATOM      1  C   UNL     1      -9.521  -1.813  -1.511  0.00  0.00    +0.135 A 
ATOM      2  C   UNL     1      -9.849  -1.569  -0.185  0.00  0.00    +0.047 A 
ATOM      3  C   UNL     1     -11.161  -1.321   0.167  0.00  0.00    +0.012 A 
ATOM      4  C   UNL     1     -12.152  -1.316  -0.799  0.00  0.00    +0.008 A 
ATOM      5  C   UNL     1     -11.830  -1.559  -2.124  0.00  0.00    +0.138 A 
ATOM      6  C   UNL     1     -10.510  -1.802  -2.481  0.00  0.00    +0.093 A 
ATOM      7  O   UNL     1     -12.788  -1.558  -3.085  0.00  0.00    -0.441 OA
ATOM      8  C   UNL     1     -13.967  -0.959  -2.854  0.00  0.00    +0.199 C 
ATOM      9  C   UNL     1     -14.400  -0.686  -1.600  0.00  0.00    +0.098 C 
ATOM     10  C   UNL     1     -13.578  -1.045  -0.395  0.00  0.00    +0.099 C 
ENDROOT
BRANCH  10  11
ATOM     11  C   UNL     1     -14.155  -2.276   0.256  0.00  0.00    -0.021 A 
ATOM     12  C   UNL     1     -14.221  -3.463  -0.449  0.00  0.00    +0.005 A 
ATOM     13  C   UNL     1     -14.750  -4.593   0.148  0.00  0.00    +0.000 A 
ATOM     14  C   UNL     1     -15.213  -4.535   1.449  0.00  0.00    +0.001 A 
ATOM     15  C   UNL     1     -15.148  -3.348   2.154  0.00  0.00    +0.015 A 
ATOM     16  C   UNL     1     -14.614  -2.219   1.559  0.00  0.00    +0.022 A 
ATOM     17 BR   UNL     1     -14.517  -0.596   2.526  0.00  0.00    -0.050 Br
ENDBRANCH  10  11
BRANCH   8  18
ATOM     18  N   UNL     1     -14.757  -0.611  -3.921  0.00  0.00    -0.328 N 
ATOM     19  H   UNL     1     -14.461  -0.798  -4.826  0.00  0.00    +0.145 HD
ATOM     20  H   UNL     1     -15.612  -0.177  -3.771  0.00  0.00    +0.145 HD
ENDBRANCH   8  18
BRANCH   9  21
ATOM     21  C   UNL     1     -15.667  -0.044  -1.419  0.00  0.00    +0.101 C 
ATOM     22  N   UNL     1     -16.672   0.466  -1.276  0.00  0.00    -0.191 NA
ENDBRANCH   9  21
BRANCH   1  23
ATOM     23  O   UNL     1      -8.229  -2.057  -1.859  0.00  0.00    -0.423 OA
BRANCH  23  24
ATOM     24  C   UNL     1      -7.657  -3.183  -1.405  0.00  0.00    +0.353 C 
ATOM     25  O   UNL     1      -8.313  -3.989  -0.789  0.00  0.00    -0.246 OA
BRANCH  24  26
ATOM     26  C   UNL     1      -6.195  -3.443  -1.665  0.00  0.00    +0.279 C 
ATOM     27  C   UNL     1      -5.944  -3.482  -3.174  0.00  0.00    +0.064 C 
BRANCH  26  28
ATOM     28  O   UNL     1      -5.824  -4.696  -1.088  0.00  0.00    -0.478 OA
BRANCH  28  32
ATOM     29  C   UNL     1      -1.995  -5.003   0.419  0.00  0.00    -0.047 A 
ATOM     30  C   UNL     1      -2.377  -3.866  -0.269  0.00  0.00    +0.007 A 
ATOM     31  C   UNL     1      -3.659  -3.761  -0.774  0.00  0.00    +0.046 A 
ATOM     32  C   UNL     1      -4.562  -4.798  -0.592  0.00  0.00    +0.122 A 
ATOM     33  C   UNL     1      -4.176  -5.938   0.098  0.00  0.00    +0.046 A 
ATOM     34  C   UNL     1      -2.892  -6.040   0.597  0.00  0.00    +0.007 A 
BRANCH  29  36
ATOM     35  C   UNL     1       0.317  -5.747  -0.083  0.00  0.00    +0.009 C 
ATOM     36  C   UNL     1      -0.597  -5.115   0.969  0.00  0.00    +0.032 C 
ENDBRANCH  29  36
ENDBRANCH  28  32
ENDBRANCH  26  28
ENDBRANCH  24  26
ENDBRANCH  23  24
ENDBRANCH   1  23
TORSDOF 9
