REMARK  Name = ZINC39693344
REMARK  8 active torsions:
REMARK  status: ('A' for Active; 'I' for Inactive)
REMARK    1  A    between atoms: C_1  and  N_2
REMARK    2  A    between atoms: C_6  and  C_7
REMARK    3  A    between atoms: C_11  and  C_20
REMARK    4  A    between atoms: N_22  and  C_23
REMARK    5  A    between atoms: C_23  and  C_24
REMARK    6  A    between atoms: C_24  and  N_25
REMARK    7  A    between atoms: C_26  and  C_28
REMARK    8  A    between atoms: C_28  and  C_29
REMARK                            x       y       z     vdW  Elec       q    Type
REMARK                         _______ _______ _______ _____ _____    ______ ____
ROOT
ATOM      1  C   UNL     1      -1.431   4.327   2.360  0.00  0.00    +0.218 C 
ATOM      2  O   UNL     1      -0.289   4.731   2.295  0.00  0.00    -0.275 OA
ATOM      3  N   UNL     1      -2.459   5.188   2.222  0.00  0.00    -0.314 N 
ATOM      4  H   UNL     1      -3.372   4.865   2.274  0.00  0.00    +0.149 HD
ENDROOT
BRANCH   1   9
ATOM      5  C   UNL     1      -0.172  -0.420   2.571  0.00  0.00    +0.265 C 
ATOM      6  O   UNL     1      -0.136  -1.250   3.460  0.00  0.00    -0.268 OA
ATOM      7  N   UNL     1      -0.389   0.877   2.869  0.00  0.00    -0.295 N 
ATOM      8  C   UNL     1      -0.606   2.001   1.927  0.00  0.00    +0.121 C 
ATOM      9  C   UNL     1      -1.700   2.863   2.595  0.00  0.00    +0.100 C 
ATOM     10  C   UNL     1      -1.601   2.532   4.094  0.00  0.00    -0.004 C 
ATOM     11  C   UNL     1      -0.471   1.500   4.212  0.00  0.00    +0.115 C 
ATOM     12  C   UNL     1      -2.912   1.929   4.590  0.00  0.00    -0.010 C 
ATOM     13  C   UNL     1      -2.808   1.661   6.094  0.00  0.00    -0.082 C 
ATOM     14  N   UNL     1      -2.527   2.918   6.798  0.00  0.00    +0.379 N 
ATOM     15  C   UNL     1      -1.221   3.444   6.383  0.00  0.00    -0.082 C 
ATOM     16  C   UNL     1      -1.257   3.787   4.891  0.00  0.00    -0.010 C 
ATOM     17  H   UNL     1      -3.245   3.593   6.579  0.00  0.00    -0.086 HD
ATOM     18  H   UNL     1      -2.520   2.750   7.793  0.00  0.00    -0.086 HD
BRANCH   5  24
ATOM     19  C   UNL     1       0.013  -3.353   1.487  0.00  0.00    +0.150 C 
ATOM     20  N   UNL     1       0.103  -2.123   0.696  0.00  0.00    -0.330 N 
ATOM     21  C   UNL     1       0.276  -2.039  -0.635  0.00  0.00    +0.199 A 
ATOM     22  N   UNL     1       0.307  -0.779  -0.987  0.00  0.00    -0.243 NA
ATOM     23  C   UNL     1       0.158  -0.009   0.091  0.00  0.00    +0.143 A 
ATOM     24  C   UNL     1       0.021  -0.830   1.175  0.00  0.00    +0.124 A 
ENDBRANCH   5  24
ENDBRANCH   1   9
BRANCH   3  25
ATOM     25  C   UNL     1      -2.197   6.611   1.993  0.00  0.00    +0.123 C 
BRANCH  25  26
ATOM     26  C   UNL     1      -3.525   7.361   1.874  0.00  0.00    +0.123 C 
BRANCH  26  27
ATOM     27  N   UNL     1      -3.263   8.784   1.645  0.00  0.00    -0.314 N 
ATOM     28  C   UNL     1      -4.291   9.645   1.507  0.00  0.00    +0.217 C 
ATOM     29  O   UNL     1      -5.433   9.242   1.572  0.00  0.00    -0.275 OA
ATOM     30  H   UNL     1      -2.350   9.107   1.593  0.00  0.00    +0.149 HD
BRANCH  28  31
ATOM     31  C   UNL     1      -4.021  11.109   1.272  0.00  0.00    +0.131 C 
BRANCH  31  32
ATOM     32  C   UNL     1      -5.330  11.848   1.154  0.00  0.00    -0.031 A 
ATOM     33  C   UNL     1      -5.876  12.081  -0.071  0.00  0.00    +0.005 A 
ATOM     34  C   UNL     1      -7.084  12.762  -0.200  0.00  0.00    +0.001 A 
ATOM     35  C   UNL     1      -7.754  13.215   0.895  0.00  0.00    +0.008 A 
ATOM     36  C   UNL     1      -7.221  12.994   2.176  0.00  0.00    -0.018 A 
ATOM     37  C   UNL     1      -5.995  12.296   2.308  0.00  0.00    -0.014 A 
ATOM     38  C   UNL     1      -5.465  12.069   3.590  0.00  0.00    +0.009 A 
ATOM     39  C   UNL     1      -6.137  12.517   4.685  0.00  0.00    +0.001 A 
ATOM     40  C   UNL     1      -7.346  13.198   4.556  0.00  0.00    +0.001 A 
ATOM     41  C   UNL     1      -7.883  13.448   3.330  0.00  0.00    +0.008 A 
ENDBRANCH  31  32
ENDBRANCH  28  31
ENDBRANCH  26  27
ENDBRANCH  25  26
ENDBRANCH   3  25
TORSDOF 7
