REMARK  Name = ZINC02181948
REMARK  6 active torsions:
REMARK  status: ('A' for Active; 'I' for Inactive)
REMARK    1  A    between atoms: C_1  and  C_2
REMARK    2  A    between atoms: C_5  and  N_9
REMARK    3  A    between atoms: C_15  and  C_25
REMARK    4  A    between atoms: C_15  and  C_26
REMARK    5  A    between atoms: C_20  and  C_24
REMARK    6  A    between atoms: C_21  and  C_23
REMARK                            x       y       z     vdW  Elec       q    Type
REMARK                         _______ _______ _______ _____ _____    ______ ____
ROOT
ATOM      1  N   UNL     1       0.476  -4.193  -0.221  0.00  0.00    -0.240 NA
ATOM      2  C   UNL     1       1.435  -4.763   0.501  0.00  0.00    +0.117 A 
ATOM      3  C   UNL     1       2.206  -4.133   1.522  0.00  0.00    +0.029 A 
ATOM      4  C   UNL     1       3.171  -4.735   2.283  0.00  0.00    +0.030 A 
ATOM      5  S   UNL     1       3.428  -6.343   1.864  0.00  0.00    -0.052 S 
ATOM      6  S   UNL     1       1.985  -6.458   0.371  0.00  0.00    -0.032 S 
ATOM      7  C   UNL     1       3.918  -4.036   3.402  0.00  0.00    +0.059 C 
ATOM      8  N   UNL     1       3.964  -2.597   3.117  0.00  0.00    -0.334 N 
ATOM      9  C   UNL     1       2.826  -1.963   2.611  0.00  0.00    +0.036 A 
ATOM     10  C   UNL     1       1.933  -2.672   1.807  0.00  0.00    +0.007 A 
ATOM     11  C   UNL     1       0.810  -2.056   1.277  0.00  0.00    +0.014 A 
ATOM     12  C   UNL     1       0.574  -0.723   1.564  0.00  0.00    -0.047 A 
ATOM     13  C   UNL     1       1.449  -0.018   2.370  0.00  0.00    -0.046 A 
ATOM     14  C   UNL     1       2.574  -0.629   2.896  0.00  0.00    +0.027 A 
ATOM     15  C   UNL     1       1.176   1.431   2.679  0.00  0.00    +0.044 C 
ATOM     16  C   UNL     1      -0.642  -0.036   0.995  0.00  0.00    +0.044 C 
ATOM     17  C   UNL     1       5.343  -4.587   3.488  0.00  0.00    +0.037 C 
ATOM     18  C   UNL     1       3.194  -4.273   4.728  0.00  0.00    +0.037 C 
ATOM     19  H   UNL     1       4.776  -2.092   3.278  0.00  0.00    +0.147 HD
ENDROOT
BRANCH   1  24
ATOM     20  C   UNL     1       1.523   0.582  -3.038  0.00  0.00    +0.045 C 
ATOM     21  C   UNL     1       1.244  -0.694  -2.286  0.00  0.00    -0.032 A 
ATOM     22  C   UNL     1      -0.063  -1.111  -2.098  0.00  0.00    +0.007 A 
ATOM     23  C   UNL     1      -0.327  -2.276  -1.411  0.00  0.00    +0.028 A 
ATOM     24  C   UNL     1       0.730  -3.039  -0.902  0.00  0.00    +0.067 A 
ATOM     25  C   UNL     1       2.048  -2.612  -1.095  0.00  0.00    +0.048 A 
ATOM     26  C   UNL     1       2.296  -1.445  -1.790  0.00  0.00    +0.046 A 
ATOM     27 CL   UNL     1       3.931  -0.916  -2.037  0.00  0.00    -0.083 Cl
ENDBRANCH   1  24
TORSDOF 1
