REMARK  Name = ZINC59263917
REMARK  10 active torsions:
REMARK  status: ('A' for Active; 'I' for Inactive)
REMARK    1  A    between atoms: C_1  and  C_2
REMARK    2  A    between atoms: C_2  and  C_3
REMARK    3  A    between atoms: C_2  and  C_4
REMARK    4  A    between atoms: C_2  and  C_5
REMARK    5  A    between atoms: C_5  and  C_7
REMARK    6  A    between atoms: C_5  and  N_13
REMARK    7  A    between atoms: N_16  and  C_17
REMARK    8  A    between atoms: C_17  and  C_18
REMARK    9  A    between atoms: C_18  and  C_20
REMARK   10  A    between atoms: C_18  and  N_25
REMARK                            x       y       z     vdW  Elec       q    Type
REMARK                         _______ _______ _______ _____ _____    ______ ____
ROOT
ATOM      1  N   UNL     1       0.798  -1.993  -1.244  0.00  0.00    -0.292 N 
ATOM      2  C   UNL     1      -0.221  -2.660  -1.822  0.00  0.00    +0.300 C 
ATOM      3  O   UNL     1      -1.106  -2.046  -2.387  0.00  0.00    -0.253 OA
ATOM      4  N   UNL     1      -0.259  -4.006  -1.775  0.00  0.00    -0.301 N 
ATOM      5  H   UNL     1       1.503  -2.483  -0.793  0.00  0.00    +0.151 HD
ATOM      6  H   UNL     1       0.446  -4.495  -1.324  0.00  0.00    +0.150 HD
ENDROOT
BRANCH   1   7
ATOM      7  C   UNL     1       0.839  -0.530  -1.295  0.00  0.00    +0.110 C 
BRANCH   7   8
ATOM      8  C   UNL     1       2.266  -0.063  -1.162  0.00  0.00    -0.027 A 
ATOM      9  C   UNL     1       3.120  -0.694  -0.277  0.00  0.00    +0.005 A 
ATOM     10  C   UNL     1       4.428  -0.266  -0.155  0.00  0.00    +0.000 A 
ATOM     11  C   UNL     1       4.883   0.794  -0.918  0.00  0.00    +0.000 A 
ATOM     12  C   UNL     1       4.029   1.425  -1.803  0.00  0.00    +0.000 A 
ATOM     13  C   UNL     1       2.721   0.993  -1.929  0.00  0.00    +0.005 A 
ENDBRANCH   7   8
BRANCH   7  15
ATOM     14  C   UNL     1       0.048   1.573  -0.203  0.00  0.00    +0.013 C 
ATOM     15  C   UNL     1       0.005   0.045  -0.149  0.00  0.00    -0.015 C 
ATOM     16  C   UNL     1       0.576  -0.435   1.188  0.00  0.00    +0.013 C 
ATOM     17  C   UNL     1      -1.443  -0.429  -0.284  0.00  0.00    +0.013 C 
ENDBRANCH   7  15
ENDBRANCH   1   7
BRANCH   4  18
ATOM     18  C   UNL     1      -1.367  -4.730  -2.404  0.00  0.00    +0.098 C 
BRANCH  18  19
ATOM     19  C   UNL     1      -1.117  -6.236  -2.297  0.00  0.00    +0.016 C 
BRANCH  19  20
ATOM     20  N   UNL     1      -2.157  -6.958  -3.042  0.00  0.00    +0.387 N 
ATOM     21  C   UNL     1      -2.082  -6.619  -4.486  0.00  0.00    -0.078 C 
ATOM     22  C   UNL     1      -2.793  -7.814  -5.168  0.00  0.00    -0.020 C 
ATOM     23  C   UNL     1      -2.343  -9.019  -4.312  0.00  0.00    -0.020 C 
ATOM     24  C   UNL     1      -1.924  -8.417  -2.958  0.00  0.00    -0.078 C 
ATOM     25  H   UNL     1      -3.070  -6.730  -2.676  0.00  0.00    -0.081 HD
ENDBRANCH  19  20
BRANCH  19  26
ATOM     26  C   UNL     1      -1.158  -6.650  -0.848  0.00  0.00    +0.093 A 
ATOM     27  C   UNL     1      -0.088  -6.860  -0.060  0.00  0.00    +0.043 A 
ATOM     28  C   UNL     1      -0.583  -7.230   1.212  0.00  0.00    +0.041 A 
ATOM     29  C   UNL     1      -1.926  -7.224   1.125  0.00  0.00    +0.195 A 
ATOM     30  O   UNL     1      -2.268  -6.866  -0.124  0.00  0.00    -0.469 OA
ENDBRANCH  19  26
ENDBRANCH  18  19
ENDBRANCH   4  18
TORSDOF 7
