REMARK  Name = ZINC39529234
REMARK  10 active torsions:
REMARK  status: ('A' for Active; 'I' for Inactive)
REMARK    1  A    between atoms: C_1  and  C_2
REMARK    2  A    between atoms: C_2  and  C_3
REMARK    3  A    between atoms: C_3  and  C_4
REMARK    4  A    between atoms: C_6  and  S_24
REMARK    5  A    between atoms: C_9  and  N_10
REMARK    6  A    between atoms: C_14  and  C_17
REMARK    7  A    between atoms: C_22  and  O_23
REMARK    8  A    between atoms: S_24  and  C_27
REMARK    9  A    between atoms: C_27  and  C_28
REMARK   10  A    between atoms: C_27  and  C_29
REMARK                            x       y       z     vdW  Elec       q    Type
REMARK                         _______ _______ _______ _____ _____    ______ ____
ROOT
ATOM      1  N   UNL     1      -1.180  -2.050   2.407  0.00  0.00    -0.333 N 
ATOM      2  C   UNL     1      -2.377  -1.699   3.186  0.00  0.00    +0.086 C 
ATOM      3  C   UNL     1      -2.309  -0.208   3.535  0.00  0.00    -0.063 C 
ATOM      4  N   UNL     1      -1.039   0.078   4.213  0.00  0.00    +0.386 N 
ATOM      5  C   UNL     1       0.083  -0.165   3.297  0.00  0.00    -0.020 C 
ATOM      6  C   UNL     1       0.134  -1.658   2.940  0.00  0.00    +0.094 C 
ATOM      7  H   UNL     1      -1.027   1.042   4.510  0.00  0.00    -0.085 HD
ATOM      8  H   UNL     1      -0.948  -0.521   5.021  0.00  0.00    -0.085 HD
ENDROOT
BRANCH   1  14
ATOM      9  C   UNL     1      -1.413  -2.041   0.005  0.00  0.00    -0.025 A 
ATOM     10  C   UNL     1      -1.513  -2.727  -1.190  0.00  0.00    +0.032 A 
ATOM     11  C   UNL     1      -1.495  -4.109  -1.198  0.00  0.00    +0.089 A 
ATOM     12  C   UNL     1      -1.376  -4.810  -0.012  0.00  0.00    +0.029 A 
ATOM     13  C   UNL     1      -1.275  -4.130   1.186  0.00  0.00    +0.025 A 
ATOM     14  C   UNL     1      -1.287  -2.741   1.198  0.00  0.00    +0.033 A 
BRANCH  11  15
ATOM     15  S   UNL     1      -1.625  -4.981  -2.724  0.00  0.00    -0.001 S 
ATOM     16  O   UNL     1      -2.181  -6.241  -2.376  0.00  0.00    -0.169 OA
ATOM     17  O   UNL     1      -2.323  -4.095  -3.589  0.00  0.00    -0.169 OA
BRANCH  15  18
ATOM     18  C   UNL     1       0.086  -5.187  -3.290  0.00  0.00    +0.130 C 
ATOM     19  C   UNL     1       0.090  -5.828  -4.679  0.00  0.00    +0.032 C 
ATOM     20  C   UNL     1       0.770  -3.820  -3.357  0.00  0.00    +0.032 C 
ENDBRANCH  15  18
ENDBRANCH  11  15
BRANCH   9  21
ATOM     21  C   UNL     1      -1.433  -0.534   0.013  0.00  0.00    +0.037 C 
BRANCH  21  23
ATOM     22  C   UNL     1      -0.019   1.526   0.010  0.00  0.00    +0.004 C 
ATOM     23  C   UNL     1       0.002  -0.004   0.002  0.00  0.00    +0.001 C 
ENDBRANCH  21  23
ENDBRANCH   9  21
ENDBRANCH   1  14
BRANCH   5  24
ATOM     24  C   UNL     1       1.373   0.235   3.966  0.00  0.00    -0.018 A 
ATOM     25  C   UNL     1       1.466   0.237   5.344  0.00  0.00    +0.005 A 
ATOM     26  C   UNL     1       2.649   0.604   5.958  0.00  0.00    +0.000 A 
ATOM     27  C   UNL     1       3.742   0.970   5.194  0.00  0.00    +0.004 A 
ATOM     28  C   UNL     1       3.655   0.970   3.816  0.00  0.00    +0.045 A 
ATOM     29  C   UNL     1       2.470   0.597   3.197  0.00  0.00    +0.118 A 
BRANCH  29  30
ATOM     30  O   UNL     1       2.383   0.590   1.841  0.00  0.00    -0.507 OA
ATOM     31  H   UNL     1       2.090   1.430   1.462  0.00  0.00    +0.292 HD
ENDBRANCH  29  30
ENDBRANCH   5  24
TORSDOF 7
