REMARK  Name = ZINC45665368
REMARK  10 active torsions:
REMARK  status: ('A' for Active; 'I' for Inactive)
REMARK    1  A    between atoms: C_1  and  N_2
REMARK    2  A    between atoms: N_2  and  C_3
REMARK    3  A    between atoms: N_2  and  C_4
REMARK    4  A    between atoms: C_4  and  C_5
REMARK    5  A    between atoms: C_5  and  C_6
REMARK    6  A    between atoms: C_6  and  C_7
REMARK    7  A    between atoms: C_7  and  N_8
REMARK    8  A    between atoms: N_8  and  S_9
REMARK    9  A    between atoms: S_9  and  C_12
REMARK   10  A    between atoms: C_15  and  N_19
REMARK                            x       y       z     vdW  Elec       q    Type
REMARK                         _______ _______ _______ _____ _____    ______ ____
ROOT
ATOM      1  S   UNL     1      -6.696  -0.160  -3.648  0.00  0.00    +0.061 S 
ATOM      2  O   UNL     1      -7.910  -0.858  -3.406  0.00  0.00    -0.153 OA
ATOM      3  O   UNL     1      -6.608   1.257  -3.595  0.00  0.00    -0.153 OA
ENDROOT
BRANCH   1   4
ATOM      4  C   UNL     1      -6.153  -0.638  -5.255  0.00  0.00    +0.133 A 
ATOM      5  C   UNL     1      -5.309   0.190  -5.973  0.00  0.00    +0.047 A 
ATOM      6  C   UNL     1      -4.881  -0.182  -7.234  0.00  0.00    +0.040 A 
ATOM      7  C   UNL     1      -5.300  -1.389  -7.779  0.00  0.00    +0.027 A 
ATOM      8  C   UNL     1      -6.147  -2.219  -7.056  0.00  0.00    +0.040 A 
ATOM      9  C   UNL     1      -6.567  -1.844  -5.793  0.00  0.00    +0.047 A 
ATOM     10 BR   UNL     1      -7.714  -2.976  -4.805  0.00  0.00    -0.048 Br
ATOM     11 BR   UNL     1      -4.739   1.833  -5.230  0.00  0.00    -0.048 Br
BRANCH   7  12
ATOM     12  N   UNL     1      -4.870  -1.768  -9.053  0.00  0.00    -0.358 N 
ATOM     13  H   UNL     1      -4.278  -1.188  -9.558  0.00  0.00    +0.142 HD
ATOM     14  H   UNL     1      -5.162  -2.611  -9.433  0.00  0.00    +0.142 HD
ENDBRANCH   7  12
ENDBRANCH   1   4
BRANCH   1  15
ATOM     15  N   UNL     1      -5.590  -0.744  -2.563  0.00  0.00    -0.190 NA
ATOM     16  H   UNL     1      -5.852  -1.422  -1.921  0.00  0.00    +0.148 HD
BRANCH  15  17
ATOM     17  C   UNL     1      -4.215  -0.237  -2.574  0.00  0.00    +0.106 C 
BRANCH  17  18
ATOM     18  C   UNL     1      -3.513  -0.640  -1.275  0.00  0.00    +0.015 C 
BRANCH  18  19
ATOM     19  C   UNL     1      -2.078  -0.110  -1.286  0.00  0.00    -0.017 C 
BRANCH  19  20
ATOM     20  C   UNL     1      -1.376  -0.512   0.012  0.00  0.00    -0.080 C 
BRANCH  20  22
ATOM     21  C   UNL     1      -0.018   1.465   0.010  0.00  0.00    -0.097 C 
ATOM     22  N   UNL     1       0.002  -0.004   0.002  0.00  0.00    +0.376 N 
ATOM     23  C   UNL     1       0.713  -0.491   1.192  0.00  0.00    -0.097 C 
ATOM     24  H   UNL     1       0.474  -0.330  -0.828  0.00  0.00    -0.083 HD
ENDBRANCH  20  22
ENDBRANCH  19  20
ENDBRANCH  18  19
ENDBRANCH  17  18
ENDBRANCH  15  17
ENDBRANCH   1  15
TORSDOF 8
