REMARK  Name = ZINC59060735
REMARK  11 active torsions:
REMARK  status: ('A' for Active; 'I' for Inactive)
REMARK    1  A    between atoms: C_1  and  C_2
REMARK    2  A    between atoms: C_6  and  C_8
REMARK    3  A    between atoms: N_10  and  C_11
REMARK    4  A    between atoms: C_11  and  C_13
REMARK    5  A    between atoms: C_11  and  C_14
REMARK    6  A    between atoms: N_16  and  C_17
REMARK    7  A    between atoms: C_17  and  C_18
REMARK    8  A    between atoms: C_23  and  C_24
REMARK    9  A    between atoms: C_24  and  N_25
REMARK   10  A    between atoms: C_27  and  C_34
REMARK   11  A    between atoms: C_30  and  C_33
REMARK                            x       y       z     vdW  Elec       q    Type
REMARK                         _______ _______ _______ _____ _____    ______ ____
ROOT
ATOM      1  C   UNL     1       0.252  -5.754   4.245  0.00  0.00    +0.233 C 
ATOM      2  O   UNL     1       0.783  -5.824   3.157  0.00  0.00    -0.274 OA
ATOM      3  N   UNL     1       0.422  -6.745   5.143  0.00  0.00    -0.310 N 
ATOM      4  H   UNL     1      -0.003  -6.689   6.013  0.00  0.00    +0.149 HD
ENDROOT
BRANCH   1   5
ATOM      5  C   UNL     1      -0.598  -4.560   4.593  0.00  0.00    +0.156 C 
ATOM      6  C   UNL     1      -2.022  -5.021   4.908  0.00  0.00    +0.038 C 
BRANCH   5   9
ATOM      7  C   UNL     1      -0.865  -2.322   3.665  0.00  0.00    +0.245 C 
ATOM      8  O   UNL     1      -1.060  -1.910   4.792  0.00  0.00    -0.270 OA
ATOM      9  N   UNL     1      -0.625  -3.632   3.459  0.00  0.00    -0.300 N 
ATOM     10  H   UNL     1      -0.469  -3.961   2.560  0.00  0.00    +0.150 HD
BRANCH   7  16
ATOM     11  C   UNL     1      -1.436   2.304   1.884  0.00  0.00    +0.044 C 
ATOM     12  C   UNL     1      -1.167   0.838   1.659  0.00  0.00    -0.050 A 
ATOM     13  C   UNL     1      -0.944   0.365   0.377  0.00  0.00    +0.003 A 
ATOM     14  C   UNL     1      -0.696  -0.978   0.162  0.00  0.00    +0.001 A 
ATOM     15  C   UNL     1      -0.669  -1.857   1.226  0.00  0.00    +0.013 A 
ATOM     16  C   UNL     1      -0.892  -1.387   2.521  0.00  0.00    +0.037 A 
ATOM     17  C   UNL     1      -1.137  -0.029   2.732  0.00  0.00    +0.016 A 
ENDBRANCH   7  16
ENDBRANCH   5   9
ENDBRANCH   1   5
BRANCH   3  18
ATOM     18  C   UNL     1       1.249  -7.906   4.805  0.00  0.00    +0.139 C 
BRANCH  18  19
ATOM     19  C   UNL     1       1.276  -8.860   5.971  0.00  0.00    -0.029 A 
ATOM     20  C   UNL     1       2.385  -8.913   6.795  0.00  0.00    +0.005 A 
ATOM     21  C   UNL     1       2.410  -9.787   7.865  0.00  0.00    +0.000 A 
ATOM     22  C   UNL     1       1.327 -10.610   8.112  0.00  0.00    +0.000 A 
ATOM     23  C   UNL     1       0.217 -10.556   7.289  0.00  0.00    +0.002 A 
ATOM     24  C   UNL     1       0.191  -9.678   6.221  0.00  0.00    -0.059 A 
BRANCH  24  25
ATOM     25  C   UNL     1      -1.021  -9.617   5.327  0.00  0.00    -0.043 C 
BRANCH  25  26
ATOM     26  N   UNL     1      -1.937 -10.713   5.667  0.00  0.00    +0.383 N 
ATOM     27  C   UNL     1      -1.317 -11.995   5.311  0.00  0.00    -0.075 C 
ATOM     28  C   UNL     1      -2.233 -13.145   5.737  0.00  0.00    -0.031 C 
ATOM     29  C   UNL     1      -3.579 -13.011   5.020  0.00  0.00    +0.003 C 
ATOM     30  C   UNL     1      -4.182 -11.639   5.339  0.00  0.00    -0.031 C 
ATOM     31  C   UNL     1      -3.194 -10.546   4.928  0.00  0.00    -0.075 C 
ATOM     32  C   UNL     1      -5.491 -11.464   4.566  0.00  0.00    +0.005 C 
ATOM     33  C   UNL     1      -1.585 -14.479   5.364  0.00  0.00    +0.005 C 
ATOM     34  H   UNL     1      -2.126 -10.697   6.658  0.00  0.00    -0.081 HD
ENDBRANCH  25  26
ENDBRANCH  24  25
ENDBRANCH  18  19
ENDBRANCH   3  18
TORSDOF 7
