REMARK  Name = ZINC45494714
REMARK  8 active torsions:
REMARK  status: ('A' for Active; 'I' for Inactive)
REMARK    1  A    between atoms: C_1  and  C_2
REMARK    2  A    between atoms: C_2  and  C_4
REMARK    3  A    between atoms: C_2  and  S_16
REMARK    4  A    between atoms: N_9  and  C_10
REMARK    5  A    between atoms: S_16  and  C_17
REMARK    6  A    between atoms: C_20  and  C_23
REMARK    7  A    between atoms: N_21  and  C_22
REMARK    8  A    between atoms: C_23  and  C_24
REMARK                            x       y       z     vdW  Elec       q    Type
REMARK                         _______ _______ _______ _____ _____    ______ ____
ROOT
ATOM      1  C   UNL     1      -0.019   1.526   0.010  0.00  0.00    +0.029 C 
ATOM      2  C   UNL     1       0.002  -0.004   0.002  0.00  0.00    +0.137 C 
ENDROOT
BRANCH   2   3
ATOM      3  C   UNL     1       0.707  -0.490  -1.238  0.00  0.00    +0.233 C 
ATOM      4  O   UNL     1       0.067  -0.782  -2.225  0.00  0.00    -0.274 OA
ATOM      5  N   UNL     1       2.051  -0.601  -1.250  0.00  0.00    -0.239 N 
ATOM      6  C   UNL     1       2.682  -1.035  -2.358  0.00  0.00    +0.306 C 
ATOM      7  O   UNL     1       2.039  -1.327  -3.348  0.00  0.00    -0.252 OA
ATOM      8  N   UNL     1       4.025  -1.146  -2.370  0.00  0.00    -0.296 N 
ATOM      9  H   UNL     1       2.563  -0.367  -0.460  0.00  0.00    +0.159 HD
ATOM     10  H   UNL     1       4.537  -0.912  -1.580  0.00  0.00    +0.151 HD
BRANCH   8  11
ATOM     11  C   UNL     1       4.710  -1.618  -3.575  0.00  0.00    +0.074 C 
ATOM     12  C   UNL     1       4.946  -0.440  -4.523  0.00  0.00    +0.022 C 
ATOM     13  C   UNL     1       5.662  -0.934  -5.782  0.00  0.00    +0.002 C 
ATOM     14  C   UNL     1       7.006  -1.553  -5.394  0.00  0.00    +0.000 C 
ATOM     15  C   UNL     1       6.771  -2.731  -4.447  0.00  0.00    +0.002 C 
ATOM     16  C   UNL     1       6.055  -2.237  -3.188  0.00  0.00    +0.022 C 
ENDBRANCH   8  11
ENDBRANCH   2   3
BRANCH   2  17
ATOM     17  S   UNL     1      -1.700  -0.632   0.015  0.00  0.00    -0.074 S 
BRANCH  17  18
ATOM     18  C   UNL     1      -2.335  -0.110   1.573  0.00  0.00    +0.192 A 
ATOM     19  N   UNL     1      -1.692   0.581   2.486  0.00  0.00    -0.122 NA
ATOM     20  N   UNL     1      -2.458   0.785   3.498  0.00  0.00    -0.134 NA
ATOM     21  C   UNL     1      -3.625   0.243   3.293  0.00  0.00    +0.134 A 
ATOM     22  N   UNL     1      -3.590  -0.342   2.057  0.00  0.00    -0.309 N 
ATOM     23  C   UNL     1      -4.674  -1.070   1.392  0.00  0.00    +0.152 C 
BRANCH  21  24
ATOM     24  C   UNL     1      -4.797   0.261   4.240  0.00  0.00    +0.081 C 
BRANCH  24  25
ATOM     25  C   UNL     1      -5.660   1.494   3.959  0.00  0.00    +0.019 C 
ATOM     26  C   UNL     1      -4.874   2.768   4.311  0.00  0.00    +0.028 C 
ATOM     27  C   UNL     1      -5.829   3.986   4.339  0.00  0.00    +0.166 C 
ATOM     28  S   UNL     1      -7.441   3.225   4.792  0.00  0.00    -0.031 S 
ATOM     29  O   UNL     1      -7.798   3.643   6.103  0.00  0.00    -0.174 OA
ATOM     30  O   UNL     1      -8.358   3.414   3.724  0.00  0.00    -0.174 OA
ATOM     31  C   UNL     1      -6.938   1.453   4.845  0.00  0.00    +0.170 C 
ENDBRANCH  24  25
ENDBRANCH  21  24
ENDBRANCH  17  18
ENDBRANCH   2  17
TORSDOF 6
