REMARK  Name = ZINC38791260
REMARK  5 active torsions:
REMARK  status: ('A' for Active; 'I' for Inactive)
REMARK    1  A    between atoms: C_1  and  C_2
REMARK    2  A    between atoms: C_4  and  C_17
REMARK    3  A    between atoms: N_19  and  C_20
REMARK    4  A    between atoms: C_23  and  O_26
REMARK    5  A    between atoms: O_26  and  C_27
REMARK                            x       y       z     vdW  Elec       q    Type
REMARK                         _______ _______ _______ _____ _____    ______ ____
ROOT
ATOM      1  C   UNL     1      -2.402   0.385  -0.748  0.00  0.00    +0.247 C 
ATOM      2  O   UNL     1      -3.022  -0.655  -0.884  0.00  0.00    -0.270 OA
ATOM      3  N   UNL     1      -2.673   1.440  -1.542  0.00  0.00    -0.282 N 
ATOM      4  H   UNL     1      -2.250   2.296  -1.372  0.00  0.00    +0.155 HD
ENDROOT
BRANCH   1   7
ATOM      5  C   UNL     1      -1.419   2.878   0.971  0.00  0.00    +0.035 C 
ATOM      6  C   UNL     1      -0.544   1.698   0.541  0.00  0.00    +0.129 C 
ATOM      7  C   UNL     1      -1.400   0.486   0.244  0.00  0.00    +0.051 C 
ATOM      8  H   UNL     1       0.378  -0.602   2.621  0.00  0.00    +0.170 HD
ATOM      9  C   UNL     1      -1.024  -0.479   1.105  0.00  0.00    +0.098 C 
ATOM     10  N   UNL     1      -0.031  -0.057   1.931  0.00  0.00    -0.269 N 
ATOM     11  N   UNL     1       0.325   1.271   1.650  0.00  0.00    -0.228 N 
ATOM     12  C   UNL     1       1.302   2.033   2.291  0.00  0.00    +0.158 A 
ATOM     13  C   UNL     1       2.055   1.467   3.338  0.00  0.00    +0.052 A 
ATOM     14  C   UNL     1       3.007   2.210   3.962  0.00  0.00    +0.075 A 
ATOM     15  C   UNL     1       3.225   3.540   3.548  0.00  0.00    +0.265 A 
ATOM     16  O   UNL     1       4.077   4.223   4.096  0.00  0.00    -0.266 OA
ATOM     17  N   UNL     1       2.488   4.053   2.542  0.00  0.00    -0.241 N 
ATOM     18  H   UNL     1       2.634   4.967   2.253  0.00  0.00    +0.192 HD
ATOM     19  N   UNL     1       1.516   3.268   1.910  0.00  0.00    -0.154 NA
ENDBRANCH   1   7
BRANCH   3  20
ATOM     20  C   UNL     1      -3.563   1.299  -2.614  0.00  0.00    +0.034 A 
ATOM     21  C   UNL     1      -3.380   2.044  -3.771  0.00  0.00    +0.027 A 
ATOM     22  C   UNL     1      -4.258   1.905  -4.828  0.00  0.00    +0.048 A 
ATOM     23  C   UNL     1      -5.324   1.021  -4.733  0.00  0.00    +0.129 A 
ATOM     24  C   UNL     1      -5.508   0.277  -3.576  0.00  0.00    +0.048 A 
ATOM     25  C   UNL     1      -4.627   0.411  -2.521  0.00  0.00    +0.027 A 
BRANCH  23  26
ATOM     26  O   UNL     1      -6.188   0.885  -5.773  0.00  0.00    -0.456 OA
BRANCH  26  27
ATOM     27  C   UNL     1      -5.862   1.472  -6.955  0.00  0.00    +0.129 A 
ATOM     28  C   UNL     1      -4.947   0.866  -7.803  0.00  0.00    +0.047 A 
ATOM     29  C   UNL     1      -4.618   1.464  -9.003  0.00  0.00    +0.019 A 
ATOM     30  C   UNL     1      -5.200   2.667  -9.360  0.00  0.00    +0.018 A 
ATOM     31  C   UNL     1      -6.113   3.274  -8.516  0.00  0.00    +0.019 A 
ATOM     32  C   UNL     1      -6.449   2.676  -7.317  0.00  0.00    +0.047 A 
ATOM     33 BR   UNL     1      -4.747   3.485 -11.004  0.00  0.00    -0.050 Br
ENDBRANCH  26  27
ENDBRANCH  23  26
ENDBRANCH   3  20
TORSDOF 4
