REMARK  Name = ZINC64392515
REMARK  6 active torsions:
REMARK  status: ('A' for Active; 'I' for Inactive)
REMARK    1  A    between atoms: C_1  and  O_2
REMARK    2  A    between atoms: O_2  and  C_3
REMARK    3  A    between atoms: C_6  and  C_9
REMARK    4  A    between atoms: C_9  and  N_10
REMARK    5  A    between atoms: C_16  and  C_23
REMARK    6  A    between atoms: C_26  and  C_29
REMARK                            x       y       z     vdW  Elec       q    Type
REMARK                         _______ _______ _______ _____ _____    ______ ____
ROOT
ATOM      1  N   UNL     1       3.923  -2.713  -4.080  0.00  0.00    -0.256 N 
ATOM      2  C   UNL     1       4.817  -1.751  -4.395  0.00  0.00    +0.265 A 
ATOM      3  O   UNL     1       4.459  -0.717  -4.924  0.00  0.00    -0.267 OA
ATOM      4  C   UNL     1       6.237  -1.987  -4.080  0.00  0.00    +0.063 A 
ATOM      5  C   UNL     1       7.219  -1.044  -4.373  0.00  0.00    +0.016 A 
ATOM      6  C   UNL     1       8.535  -1.313  -4.059  0.00  0.00    +0.009 A 
ATOM      7  C   UNL     1       8.881  -2.512  -3.455  0.00  0.00    +0.006 A 
ATOM      8  C   UNL     1       7.917  -3.455  -3.159  0.00  0.00    +0.034 A 
ATOM      9  C   UNL     1       6.589  -3.203  -3.468  0.00  0.00    +0.056 A 
ATOM     10  N   UNL     1       5.590  -4.123  -3.187  0.00  0.00    -0.307 N 
ATOM     11  H   UNL     1       5.818  -4.966  -2.764  0.00  0.00    +0.170 HD
ATOM     12  C   UNL     1       4.308  -3.856  -3.490  0.00  0.00    +0.330 A 
ATOM     13  O   UNL     1       3.462  -4.687  -3.224  0.00  0.00    -0.246 OA
ENDROOT
BRANCH   7  14
ATOM     14  C   UNL     1      10.324  -2.789  -3.119  0.00  0.00    +0.274 C 
ATOM     15  N   UNL     1      11.208  -2.082  -4.053  0.00  0.00    -0.339 N 
ATOM     16  C   UNL     1      11.944  -1.252  -3.383  0.00  0.00    +0.134 C 
ATOM     17  N   UNL     1      11.663  -1.304  -2.040  0.00  0.00    -0.247 N 
ATOM     18  O   UNL     1      10.641  -2.265  -1.820  0.00  0.00    -0.243 OA
ATOM     19  H   UNL     1      12.092  -0.770  -1.353  0.00  0.00    +0.196 HD
ATOM     20  H   UNL     1      11.236  -2.214  -5.014  0.00  0.00    +0.164 HD
BRANCH  16  21
ATOM     21  C   UNL     1      12.962  -0.361  -3.989  0.00  0.00    +0.020 A 
ATOM     22  C   UNL     1      12.809   0.122  -5.292  0.00  0.00    +0.031 A 
ATOM     23  C   UNL     1      13.781   0.950  -5.817  0.00  0.00    +0.111 A 
ATOM     24  N   UNL     1      14.842   1.283  -5.109  0.00  0.00    -0.263 NA
ATOM     25  C   UNL     1      15.025   0.849  -3.877  0.00  0.00    +0.111 A 
ATOM     26  C   UNL     1      14.099   0.023  -3.272  0.00  0.00    +0.031 A 
ENDBRANCH  16  21
ENDBRANCH   7  14
BRANCH   1  27
ATOM     27  C   UNL     1       2.505  -2.503  -4.381  0.00  0.00    +0.165 C 
BRANCH  27  31
ATOM     28  C   UNL     1       0.606  -0.607  -1.056  0.00  0.00    +0.120 A 
ATOM     29  C   UNL     1       1.173   0.161  -2.062  0.00  0.00    +0.046 A 
ATOM     30  C   UNL     1       1.786  -0.455  -3.136  0.00  0.00    +0.009 A 
ATOM     31  C   UNL     1       1.835  -1.835  -3.209  0.00  0.00    -0.027 A 
ATOM     32  C   UNL     1       1.270  -2.602  -2.207  0.00  0.00    +0.009 A 
ATOM     33  C   UNL     1       0.661  -1.992  -1.128  0.00  0.00    +0.046 A 
BRANCH  28  35
ATOM     34  C   UNL     1      -0.017   1.425   0.010  0.00  0.00    +0.277 C 
ATOM     35  O   UNL     1       0.002  -0.004   0.002  0.00  0.00    -0.495 OA
ENDBRANCH  28  35
ENDBRANCH  27  31
ENDBRANCH   1  27
TORSDOF 5
