REMARK  Name = ZINC21231176
REMARK  8 active torsions:
REMARK  status: ('A' for Active; 'I' for Inactive)
REMARK    1  A    between atoms: C_1  and  C_2
REMARK    2  A    between atoms: C_2  and  C_3
REMARK    3  A    between atoms: C_2  and  C_4
REMARK    4  A    between atoms: C_4  and  O_5
REMARK    5  A    between atoms: O_5  and  C_6
REMARK    6  A    between atoms: C_9  and  C_12
REMARK    7  A    between atoms: C_17  and  C_27
REMARK    8  A    between atoms: C_31  and  N_33
REMARK                            x       y       z     vdW  Elec       q    Type
REMARK                         _______ _______ _______ _____ _____    ______ ____
ROOT
ATOM      1  C   UNL     1       1.766   2.024   0.059  0.00  0.00    +0.032 C 
ATOM      2  C   UNL     1       0.295   1.613   0.099  0.00  0.00    +0.059 C 
ATOM      3  C   UNL     1       0.181   0.098   0.066  0.00  0.00    +0.017 C 
ATOM      4  C   UNL     1       1.119  -0.666   0.649  0.00  0.00    +0.036 C 
ATOM      5  C   UNL     1       1.119  -2.176   0.712  0.00  0.00    +0.136 C 
ATOM      6  N   UNL     1       0.141  -2.811  -0.146  0.00  0.00    -0.331 N 
ATOM      7  C   UNL     1      -1.226  -2.634   0.065  0.00  0.00    +0.049 A 
ATOM      8  C   UNL     1      -2.032  -3.679   0.487  0.00  0.00    +0.025 A 
ATOM      9  C   UNL     1      -3.361  -3.433   0.789  0.00  0.00    +0.002 A 
ATOM     10  C   UNL     1      -3.881  -2.157   0.671  0.00  0.00    +0.002 A 
ATOM     11  C   UNL     1      -3.083  -1.116   0.229  0.00  0.00    +0.025 A 
ATOM     12  C   UNL     1      -1.759  -1.364  -0.089  0.00  0.00    +0.052 A 
ATOM     13  N   UNL     1      -0.915  -0.374  -0.580  0.00  0.00    -0.316 N 
ATOM     14  C   UNL     1       2.241  -0.068   1.269  0.00  0.00    +0.163 C 
ATOM     15  O   UNL     1       3.064  -0.784   1.807  0.00  0.00    -0.292 OA
ATOM     16  C   UNL     1       2.454   1.416   1.286  0.00  0.00    +0.088 C 
ATOM     17  H   UNL     1       0.471  -3.445  -0.982  0.00  0.00    +0.147 HD
ATOM     18  H   UNL     1      -1.189   0.030  -1.566  0.00  0.00    +0.152 HD
ENDROOT
BRANCH   1  22
ATOM     19  C   UNL     1       2.086   6.284   0.181  0.00  0.00    +0.121 A 
ATOM     20  C   UNL     1       2.595   5.580  -0.901  0.00  0.00    +0.046 A 
ATOM     21  C   UNL     1       2.490   4.202  -0.938  0.00  0.00    +0.007 A 
ATOM     22  C   UNL     1       1.879   3.526   0.102  0.00  0.00    -0.043 A 
ATOM     23  C   UNL     1       1.366   4.226   1.178  0.00  0.00    +0.007 A 
ATOM     24  C   UNL     1       1.473   5.603   1.223  0.00  0.00    +0.046 A 
BRANCH  19  25
ATOM     25  O   UNL     1       2.188   7.638   0.220  0.00  0.00    -0.492 OA
BRANCH  25  26
ATOM     26  C   UNL     1       1.641   8.297   1.365  0.00  0.00    +0.232 C 
BRANCH  26  28
ATOM     27  C   UNL     1       1.156  10.522   2.393  0.00  0.00    +0.010 C 
ATOM     28  C   UNL     1       1.849   9.807   1.231  0.00  0.00    +0.020 C 
ATOM     29  C   UNL     1       3.346  10.121   1.260  0.00  0.00    +0.010 C 
ENDBRANCH  26  28
ENDBRANCH  25  26
ENDBRANCH  19  25
ENDBRANCH   1  22
BRANCH   5  30
ATOM     30  C   UNL     1       0.847  -2.592   2.135  0.00  0.00    -0.021 A 
ATOM     31  C   UNL     1       1.819  -3.259   2.858  0.00  0.00    +0.006 A 
ATOM     32  C   UNL     1       1.570  -3.640   4.163  0.00  0.00    +0.003 A 
ATOM     33  C   UNL     1       0.349  -3.355   4.746  0.00  0.00    +0.033 A 
ATOM     34  C   UNL     1      -0.622  -2.688   4.024  0.00  0.00    +0.127 A 
ATOM     35  C   UNL     1      -0.371  -2.303   2.719  0.00  0.00    +0.038 A 
BRANCH  34  36
ATOM     36  N   UNL     1      -1.929  -2.382   4.647  0.00  0.00    +0.056 N 
ATOM     37  O   UNL     1      -2.148  -2.719   5.797  0.00  0.00    -0.126 OA
ATOM     38  O   UNL     1      -2.785  -1.794   4.011  0.00  0.00    -0.126 OA
ENDBRANCH  34  36
ENDBRANCH   5  30
TORSDOF 6
