REMARK  Name = ZINC45254512
REMARK  9 active torsions:
REMARK  status: ('A' for Active; 'I' for Inactive)
REMARK    1  A    between atoms: C_1  and  C_2
REMARK    2  A    between atoms: C_2  and  C_3
REMARK    3  A    between atoms: C_2  and  C_4
REMARK    4  A    between atoms: N_6  and  C_7
REMARK    5  A    between atoms: N_6  and  C_8
REMARK    6  A    between atoms: C_11  and  C_31
REMARK    7  A    between atoms: C_13  and  C_17
REMARK    8  A    between atoms: C_22  and  C_25
REMARK    9  A    between atoms: N_33  and  O_34
REMARK                            x       y       z     vdW  Elec       q    Type
REMARK                         _______ _______ _______ _____ _____    ______ ____
ROOT
ATOM      1  C   UNL     1      -2.802  -2.466   0.165  0.00  0.00    +0.059 C 
ATOM      2  C   UNL     1      -3.157  -3.240   1.438  0.00  0.00    +0.032 C 
ATOM      3  C   UNL     1      -4.601  -3.740   1.333  0.00  0.00    +0.073 C 
ATOM      4  C   UNL     1      -4.750  -4.595   0.073  0.00  0.00    +0.028 C 
ATOM      5  N   UNL     1      -4.422  -3.791  -1.110  0.00  0.00    +0.388 N 
ATOM      6  C   UNL     1      -3.017  -3.368  -1.052  0.00  0.00    -0.059 C 
ATOM      7  H   UNL     1      -4.572  -4.341  -1.942  0.00  0.00    -0.085 HD
ATOM      8  H   UNL     1      -5.016  -2.976  -1.137  0.00  0.00    -0.085 HD
ENDROOT
BRANCH   4   9
ATOM      9  C   UNL     1      -6.170  -5.088  -0.034  0.00  0.00    +0.203 C 
ATOM     10  O   UNL     1      -7.073  -4.300  -0.216  0.00  0.00    -0.277 OA
ATOM     11  N   UNL     1      -6.435  -6.405   0.072  0.00  0.00    -0.299 N 
ATOM     12  C   UNL     1      -7.799  -6.929  -0.116  0.00  0.00    +0.112 C 
ATOM     13  C   UNL     1      -7.780  -7.874  -1.321  0.00  0.00    +0.054 C 
ATOM     14  C   UNL     1      -6.601  -8.797  -1.243  0.00  0.00    -0.041 C 
ATOM     15  C   UNL     1      -5.539  -8.582  -0.504  0.00  0.00    -0.004 C 
ATOM     16  C   UNL     1      -5.375  -7.377   0.374  0.00  0.00    +0.135 C 
BRANCH  14  17
ATOM     17  C   UNL     1      -6.638 -10.033  -2.052  0.00  0.00    -0.022 A 
ATOM     18  C   UNL     1      -6.639  -9.959  -3.446  0.00  0.00    +0.008 A 
ATOM     19  C   UNL     1      -6.673 -11.116  -4.196  0.00  0.00    +0.001 A 
ATOM     20  C   UNL     1      -6.707 -12.349  -3.569  0.00  0.00    +0.000 A 
ATOM     21  C   UNL     1      -6.706 -12.430  -2.188  0.00  0.00    +0.001 A 
ATOM     22  C   UNL     1      -6.666 -11.280  -1.426  0.00  0.00    +0.008 A 
ENDBRANCH  14  17
ENDBRANCH   4   9
BRANCH   1  25
ATOM     23  C   UNL     1      -1.083  -0.739   0.173  0.00  0.00    +0.218 C 
ATOM     24  O   UNL     1      -1.961   0.094   0.081  0.00  0.00    -0.275 OA
ATOM     25  N   UNL     1      -1.399  -2.048   0.223  0.00  0.00    -0.303 N 
ATOM     26  C   UNL     1      -0.339  -3.053   0.334  0.00  0.00    +0.132 C 
BRANCH  23  28
ATOM     27  C   UNL     1       0.441   1.218   0.159  0.00  0.00    +0.017 C 
ATOM     28  C   UNL     1       0.360  -0.309   0.232  0.00  0.00    +0.069 C 
ATOM     29  C   UNL     1       0.982  -0.789   1.545  0.00  0.00    +0.017 C 
ENDBRANCH  23  28
ENDBRANCH   1  25
BRANCH   3  30
ATOM     30  C   UNL     1      -4.936  -4.568   2.547  0.00  0.00    +0.237 C 
ATOM     31  O   UNL     1      -5.337  -5.705   2.413  0.00  0.00    -0.273 OA
ATOM     32  N   UNL     1      -4.791  -4.045   3.780  0.00  0.00    -0.197 N 
ATOM     33  H   UNL     1      -4.470  -3.136   3.887  0.00  0.00    +0.182 HD
BRANCH  32  34
ATOM     34  O   UNL     1      -5.106  -4.823   4.921  0.00  0.00    -0.295 OA
ATOM     35  H   UNL     1      -4.970  -4.363   5.761  0.00  0.00    +0.241 HD
ENDBRANCH  32  34
ENDBRANCH   3  30
TORSDOF 6
