REMARK  Name = ZINC61611106
REMARK  6 active torsions:
REMARK  status: ('A' for Active; 'I' for Inactive)
REMARK    1  A    between atoms: C_1  and  C_2
REMARK    2  A    between atoms: C_5  and  N_9
REMARK    3  A    between atoms: C_10  and  C_12
REMARK    4  A    between atoms: C_12  and  C_14
REMARK    5  A    between atoms: C_12  and  C_16
REMARK    6  A    between atoms: C_14  and  N_15
REMARK                            x       y       z     vdW  Elec       q    Type
REMARK                         _______ _______ _______ _____ _____    ______ ____
ROOT
ATOM      1  N   UNL     1       0.059  -4.172  -0.021  0.00  0.00    -0.283 N 
ATOM      2  C   UNL     1       0.473  -4.846   1.070  0.00  0.00    +0.223 C 
ATOM      3  O   UNL     1       0.743  -4.245   2.088  0.00  0.00    -0.275 OA
ATOM      4  H   UNL     1      -0.225  -4.656  -0.811  0.00  0.00    +0.155 HD
ENDROOT
BRANCH   1   9
ATOM      5  C   UNL     1      -0.017   1.503   0.009  0.00  0.00    +0.044 C 
ATOM      6  C   UNL     1       0.003  -0.004   0.001  0.00  0.00    -0.048 A 
ATOM      7  C   UNL     1       1.143  -0.676  -0.400  0.00  0.00    +0.020 A 
ATOM      8  C   UNL     1       1.165  -2.058  -0.408  0.00  0.00    +0.040 A 
ATOM      9  C   UNL     1       0.041  -2.772  -0.013  0.00  0.00    +0.062 A 
ATOM     10  C   UNL     1      -1.103  -2.093   0.389  0.00  0.00    +0.040 A 
ATOM     11  C   UNL     1      -1.116  -0.711   0.400  0.00  0.00    +0.020 A 
ATOM     12 BR   UNL     1      -2.637  -3.059   0.927  0.00  0.00    -0.048 Br
ATOM     13 BR   UNL     1       2.725  -2.977  -0.957  0.00  0.00    -0.048 Br
ENDBRANCH   1   9
BRANCH   2  14
ATOM     14  C   UNL     1       0.601  -6.347   1.025  0.00  0.00    +0.088 C 
BRANCH  14  15
ATOM     15  C   UNL     1       1.078  -6.851   2.362  0.00  0.00    -0.037 A 
ATOM     16  C   UNL     1       2.291  -6.423   2.870  0.00  0.00    +0.004 A 
ATOM     17  C   UNL     1       2.728  -6.886   4.097  0.00  0.00    +0.000 A 
ATOM     18  C   UNL     1       1.953  -7.776   4.817  0.00  0.00    +0.000 A 
ATOM     19  C   UNL     1       0.740  -8.203   4.309  0.00  0.00    +0.000 A 
ATOM     20  C   UNL     1       0.301  -7.737   3.084  0.00  0.00    +0.004 A 
ENDBRANCH  14  15
BRANCH  14  21
ATOM     21  C   UNL     1       1.609  -6.740  -0.057  0.00  0.00    -0.069 C 
BRANCH  21  22
ATOM     22  N   UNL     1       1.645  -8.203  -0.184  0.00  0.00    +0.379 N 
ATOM     23  H   UNL     1       1.921  -8.610   0.697  0.00  0.00    -0.090 HD
ATOM     24  H   UNL     1       0.729  -8.542  -0.438  0.00  0.00    -0.090 HD
ATOM     25  H   UNL     1       2.310  -8.463  -0.897  0.00  0.00    -0.090 HD
ENDBRANCH  21  22
ENDBRANCH  14  21
ENDBRANCH   2  14
TORSDOF 5
