REMARK  Name = ZINC60098900
REMARK  11 active torsions:
REMARK  status: ('A' for Active; 'I' for Inactive)
REMARK    1  A    between atoms: C_1  and  C_2
REMARK    2  A    between atoms: C_5  and  C_32
REMARK    3  A    between atoms: C_6  and  S_8
REMARK    4  A    between atoms: S_8  and  N_11
REMARK    5  A    between atoms: N_11  and  C_12
REMARK    6  A    between atoms: C_15  and  N_19
REMARK    7  A    between atoms: C_20  and  C_22
REMARK    8  A    between atoms: C_22  and  C_24
REMARK    9  A    between atoms: C_22  and  N_25
REMARK   10  A    between atoms: C_26  and  C_31
REMARK   11  A    between atoms: C_28  and  C_30
REMARK                            x       y       z     vdW  Elec       q    Type
REMARK                         _______ _______ _______ _____ _____    ______ ____
ROOT
ATOM      1  C   UNL     1      -1.930  -5.008   2.242  0.00  0.00    +0.050 A 
ATOM      2  C   UNL     1      -1.815  -4.996   0.858  0.00  0.00    +0.026 A 
ATOM      3  C   UNL     1      -2.167  -6.112   0.126  0.00  0.00    +0.026 A 
ATOM      4  C   UNL     1      -2.636  -7.248   0.772  0.00  0.00    +0.052 A 
ATOM      5  C   UNL     1      -2.751  -7.261   2.157  0.00  0.00    +0.064 A 
ATOM      6  C   UNL     1      -2.393  -6.146   2.890  0.00  0.00    +0.046 A 
ATOM      7 CL   UNL     1      -3.338  -8.681   2.965  0.00  0.00    -0.082 Cl
ENDROOT
BRANCH   4   8
ATOM      8  N   UNL     1      -2.994  -8.381   0.028  0.00  0.00    -0.283 N 
ATOM      9  C   UNL     1      -2.329  -8.680  -1.106  0.00  0.00    +0.242 C 
ATOM     10  O   UNL     1      -1.368  -8.018  -1.438  0.00  0.00    -0.273 OA
ATOM     11  H   UNL     1      -3.720  -8.949   0.329  0.00  0.00    +0.155 HD
BRANCH   9  12
ATOM     12  C   UNL     1      -2.780  -9.835  -1.961  0.00  0.00    +0.190 C 
ATOM     13  C   UNL     1      -4.218  -9.594  -2.428  0.00  0.00    +0.042 C 
BRANCH  12  14
ATOM     14  N   UNL     1      -1.902  -9.952  -3.128  0.00  0.00    -0.257 N 
ATOM     15  C   UNL     1      -1.152 -11.026  -3.452  0.00  0.00    +0.037 A 
ATOM     16  C   UNL     1      -0.487 -10.735  -4.595  0.00  0.00    +0.047 A 
ATOM     17  C   UNL     1      -0.844  -9.439  -4.981  0.00  0.00    +0.060 A 
ATOM     18  N   UNL     1      -1.696  -8.971  -4.106  0.00  0.00    -0.176 NA
ATOM     19  C   UNL     1      -0.339  -8.710  -6.200  0.00  0.00    +0.067 C 
ATOM     20  C   UNL     1      -1.068 -12.318  -2.681  0.00  0.00    +0.065 C 
ENDBRANCH  12  14
ENDBRANCH   9  12
ENDBRANCH   4   8
BRANCH   1  21
ATOM     21  N   UNL     1      -1.574  -3.877   2.984  0.00  0.00    -0.216 N 
ATOM     22  H   UNL     1      -2.156  -3.558   3.691  0.00  0.00    +0.174 HD
BRANCH  21  23
ATOM     23  S   UNL     1      -0.158  -3.083   2.655  0.00  0.00    +0.073 S 
ATOM     24  O   UNL     1      -0.027  -2.064   3.636  0.00  0.00    -0.150 OA
ATOM     25  O   UNL     1      -0.164  -2.804   1.262  0.00  0.00    -0.150 OA
BRANCH  23  31
ATOM     26  C   UNL     1       3.848  -5.977   0.952  0.00  0.00    +0.044 C 
ATOM     27  C   UNL     1       2.981  -5.530   2.100  0.00  0.00    -0.049 A 
ATOM     28  C   UNL     1       3.216  -6.014   3.374  0.00  0.00    +0.004 A 
ATOM     29  C   UNL     1       2.421  -5.604   4.427  0.00  0.00    +0.005 A 
ATOM     30  C   UNL     1       1.390  -4.709   4.208  0.00  0.00    -0.024 A 
ATOM     31  C   UNL     1       1.155  -4.224   2.935  0.00  0.00    +0.112 A 
ATOM     32  C   UNL     1       1.954  -4.631   1.882  0.00  0.00    +0.032 A 
ATOM     33  C   UNL     1       0.523  -4.262   5.356  0.00  0.00    +0.046 C 
ENDBRANCH  23  31
ENDBRANCH  21  23
ENDBRANCH   1  21
TORSDOF 6
