REMARK  Name = ZINC40547766
REMARK  7 active torsions:
REMARK  status: ('A' for Active; 'I' for Inactive)
REMARK    1  A    between atoms: C_4  and  O_37
REMARK    2  A    between atoms: C_5  and  C_7
REMARK    3  A    between atoms: N_15  and  C_29
REMARK    4  A    between atoms: C_16  and  C_18
REMARK    5  A    between atoms: C_21  and  O_24
REMARK    6  A    between atoms: O_24  and  C_25
REMARK    7  A    between atoms: C_25  and  C_26
REMARK                            x       y       z     vdW  Elec       q    Type
REMARK                         _______ _______ _______ _____ _____    ______ ____
ROOT
ATOM      1  C   UNL     1       1.323  -2.561  -0.287  0.00  0.00    +0.102 A 
ATOM      2  C   UNL     1       0.122  -3.235  -0.039  0.00  0.00    +0.035 A 
ATOM      3  C   UNL     1       0.443  -4.579  -0.018  0.00  0.00    +0.126 A 
ATOM      4  N   UNL     1       1.788  -4.652  -0.248  0.00  0.00    -0.272 N 
ATOM      5  H   UNL     1       2.302  -5.473  -0.291  0.00  0.00    +0.189 HD
ATOM      6  N   UNL     1       2.270  -3.470  -0.405  0.00  0.00    -0.173 NA
ATOM      7  C   UNL     1      -0.780  -5.347   0.240  0.00  0.00    +0.266 C 
ATOM      8  O   UNL     1      -0.835  -6.559   0.319  0.00  0.00    -0.268 OA
ATOM      9  N   UNL     1      -1.832  -4.520   0.376  0.00  0.00    -0.280 N 
ATOM     10  C   UNL     1      -1.357  -3.139   0.213  0.00  0.00    +0.142 C 
ENDROOT
BRANCH   9  11
ATOM     11  C   UNL     1      -3.215  -4.926   0.641  0.00  0.00    +0.100 C 
ATOM     12  C   UNL     1      -3.703  -5.845  -0.492  0.00  0.00    +0.047 C 
ATOM     13  C   UNL     1      -5.035  -6.507  -0.038  0.00  0.00    +0.168 C 
ATOM     14  S   UNL     1      -4.645  -6.878   1.724  0.00  0.00    -0.029 S 
ATOM     15  O   UNL     1      -4.124  -8.197   1.814  0.00  0.00    -0.174 OA
ATOM     16  O   UNL     1      -5.754  -6.508   2.531  0.00  0.00    -0.174 OA
ATOM     17  C   UNL     1      -3.280  -5.677   1.993  0.00  0.00    +0.188 C 
ENDBRANCH   9  11
BRANCH   1  22
ATOM     18  C   UNL     1       1.085   1.123   0.427  0.00  0.00    +0.001 A 
ATOM     19  C   UNL     1       1.821   1.653  -0.618  0.00  0.00    +0.004 A 
ATOM     20  C   UNL     1       2.397   0.820  -1.558  0.00  0.00    +0.046 A 
ATOM     21  C   UNL     1       2.239  -0.553  -1.458  0.00  0.00    +0.126 A 
ATOM     22  C   UNL     1       1.497  -1.091  -0.403  0.00  0.00    +0.044 A 
ATOM     23  C   UNL     1       0.921  -0.242   0.539  0.00  0.00    +0.014 A 
BRANCH  21  24
ATOM     24  O   UNL     1       2.804  -1.374  -2.381  0.00  0.00    -0.506 OA
ATOM     25  H   UNL     1       3.701  -1.659  -2.158  0.00  0.00    +0.292 HD
ENDBRANCH  21  24
ENDBRANCH   1  22
BRANCH  10  26
ATOM     26  C   UNL     1      -2.043  -2.490  -0.961  0.00  0.00    -0.022 A 
ATOM     27  C   UNL     1      -2.209  -3.193  -2.139  0.00  0.00    +0.009 A 
ATOM     28  C   UNL     1      -2.837  -2.600  -3.217  0.00  0.00    +0.046 A 
ATOM     29  C   UNL     1      -3.300  -1.296  -3.116  0.00  0.00    +0.121 A 
ATOM     30  C   UNL     1      -3.132  -0.592  -1.933  0.00  0.00    +0.046 A 
ATOM     31  C   UNL     1      -2.509  -1.192  -0.856  0.00  0.00    +0.009 A 
BRANCH  29  32
ATOM     32  O   UNL     1      -3.918  -0.709  -4.176  0.00  0.00    -0.483 OA
BRANCH  32  33
ATOM     33  C   UNL     1      -4.369   0.635  -4.000  0.00  0.00    +0.324 C 
BRANCH  33  34
ATOM     34  C   UNL     1      -5.023   1.115  -5.270  0.00  0.00    +0.248 C 
ATOM     35  O   UNL     1      -5.096   0.378  -6.231  0.00  0.00    -0.272 OA
ATOM     36  N   UNL     1      -5.528   2.363  -5.339  0.00  0.00    -0.327 N 
ATOM     37  H   UNL     1      -5.470   2.952  -4.571  0.00  0.00    +0.145 HD
ATOM     38  H   UNL     1      -5.949   2.671  -6.156  0.00  0.00    +0.145 HD
ENDBRANCH  33  34
ENDBRANCH  32  33
ENDBRANCH  29  32
ENDBRANCH  10  26
TORSDOF 7
