REMARK  Name = ZINC15708084
REMARK  9 active torsions:
REMARK  status: ('A' for Active; 'I' for Inactive)
REMARK    1  A    between atoms: C_1  and  O_2
REMARK    2  A    between atoms: O_2  and  C_3
REMARK    3  A    between atoms: C_6  and  S_9
REMARK    4  A    between atoms: S_9  and  N_12
REMARK    5  A    between atoms: N_12  and  C_13
REMARK    6  A    between atoms: C_22  and  C_25
REMARK    7  A    between atoms: C_25  and  C_26
REMARK    8  A    between atoms: C_26  and  C_27
REMARK    9  A    between atoms: N_29  and  C_30
REMARK                            x       y       z     vdW  Elec       q    Type
REMARK                         _______ _______ _______ _____ _____    ______ ____
ROOT
ATOM      1  C   UNL     1      -0.699   3.020   2.789  0.00  0.00    +0.059 C 
ATOM      2  C   UNL     1       0.806   2.664   2.916  0.00  0.00    +0.012 C 
ATOM      3  C   UNL     1       0.942   1.356   2.135  0.00  0.00    +0.021 C 
ATOM      4  C   UNL     1       1.944   0.385   2.665  0.00  0.00    +0.200 C 
ATOM      5  O   UNL     1       2.960   0.779   3.198  0.00  0.00    -0.278 OA
ATOM      6  N   UNL     1       1.706  -0.936   2.543  0.00  0.00    -0.318 N 
ATOM      7  C   UNL     1       0.466  -1.509   2.036  0.00  0.00    +0.089 C 
ATOM      8  C   UNL     1      -0.454  -0.445   1.419  0.00  0.00    -0.050 C 
ATOM      9  C   UNL     1      -1.326   1.833   2.007  0.00  0.00    -0.057 C 
ATOM     10  H   UNL     1       2.408  -1.548   2.813  0.00  0.00    +0.149 HD
ATOM     11  N   UNL     1      -0.347   0.757   2.308  0.00  0.00    +0.391 N 
ATOM     12  H   UNL     1      -0.470   0.452   3.281  0.00  0.00    -0.080 HD
ENDROOT
BRANCH   1  13
ATOM     13  N   UNL     1      -1.308   3.138   4.116  0.00  0.00    -0.189 NA
ATOM     14  H   UNL     1      -1.245   2.402   4.746  0.00  0.00    +0.148 HD
BRANCH  13  15
ATOM     15  S   UNL     1      -2.106   4.525   4.542  0.00  0.00    +0.059 S 
ATOM     16  O   UNL     1      -2.673   4.291   5.823  0.00  0.00    -0.153 OA
ATOM     17  O   UNL     1      -1.212   5.601   4.289  0.00  0.00    -0.153 OA
BRANCH  15  21
ATOM     18  C   UNL     1      -5.567   5.016   1.663  0.00  0.00    +0.120 A 
ATOM     19  C   UNL     1      -5.708   4.219   2.790  0.00  0.00    +0.047 A 
ATOM     20  C   UNL     1      -4.651   4.071   3.667  0.00  0.00    +0.032 A 
ATOM     21  C   UNL     1      -3.453   4.716   3.422  0.00  0.00    +0.105 A 
ATOM     22  C   UNL     1      -3.311   5.515   2.302  0.00  0.00    +0.032 A 
ATOM     23  C   UNL     1      -4.364   5.662   1.420  0.00  0.00    +0.047 A 
BRANCH  18  25
ATOM     24  C   UNL     1      -6.356   5.907  -0.395  0.00  0.00    +0.277 C 
ATOM     25  O   UNL     1      -6.606   5.163   0.799  0.00  0.00    -0.495 OA
ENDBRANCH  18  25
ENDBRANCH  15  21
ENDBRANCH  13  15
ENDBRANCH   1  13
BRANCH   8  26
ATOM     26  C   UNL     1      -1.888  -0.974   1.351  0.00  0.00    -0.005 C 
BRANCH  26  27
ATOM     27  C   UNL     1      -1.935  -2.204   0.443  0.00  0.00    +0.094 C 
BRANCH  27  28
ATOM     28  C   UNL     1      -3.365  -2.652   0.278  0.00  0.00    +0.217 C 
ATOM     29  O   UNL     1      -4.265  -1.994   0.754  0.00  0.00    -0.275 OA
ATOM     30  N   UNL     1      -3.642  -3.785  -0.398  0.00  0.00    -0.285 N 
ATOM     31  H   UNL     1      -2.920  -4.345  -0.724  0.00  0.00    +0.155 HD
BRANCH  30  32
ATOM     32  C   UNL     1      -4.972  -4.154  -0.629  0.00  0.00    +0.033 A 
ATOM     33  C   UNL     1      -5.937  -3.178  -0.844  0.00  0.00    +0.023 A 
ATOM     34  C   UNL     1      -7.248  -3.545  -1.077  0.00  0.00    +0.002 A 
ATOM     35  C   UNL     1      -7.602  -4.882  -1.086  0.00  0.00    +0.000 A 
ATOM     36  C   UNL     1      -6.644  -5.855  -0.868  0.00  0.00    +0.002 A 
ATOM     37  C   UNL     1      -5.331  -5.495  -0.639  0.00  0.00    +0.023 A 
ENDBRANCH  30  32
ENDBRANCH  27  28
ENDBRANCH  26  27
ENDBRANCH   8  26
TORSDOF 8
