REMARK  Name = ZINC20916411
REMARK  11 active torsions:
REMARK  status: ('A' for Active; 'I' for Inactive)
REMARK    1  A    between atoms: C_1  and  O_2
REMARK    2  A    between atoms: O_2  and  C_3
REMARK    3  A    between atoms: C_3  and  C_5
REMARK    4  A    between atoms: C_10  and  N_11
REMARK    5  A    between atoms: C_12  and  C_14
REMARK    6  A    between atoms: C_14  and  S_15
REMARK    7  A    between atoms: S_15  and  C_16
REMARK    8  A    between atoms: N_20  and  N_21
REMARK    9  A    between atoms: N_22  and  N_23
REMARK   10  A    between atoms: C_24  and  C_25
REMARK   11  A    between atoms: C_34  and  O_35
REMARK                            x       y       z     vdW  Elec       q    Type
REMARK                         _______ _______ _______ _____ _____    ______ ____
ROOT
ATOM      1  C   UNL     1      -3.210  11.557   0.151  0.00  0.00    +0.210 A 
ATOM      2  N   UNL     1      -1.898  11.553   0.154  0.00  0.00    -0.119 NA
ATOM      3  N   UNL     1      -1.470  10.219   0.164  0.00  0.00    -0.109 NA
ATOM      4  C   UNL     1      -2.533   9.452   0.159  0.00  0.00    +0.254 A 
ATOM      5  N   UNL     1      -3.637  10.260   0.154  0.00  0.00    -0.211 N 
ATOM      6  N   UNL     1      -2.538   8.065   0.163  0.00  0.00    -0.204 N 
ATOM      7  H   UNL     1      -3.493   7.519   0.163  0.00  0.00    +0.177 HD
ENDROOT
BRANCH   5   8
ATOM      8  N   UNL     1      -4.937   9.842   0.152  0.00  0.00    -0.294 N 
ATOM      9  H   UNL     1      -5.170   8.767   0.155  0.00  0.00    +0.163 HD
ATOM     10  H   UNL     1      -5.752  10.581   0.148  0.00  0.00    +0.163 HD
ENDBRANCH   5   8
BRANCH   6  11
ATOM     11  N   UNL     1      -1.327   7.361   0.167  0.00  0.00    -0.187 NA
ATOM     12  C   UNL     1      -1.332   6.060   0.171  0.00  0.00    +0.142 C 
BRANCH  12  13
ATOM     13  C   UNL     1      -0.061   5.321   0.176  0.00  0.00    +0.044 A 
ATOM     14  C   UNL     1      -0.048   3.860   0.180  0.00  0.00    -0.006 A 
ATOM     15  C   UNL     1      -1.236   3.118   0.181  0.00  0.00    +0.009 A 
ATOM     16  C   UNL     1      -1.180   1.756   0.180  0.00  0.00    +0.001 A 
ATOM     17  C   UNL     1       0.044   1.091   0.189  0.00  0.00    +0.001 A 
ATOM     18  C   UNL     1       1.218   1.781   0.189  0.00  0.00    +0.008 A 
ATOM     19  C   UNL     1       1.198   3.186   0.184  0.00  0.00    -0.017 A 
ATOM     20  C   UNL     1       2.389   3.933   0.183  0.00  0.00    +0.012 A 
ATOM     21  C   UNL     1       2.358   5.292   0.180  0.00  0.00    +0.046 A 
ATOM     22  C   UNL     1       1.157   5.999   0.175  0.00  0.00    +0.126 A 
BRANCH  22  23
ATOM     23  O   UNL     1       1.174   7.357   0.171  0.00  0.00    -0.506 OA
ATOM     24  H   UNL     1       2.134   7.895   0.171  0.00  0.00    +0.292 HD
ENDBRANCH  22  23
ENDBRANCH  12  13
ENDBRANCH   6  11
BRANCH   1  25
ATOM     25  S   UNL     1      -4.241  12.986   0.146  0.00  0.00    -0.075 S 
BRANCH  25  26
ATOM     26  C   UNL     1      -3.070  14.372   0.144  0.00  0.00    +0.173 C 
BRANCH  26  28
ATOM     27  N   UNL     1      -3.164  16.844   0.137  0.00  0.00    -0.284 N 
ATOM     28  C   UNL     1      -3.832  15.673   0.139  0.00  0.00    +0.228 C 
ATOM     29  O   UNL     1      -5.044  15.666   0.137  0.00  0.00    -0.275 OA
ATOM     30  H   UNL     1      -2.067  16.852   0.213  0.00  0.00    +0.155 HD
BRANCH  27  36
ATOM     31  C   UNL     1      -3.319  19.122  -0.675  0.00  0.00    +0.080 A 
ATOM     32  C   UNL     1      -4.032  20.320  -0.766  0.00  0.00    +0.017 A 
ATOM     33  C   UNL     1      -5.262  20.436  -0.156  0.00  0.00    +0.001 A 
ATOM     34  C   UNL     1      -5.798  19.369   0.547  0.00  0.00    +0.002 A 
ATOM     35  C   UNL     1      -5.108  18.177   0.641  0.00  0.00    +0.024 A 
ATOM     36  C   UNL     1      -3.865  18.044   0.039  0.00  0.00    +0.047 A 
BRANCH  31  37
ATOM     37  C   UNL     1      -2.003  18.991  -1.325  0.00  0.00    +0.341 C 
ATOM     38  O   UNL     1      -1.431  17.919  -1.327  0.00  0.00    -0.245 OA
BRANCH  37  40
ATOM     39  C   UNL     1      -0.137  19.858  -2.536  0.00  0.00    +0.280 C 
ATOM     40  O   UNL     1      -1.434  20.060  -1.916  0.00  0.00    -0.464 OA
ENDBRANCH  37  40
ENDBRANCH  31  37
ENDBRANCH  27  36
ENDBRANCH  26  28
ENDBRANCH  25  26
ENDBRANCH   1  25
TORSDOF 10
