REMARK  Name = ZINC11012989
REMARK  14 active torsions:
REMARK  status: ('A' for Active; 'I' for Inactive)
REMARK    1  A    between atoms: C_1  and  C_2
REMARK    2  A    between atoms: C_2  and  C_3
REMARK    3  A    between atoms: C_3  and  C_4
REMARK    4  A    between atoms: C_4  and  N_5
REMARK    5  A    between atoms: C_6  and  N_32
REMARK    6  A    between atoms: C_7  and  N_14
REMARK    7  A    between atoms: N_14  and  C_15
REMARK    8  A    between atoms: C_15  and  C_16
REMARK    9  A    between atoms: C_17  and  C_19
REMARK   10  A    between atoms: C_19  and  N_59
REMARK   11  A    between atoms: C_20  and  N_59
REMARK   12  A    between atoms: C_21  and  C_22
REMARK   13  A    between atoms: C_21  and  N_59
REMARK   14  A    between atoms: C_24  and  N_29
REMARK                            x       y       z     vdW  Elec       q    Type
REMARK                         _______ _______ _______ _____ _____    ______ ____
ROOT
ATOM      1  N   UNL     1      -1.350  -4.841  -2.322  0.00  0.00    -0.266 N 
ATOM      2  C   UNL     1      -1.499  -4.259  -3.530  0.00  0.00    +0.203 C 
ATOM      3  O   UNL     1      -1.563  -3.050  -3.617  0.00  0.00    -0.277 OA
ENDROOT
BRANCH   1   6
ATOM      4  N   UNL     1      -0.299  -3.155   0.769  0.00  0.00    -0.280 N 
ATOM      5  C   UNL     1      -0.244  -3.925  -0.369  0.00  0.00    +0.127 A 
ATOM      6  C   UNL     1      -1.374  -4.054  -1.151  0.00  0.00    +0.140 A 
ATOM      7  C   UNL     1      -2.548  -3.381  -0.764  0.00  0.00    +0.277 A 
ATOM      8  O   UNL     1      -3.559  -3.473  -1.440  0.00  0.00    -0.266 OA
ATOM      9  N   UNL     1      -2.547  -2.634   0.357  0.00  0.00    -0.273 N 
ATOM     10  H   UNL     1      -3.381  -2.156   0.633  0.00  0.00    +0.173 HD
ATOM     11  C   UNL     1      -1.438  -2.525   1.110  0.00  0.00    +0.331 A 
ATOM     12  O   UNL     1      -1.466  -1.845   2.118  0.00  0.00    -0.246 OA
BRANCH   5  13
ATOM     13  N   UNL     1       0.921  -4.564  -0.720  0.00  0.00    -0.343 N 
ATOM     14  H   UNL     1       1.723  -4.436  -0.190  0.00  0.00    +0.144 HD
ATOM     15  H   UNL     1       0.941  -5.142  -1.499  0.00  0.00    +0.144 HD
ENDBRANCH   5  13
BRANCH   4  16
ATOM     16  C   UNL     1       0.891  -3.015   1.612  0.00  0.00    +0.128 C 
BRANCH  16  17
ATOM     17  C   UNL     1       0.897  -4.118   2.673  0.00  0.00    +0.021 C 
BRANCH  17  19
ATOM     18  C   UNL     1       2.147  -5.075   4.613  0.00  0.00    +0.004 C 
ATOM     19  C   UNL     1       2.140  -3.972   3.553  0.00  0.00    -0.002 C 
ENDBRANCH  17  19
ENDBRANCH  16  17
ENDBRANCH   4  16
ENDBRANCH   1   6
BRANCH   1  20
ATOM     20  C   UNL     1      -1.164  -6.291  -2.225  0.00  0.00    +0.110 C 
ATOM     21  C   UNL     1      -2.530  -6.982  -2.233  0.00  0.00    +0.025 C 
ENDBRANCH   1  20
BRANCH   2  22
ATOM     22  C   UNL     1      -1.586  -5.109  -4.771  0.00  0.00    +0.019 C 
BRANCH  22  24
ATOM     23  C   UNL     1      -0.543  -3.428  -6.166  0.00  0.00    -0.095 C 
ATOM     24  N   UNL     1      -1.767  -4.226  -5.942  0.00  0.00    +0.386 N 
ATOM     25  H   UNL     1      -2.552  -3.589  -5.762  0.00  0.00    -0.081 HD
BRANCH  24  26
ATOM     26  C   UNL     1      -2.070  -5.034  -7.142  0.00  0.00    -0.041 C 
BRANCH  26  27
ATOM     27  C   UNL     1      -2.464  -4.109  -8.264  0.00  0.00    -0.043 A 
ATOM     28  C   UNL     1      -1.583  -3.865  -9.301  0.00  0.00    +0.036 A 
ATOM     29  C   UNL     1      -1.947  -3.021 -10.333  0.00  0.00    +0.126 A 
ATOM     30  C   UNL     1      -3.188  -2.412 -10.324  0.00  0.00    +0.034 A 
ATOM     31  C   UNL     1      -4.068  -2.650  -9.285  0.00  0.00    +0.022 A 
ATOM     32  C   UNL     1      -3.706  -3.500  -8.254  0.00  0.00    +0.042 A 
ATOM     33 CL   UNL     1      -4.810  -3.800  -6.949  0.00  0.00    -0.083 Cl
BRANCH  29  34
ATOM     34  N   UNL     1      -1.005  -2.764 -11.446  0.00  0.00    +0.056 N 
ATOM     35  O   UNL     1      -1.324  -2.016 -12.353  0.00  0.00    -0.126 OA
ATOM     36  O   UNL     1       0.088  -3.301 -11.454  0.00  0.00    -0.126 OA
ENDBRANCH  29  34
ENDBRANCH  26  27
ENDBRANCH  24  26
ENDBRANCH  22  24
ENDBRANCH   2  22
TORSDOF 11
