REMARK  Name = ZINC36612680
REMARK  12 active torsions:
REMARK  status: ('A' for Active; 'I' for Inactive)
REMARK    1  A    between atoms: C_1  and  C_2
REMARK    2  A    between atoms: C_2  and  O_3
REMARK    3  A    between atoms: O_3  and  C_4
REMARK    4  A    between atoms: C_6  and  C_15
REMARK    5  A    between atoms: C_9  and  O_10
REMARK    6  A    between atoms: O_10  and  C_11
REMARK    7  A    between atoms: C_11  and  C_12
REMARK    8  A    between atoms: C_11  and  C_13
REMARK    9  A    between atoms: C_17  and  C_30
REMARK   10  A    between atoms: C_18  and  N_29
REMARK   11  A    between atoms: C_25  and  C_27
REMARK   12  A    between atoms: C_25  and  C_28
REMARK                            x       y       z     vdW  Elec       q    Type
REMARK                         _______ _______ _______ _____ _____    ______ ____
ROOT
ATOM      1  C   UNL     1      -0.671  -4.277  -0.695  0.00  0.00    +0.101 C 
ATOM      2  C   UNL     1      -1.691  -5.200  -0.090  0.00  0.00    +0.098 C 
ATOM      3  C   UNL     1      -1.440  -6.527   0.017  0.00  0.00    +0.198 C 
ATOM      4  O   UNL     1      -0.278  -7.050  -0.411  0.00  0.00    -0.445 OA
ATOM      5  C   UNL     1       0.472  -6.391  -1.316  0.00  0.00    +0.115 C 
ATOM      6  C   UNL     1       0.337  -5.067  -1.495  0.00  0.00    +0.046 C 
ATOM      7  C   UNL     1       1.130  -4.376  -2.431  0.00  0.00    +0.164 C 
ATOM      8  O   UNL     1       0.974  -3.181  -2.578  0.00  0.00    -0.292 OA
ATOM      9  C   UNL     1       2.168  -5.092  -3.251  0.00  0.00    +0.086 C 
ATOM     10  C   UNL     1       2.667  -6.311  -2.467  0.00  0.00    -0.021 C 
ATOM     11  C   UNL     1       1.468  -7.184  -2.127  0.00  0.00    +0.081 C 
ATOM     12  C   UNL     1       3.655  -7.105  -3.324  0.00  0.00    +0.012 C 
ATOM     13  C   UNL     1       3.352  -5.849  -1.180  0.00  0.00    +0.012 C 
ENDROOT
BRANCH   1  16
ATOM     14  C   UNL     1       0.633  -1.461   1.460  0.00  0.00    +0.163 A 
ATOM     15  C   UNL     1      -0.020  -2.150   0.450  0.00  0.00    +0.054 A 
ATOM     16  C   UNL     1       0.040  -3.530   0.404  0.00  0.00    -0.030 A 
ATOM     17  C   UNL     1       0.751  -4.226   1.363  0.00  0.00    +0.022 A 
ATOM     18  C   UNL     1       1.405  -3.546   2.374  0.00  0.00    +0.059 A 
ATOM     19  C   UNL     1       1.353  -2.161   2.422  0.00  0.00    +0.175 A 
ATOM     20  I   UNL     1       2.480  -4.606   3.826  0.00  0.00    -0.040 I 
BRANCH  14  21
ATOM     21  O   UNL     1       0.574  -0.103   1.507  0.00  0.00    -0.489 OA
BRANCH  21  23
ATOM     22  C   UNL     1      -0.135   2.063   0.703  0.00  0.00    +0.048 C 
ATOM     23  C   UNL     1      -0.184   0.549   0.487  0.00  0.00    +0.226 C 
ENDBRANCH  21  23
ENDBRANCH  14  21
BRANCH  19  24
ATOM     24  O   UNL     1       2.000  -1.489   3.412  0.00  0.00    -0.485 OA
BRANCH  24  25
ATOM     25  C   UNL     1       3.385  -1.202   3.204  0.00  0.00    +0.168 C 
ATOM     26  C   UNL     1       3.523   0.122   2.451  0.00  0.00    +0.051 C 
ATOM     27  C   UNL     1       4.093  -1.097   4.556  0.00  0.00    +0.051 C 
ENDBRANCH  24  25
ENDBRANCH  19  24
ENDBRANCH   1  16
BRANCH   3  28
ATOM     28  N   UNL     1      -2.387  -7.351   0.572  0.00  0.00    -0.328 N 
ATOM     29  H   UNL     1      -3.228  -6.982   0.883  0.00  0.00    +0.145 HD
ATOM     30  H   UNL     1      -2.215  -8.303   0.652  0.00  0.00    +0.145 HD
ENDBRANCH   3  28
BRANCH   2  31
ATOM     31  C   UNL     1      -2.937  -4.673   0.377  0.00  0.00    +0.101 C 
ATOM     32  N   UNL     1      -3.926  -4.254   0.748  0.00  0.00    -0.191 NA
ENDBRANCH   2  31
TORSDOF 7
