REMARK  Name = ZINC12677573
REMARK  9 active torsions:
REMARK  status: ('A' for Active; 'I' for Inactive)
REMARK    1  A    between atoms: C_6  and  S_11
REMARK    2  A    between atoms: S_11  and  N_14
REMARK    3  A    between atoms: N_14  and  C_15
REMARK    4  A    between atoms: C_15  and  C_17
REMARK    5  A    between atoms: C_15  and  C_22
REMARK    6  A    between atoms: C_17  and  C_18
REMARK    7  A    between atoms: C_18  and  C_19
REMARK    8  A    between atoms: N_24  and  C_25
REMARK    9  A    between atoms: C_25  and  C_26
REMARK                            x       y       z     vdW  Elec       q    Type
REMARK                         _______ _______ _______ _____ _____    ______ ____
ROOT
ATOM      1  C   UNL     1      -1.127   3.198   2.466  0.00  0.00    +0.162 C 
ENDROOT
BRANCH   1   2
ATOM      2  C   UNL     1      -0.808   2.614   3.818  0.00  0.00    +0.232 C 
ATOM      3  O   UNL     1      -1.374   1.610   4.194  0.00  0.00    -0.274 OA
ATOM      4  N   UNL     1       0.108   3.208   4.609  0.00  0.00    -0.310 N 
ATOM      5  H   UNL     1       0.561   4.011   4.308  0.00  0.00    +0.149 HD
BRANCH   4   6
ATOM      6  C   UNL     1       0.418   2.640   5.923  0.00  0.00    +0.142 C 
BRANCH   6   7
ATOM      7  C   UNL     1       1.465   3.486   6.601  0.00  0.00    +0.005 A 
ATOM      8  C   UNL     1       2.788   3.084   6.596  0.00  0.00    +0.008 A 
ATOM      9  C   UNL     1       3.749   3.863   7.213  0.00  0.00    +0.000 A 
ATOM     10  C   UNL     1       3.388   5.038   7.845  0.00  0.00    +0.003 A 
ATOM     11  C   UNL     1       2.065   5.438   7.856  0.00  0.00    +0.038 A 
ATOM     12  C   UNL     1       1.102   4.662   7.234  0.00  0.00    +0.128 A 
ATOM     13  F   UNL     1      -0.191   5.052   7.244  0.00  0.00    -0.205 F 
ENDBRANCH   6   7
ENDBRANCH   4   6
ENDBRANCH   1   2
BRANCH   1  14
ATOM     14  N   UNL     1      -2.145   2.376   1.807  0.00  0.00    -0.178 NA
ATOM     15  H   UNL     1      -2.855   1.972   2.329  0.00  0.00    +0.149 HD
BRANCH  14  16
ATOM     16  S   UNL     1      -2.083   2.137   0.169  0.00  0.00    +0.059 S 
ATOM     17  O   UNL     1      -1.904   3.417  -0.422  0.00  0.00    -0.153 OA
ATOM     18  O   UNL     1      -3.179   1.293  -0.160  0.00  0.00    -0.153 OA
BRANCH  16  24
ATOM     19  C   UNL     1       2.822  -2.290  -0.995  0.00  0.00    +0.001 A 
ATOM     20  C   UNL     1       1.632  -2.966  -0.730  0.00  0.00    +0.001 A 
ATOM     21  C   UNL     1       0.484  -2.286  -0.460  0.00  0.00    +0.008 A 
ATOM     22  C   UNL     1       0.496  -0.880  -0.446  0.00  0.00    -0.016 A 
ATOM     23  C   UNL     1      -0.668  -0.143  -0.172  0.00  0.00    +0.037 A 
ATOM     24  C   UNL     1      -0.619   1.217  -0.168  0.00  0.00    +0.106 A 
ATOM     25  C   UNL     1       0.571   1.893  -0.433  0.00  0.00    +0.029 A 
ATOM     26  C   UNL     1       1.718   1.212  -0.702  0.00  0.00    +0.010 A 
ATOM     27  C   UNL     1       1.706  -0.193  -0.716  0.00  0.00    -0.018 A 
ATOM     28  C   UNL     1       2.871  -0.930  -0.991  0.00  0.00    +0.008 A 
ENDBRANCH  16  24
ENDBRANCH  14  16
ENDBRANCH   1  14
BRANCH   1  29
ATOM     29  C   UNL     1      -1.656   4.623   2.638  0.00  0.00    +0.039 C 
BRANCH  29  30
ATOM     30  C   UNL     1      -2.951   4.592   3.453  0.00  0.00    +0.097 C 
BRANCH  30  31
ATOM     31  C   UNL     1      -3.424   6.001   3.700  0.00  0.00    +0.211 C 
ATOM     32  O   UNL     1      -2.788   6.939   3.267  0.00  0.00    -0.276 OA
ATOM     33  N   UNL     1      -4.553   6.220   4.402  0.00  0.00    -0.329 N 
ATOM     34  H   UNL     1      -5.062   5.470   4.748  0.00  0.00    +0.145 HD
ATOM     35  H   UNL     1      -4.857   7.127   4.561  0.00  0.00    +0.145 HD
ENDBRANCH  30  31
ENDBRANCH  29  30
ENDBRANCH   1  29
TORSDOF 9
