REMARK  Name = ZINC31223525
REMARK  2 active torsions:
REMARK  status: ('A' for Active; 'I' for Inactive)
REMARK    1  A    between atoms: C_6  and  C_7
REMARK    2  A    between atoms: C_10  and  C_12
REMARK                            x       y       z     vdW  Elec       q    Type
REMARK                         _______ _______ _______ _____ _____    ______ ____
ROOT
ATOM      1  C   UNL     1      -2.851   2.579   5.439  0.00  0.00    +0.020 A 
ATOM      2  C   UNL     1      -2.864   1.194   5.478  0.00  0.00    +0.017 A 
ATOM      3  C   UNL     1      -2.354   0.502   4.416  0.00  0.00    +0.021 A 
ATOM      4  C   UNL     1      -1.843   1.214   3.341  0.00  0.00    +0.075 A 
ATOM      5  S   UNL     1      -2.089   2.905   3.858  0.00  0.00    -0.084 S 
ENDROOT
BRANCH   4   6
ATOM      6  C   UNL     1      -1.248   0.708   2.101  0.00  0.00    +0.254 C 
ATOM      7  O   UNL     1      -1.025  -0.482   1.974  0.00  0.00    -0.269 OA
ATOM      8  N   UNL     1      -0.949   1.560   1.101  0.00  0.00    -0.287 N 
ATOM      9  C   UNL     1      -0.219   1.109  -0.097  0.00  0.00    +0.127 C 
ATOM     10  C   UNL     1      -1.119   1.326  -1.315  0.00  0.00    +0.123 C 
ATOM     11  N   UNL     1      -1.716   2.654  -1.286  0.00  0.00    -0.313 N 
ATOM     12  C   UNL     1      -1.863   3.395  -0.186  0.00  0.00    +0.230 C 
ATOM     13  O   UNL     1      -2.448   4.454  -0.276  0.00  0.00    -0.274 OA
ATOM     14  C   UNL     1      -1.338   2.977   1.160  0.00  0.00    +0.203 C 
ATOM     15  H   UNL     1      -2.083   3.113  -2.216  0.00  0.00    +0.149 HD
ENDBRANCH   4   6
BRANCH   1  21
ATOM     16  C   UNL     1      -3.910   3.080   7.638  0.00  0.00    +0.010 A 
ATOM     17  C   UNL     1      -4.358   3.982   8.579  0.00  0.00    +0.016 A 
ATOM     18  C   UNL     1      -4.252   5.343   8.345  0.00  0.00    +0.018 A 
ATOM     19  C   UNL     1      -3.691   5.806   7.167  0.00  0.00    +0.016 A 
ATOM     20  C   UNL     1      -3.234   4.914   6.219  0.00  0.00    +0.010 A 
ATOM     21  C   UNL     1      -3.339   3.541   6.450  0.00  0.00    -0.011 A 
ATOM     22 BR   UNL     1      -4.876   6.573   9.638  0.00  0.00    -0.050 Br
ENDBRANCH   1  21
TORSDOF 2
