REMARK  Name = ZINC21263732
REMARK  16 active torsions:
REMARK  status: ('A' for Active; 'I' for Inactive)
REMARK    1  A    between atoms: C_1  and  C_2
REMARK    2  A    between atoms: C_2  and  C_32
REMARK    3  A    between atoms: C_4  and  N_10
REMARK    4  A    between atoms: C_6  and  C_8
REMARK    5  A    between atoms: C_6  and  C_9
REMARK    6  A    between atoms: N_10  and  C_11
REMARK    7  A    between atoms: C_11  and  N_13
REMARK    8  A    between atoms: N_13  and  C_14
REMARK    9  A    between atoms: N_13  and  C_27
REMARK   10  A    between atoms: C_14  and  C_15
REMARK   11  A    between atoms: C_18  and  O_25
REMARK   12  A    between atoms: C_19  and  O_23
REMARK   13  A    between atoms: C_20  and  O_21
REMARK   14  A    between atoms: O_21  and  C_22
REMARK   15  A    between atoms: O_23  and  C_24
REMARK   16  A    between atoms: O_25  and  C_26
REMARK                            x       y       z     vdW  Elec       q    Type
REMARK                         _______ _______ _______ _____ _____    ______ ____
ROOT
ATOM      1  N   UNL     1       2.637   2.725   1.683  0.00  0.00    -0.305 N 
ENDROOT
BRANCH   1   2
ATOM      2  C   UNL     1       3.466   3.914   1.466  0.00  0.00    +0.075 C 
ATOM      3  C   UNL     1       3.285   4.428   0.022  0.00  0.00    +0.022 C 
ATOM      4  C   UNL     1       4.697   4.916  -0.386  0.00  0.00    +0.002 C 
ATOM      5  C   UNL     1       5.626   3.863   0.268  0.00  0.00    +0.002 C 
ATOM      6  C   UNL     1       4.954   3.555   1.622  0.00  0.00    +0.022 C 
ENDBRANCH   1   2
BRANCH   1   7
ATOM      7  C   UNL     1       2.755   1.663   0.862  0.00  0.00    +0.134 C 
ATOM      8  S   UNL     1       3.964   1.648  -0.351  0.00  0.00    -0.019 S 
BRANCH   7   9
ATOM      9  N   UNL     1       1.922   0.612   0.995  0.00  0.00    -0.324 N 
ATOM     10  H   UNL     1       1.092   0.656   1.716  0.00  0.00    +0.148 HD
BRANCH   9  14
ATOM     11  C   UNL     1       3.144  -3.534   0.142  0.00  0.00    -0.010 C 
ATOM     12  C   UNL     1       1.688  -3.060   0.061  0.00  0.00    -0.072 C 
ATOM     13  C   UNL     1       1.516  -1.796   0.899  0.00  0.00    +0.009 C 
ATOM     14  C   UNL     1       2.121  -0.592   0.178  0.00  0.00    +0.069 C 
ATOM     15  C   UNL     1       1.404  -0.416  -1.160  0.00  0.00    +0.009 C 
ATOM     16  C   UNL     1       1.578  -1.664  -2.023  0.00  0.00    -0.072 C 
ATOM     17  N   UNL     1       1.270  -2.888  -1.314  0.00  0.00    +0.386 N 
ATOM     18  C   UNL     1       3.000  -1.697  -2.596  0.00  0.00    -0.010 C 
ATOM     19  C   UNL     1       0.607  -1.541  -3.219  0.00  0.00    -0.010 C 
ATOM     20  C   UNL     1       0.812  -4.162   0.697  0.00  0.00    -0.010 C 
ATOM     21  H   UNL     1       1.724  -3.674  -1.936  0.00  0.00    -0.084 HD
ATOM     22  H   UNL     1       0.174  -2.960  -1.376  0.00  0.00    -0.084 HD
ENDBRANCH   9  14
ENDBRANCH   7   9
ENDBRANCH   1   7
BRANCH   1  23
ATOM     23  C   UNL     1       1.681   2.691   2.792  0.00  0.00    +0.146 C 
BRANCH  23  24
ATOM     24  C   UNL     1       0.350   3.220   2.324  0.00  0.00    +0.015 A 
ATOM     25  C   UNL     1      -0.665   2.342   1.992  0.00  0.00    +0.012 A 
ATOM     26  C   UNL     1      -1.885   2.823   1.558  0.00  0.00    +0.050 A 
ATOM     27  C   UNL     1      -2.099   4.190   1.458  0.00  0.00    +0.165 A 
ATOM     28  C   UNL     1      -1.083   5.076   1.796  0.00  0.00    +0.204 A 
ATOM     29  C   UNL     1       0.143   4.588   2.233  0.00  0.00    +0.170 A 
BRANCH  29  30
ATOM     30  O   UNL     1       1.140   5.452   2.565  0.00  0.00    -0.491 OA
ATOM     31  C   UNL     1       1.235   5.835   3.939  0.00  0.00    +0.277 C 
ENDBRANCH  29  30
BRANCH  28  32
ATOM     32  O   UNL     1      -1.289   6.418   1.700  0.00  0.00    -0.488 OA
ATOM     33  C   UNL     1      -0.967   7.035   0.452  0.00  0.00    +0.277 C 
ENDBRANCH  28  32
BRANCH  27  34
ATOM     34  O   UNL     1      -3.300   4.662   1.030  0.00  0.00    -0.491 OA
ATOM     35  C   UNL     1      -4.298   3.693   0.700  0.00  0.00    +0.277 C 
ENDBRANCH  27  34
ENDBRANCH  23  24
ENDBRANCH   1  23
TORSDOF 9
