REMARK  Name = ZINC02262100
REMARK  9 active torsions:
REMARK  status: ('A' for Active; 'I' for Inactive)
REMARK    1  A    between atoms: C_1  and  O_2
REMARK    2  A    between atoms: O_2  and  C_3
REMARK    3  A    between atoms: C_3  and  C_5
REMARK    4  A    between atoms: C_11  and  C_12
REMARK    5  A    between atoms: C_20  and  N_35
REMARK    6  A    between atoms: C_21  and  C_31
REMARK    7  A    between atoms: C_22  and  C_24
REMARK    8  A    between atoms: C_31  and  O_33
REMARK    9  A    between atoms: O_33  and  C_34
REMARK                            x       y       z     vdW  Elec       q    Type
REMARK                         _______ _______ _______ _____ _____    ______ ____
ROOT
ATOM      1  C   UNL     1      -0.499   4.046   2.672  0.00  0.00    +0.079 C 
ATOM      2  C   UNL     1      -1.128   5.261   2.611  0.00  0.00    +0.100 A 
ATOM      3  N   UNL     1      -1.702   5.893   3.696  0.00  0.00    -0.257 N 
ATOM      4  C   UNL     1      -2.295   7.085   3.484  0.00  0.00    +0.271 A 
ATOM      5  O   UNL     1      -2.814   7.694   4.401  0.00  0.00    -0.266 OA
ATOM      6  C   UNL     1      -2.300   7.630   2.121  0.00  0.00    +0.079 A 
ATOM      7  C   UNL     1      -2.825   8.793   1.660  0.00  0.00    +0.028 C 
ATOM      8  S   UNL     1      -1.428   6.349   1.233  0.00  0.00    -0.065 S 
ATOM      9  C   UNL     1      -1.639   5.281   4.951  0.00  0.00    +0.115 C 
ATOM     10  C   UNL     1      -1.048   4.085   5.178  0.00  0.00    +0.087 C 
ATOM     11  C   UNL     1      -0.410   3.351   4.016  0.00  0.00    +0.099 C 
ENDROOT
BRANCH   7  12
ATOM     12  C   UNL     1      -2.553   9.227   0.283  0.00  0.00    -0.024 A 
ATOM     13  C   UNL     1      -1.473   8.687  -0.425  0.00  0.00    +0.009 A 
ATOM     14  C   UNL     1      -1.229   9.094  -1.718  0.00  0.00    +0.020 A 
ATOM     15  C   UNL     1      -2.041  10.046  -2.314  0.00  0.00    +0.041 A 
ATOM     16  C   UNL     1      -3.108  10.590  -1.618  0.00  0.00    +0.020 A 
ATOM     17  C   UNL     1      -3.369  10.188  -0.326  0.00  0.00    +0.009 A 
ATOM     18 CL   UNL     1      -1.720  10.558  -3.942  0.00  0.00    -0.084 Cl
ENDBRANCH   7  12
BRANCH  11  19
ATOM     19  C   UNL     1      -1.069   2.001   3.893  0.00  0.00    -0.035 A 
ATOM     20  C   UNL     1      -2.403   1.912   3.543  0.00  0.00    +0.006 A 
ATOM     21  C   UNL     1      -3.006   0.674   3.424  0.00  0.00    +0.020 A 
ATOM     22  C   UNL     1      -2.277  -0.476   3.667  0.00  0.00    +0.041 A 
ATOM     23  C   UNL     1      -0.943  -0.387   4.023  0.00  0.00    +0.020 A 
ATOM     24  C   UNL     1      -0.340   0.852   4.136  0.00  0.00    +0.006 A 
ATOM     25 CL   UNL     1      -3.036  -2.031   3.526  0.00  0.00    -0.084 Cl
ENDBRANCH  11  19
BRANCH   9  26
ATOM     26  N   UNL     1      -2.210   5.931   6.014  0.00  0.00    -0.344 N 
ATOM     27  H   UNL     1      -2.092   6.888   6.117  0.00  0.00    +0.144 HD
ATOM     28  H   UNL     1      -2.731   5.433   6.663  0.00  0.00    +0.144 HD
ENDBRANCH   9  26
BRANCH   1  29
ATOM     29  C   UNL     1       0.054   3.464   1.523  0.00  0.00    +0.338 C 
ATOM     30  O   UNL     1      -0.026   4.037   0.451  0.00  0.00    -0.245 OA
BRANCH  29  32
ATOM     31  C   UNL     1       1.216   1.733   0.394  0.00  0.00    +0.280 C 
ATOM     32  O   UNL     1       0.676   2.267   1.604  0.00  0.00    -0.465 OA
ENDBRANCH  29  32
ENDBRANCH   1  29
BRANCH  10  33
ATOM     33  C   UNL     1      -1.026   3.534   6.468  0.00  0.00    +0.339 C 
ATOM     34  O   UNL     1      -1.474   4.165   7.408  0.00  0.00    -0.245 OA
BRANCH  33  35
ATOM     35  O   UNL     1      -0.506   2.303   6.668  0.00  0.00    -0.465 OA
ATOM     36  C   UNL     1      -0.516   1.804   8.007  0.00  0.00    +0.280 C 
ENDBRANCH  33  35
ENDBRANCH  10  33
TORSDOF 7
