REMARK  Name = ZINC16432637
REMARK  14 active torsions:
REMARK  status: ('A' for Active; 'I' for Inactive)
REMARK    1  A    between atoms: C_1  and  C_2
REMARK    2  A    between atoms: C_2  and  C_3
REMARK    3  A    between atoms: C_3  and  N_4
REMARK    4  A    between atoms: N_4  and  C_5
REMARK    5  A    between atoms: C_5  and  C_6
REMARK    6  A    between atoms: N_8  and  C_9
REMARK    7  A    between atoms: C_11  and  C_21
REMARK    8  A    between atoms: N_13  and  C_14
REMARK    9  A    between atoms: C_21  and  C_22
REMARK   10  A    between atoms: C_21  and  C_23
REMARK   11  A    between atoms: C_21  and  C_24
REMARK   12  A    between atoms: N_27  and  C_28
REMARK   13  A    between atoms: C_32  and  C_35
REMARK   14  A    between atoms: C_33  and  C_34
REMARK                            x       y       z     vdW  Elec       q    Type
REMARK                         _______ _______ _______ _____ _____    ______ ____
ROOT
ATOM      1  C   UNL     1       1.756   7.461  -0.389  0.00  0.00    +0.236 C 
ATOM      2  O   UNL     1       2.904   7.845  -0.475  0.00  0.00    -0.274 OA
ATOM      3  N   UNL     1       1.496   6.151  -0.208  0.00  0.00    -0.269 N 
ATOM      4  H   UNL     1       0.578   5.844  -0.139  0.00  0.00    +0.156 HD
ENDROOT
BRANCH   3   5
ATOM      5  C   UNL     1       2.545   5.237  -0.121  0.00  0.00    +0.129 A 
ATOM      6  C   UNL     1       3.873   5.536  -0.093  0.00  0.00    +0.069 A 
ATOM      7  C   UNL     1       4.581   4.335  -0.000  0.00  0.00    +0.071 A 
ATOM      8  N   UNL     1       3.722   3.348   0.034  0.00  0.00    -0.169 NA
ATOM      9  N   UNL     1       2.430   3.883  -0.047  0.00  0.00    -0.217 N 
BRANCH   9  10
ATOM     10  C   UNL     1       1.232   3.155  -0.045  0.00  0.00    +0.086 A 
ATOM     11  C   UNL     1       0.202   3.513   0.814  0.00  0.00    +0.029 A 
ATOM     12  C   UNL     1      -0.977   2.793   0.813  0.00  0.00    +0.002 A 
ATOM     13  C   UNL     1      -1.130   1.713  -0.038  0.00  0.00    +0.002 A 
ATOM     14  C   UNL     1      -0.108   1.358  -0.899  0.00  0.00    +0.022 A 
ATOM     15  C   UNL     1       1.074   2.074  -0.903  0.00  0.00    +0.066 A 
ATOM     16 CL   UNL     1       2.359   1.623  -1.980  0.00  0.00    -0.081 Cl
ENDBRANCH   9  10
BRANCH   7  17
ATOM     17  C   UNL     1       6.081   4.199   0.059  0.00  0.00    +0.006 C 
ATOM     18  C   UNL     1       6.575   4.603   1.449  0.00  0.00    +0.017 C 
ATOM     19  C   UNL     1       6.473   2.746  -0.219  0.00  0.00    +0.017 C 
ATOM     20  C   UNL     1       6.717   5.109  -0.994  0.00  0.00    +0.017 C 
ENDBRANCH   7  17
ENDBRANCH   3   5
BRANCH   1  21
ATOM     21  C   UNL     1       0.622   8.449  -0.484  0.00  0.00    +0.205 C 
BRANCH  21  22
ATOM     22  N   UNL     1       1.163   9.796  -0.678  0.00  0.00    -0.277 N 
ATOM     23  C   UNL     1       1.376  10.264  -1.924  0.00  0.00    +0.307 C 
ATOM     24  O   UNL     1       1.119   9.567  -2.887  0.00  0.00    -0.252 OA
ATOM     25  N   UNL     1       1.873  11.504  -2.103  0.00  0.00    -0.269 N 
ATOM     26  H   UNL     1       2.136  12.036  -1.336  0.00  0.00    +0.156 HD
BRANCH  25  27
ATOM     27  C   UNL     1       2.011  12.023  -3.396  0.00  0.00    +0.038 A 
ATOM     28  C   UNL     1       2.342  11.183  -4.451  0.00  0.00    +0.023 A 
ATOM     29  C   UNL     1       2.477  11.698  -5.725  0.00  0.00    +0.002 A 
ATOM     30  C   UNL     1       2.283  13.049  -5.951  0.00  0.00    +0.004 A 
ATOM     31  C   UNL     1       1.953  13.887  -4.902  0.00  0.00    -0.046 A 
ATOM     32  C   UNL     1       1.812  13.377  -3.626  0.00  0.00    -0.026 A 
ATOM     33  C   UNL     1       1.447  14.291  -2.485  0.00  0.00    +0.046 C 
ATOM     34  C   UNL     1       1.743  15.358  -5.152  0.00  0.00    +0.044 C 
ENDBRANCH  25  27
BRANCH  22  35
ATOM     35  C   UNL     1       1.472  10.636   0.482  0.00  0.00    +0.109 C 
BRANCH  35  37
ATOM     36  C   UNL     1       3.243  11.271   2.126  0.00  0.00    +0.005 C 
ATOM     37  C   UNL     1       2.920  10.395   0.914  0.00  0.00    +0.016 C 
ENDBRANCH  35  37
ENDBRANCH  22  35
ENDBRANCH  21  22
ENDBRANCH   1  21
TORSDOF 8
