REMARK  Name = ZINC09060705
REMARK  8 active torsions:
REMARK  status: ('A' for Active; 'I' for Inactive)
REMARK    1  A    between atoms: C_1  and  C_2
REMARK    2  A    between atoms: C_3  and  C_32
REMARK    3  A    between atoms: C_4  and  C_26
REMARK    4  A    between atoms: C_7  and  N_25
REMARK    5  A    between atoms: C_8  and  C_12
REMARK    6  A    between atoms: N_14  and  C_15
REMARK    7  A    between atoms: C_32  and  O_34
REMARK    8  A    between atoms: O_34  and  C_35
REMARK                            x       y       z     vdW  Elec       q    Type
REMARK                         _______ _______ _______ _____ _____    ______ ____
ROOT
ATOM      1  C   UNL     1       6.263   5.668  -0.558  0.00  0.00    +0.061 C 
ATOM      2  C   UNL     1       5.366   4.488  -0.283  0.00  0.00    +0.016 C 
ATOM      3  C   UNL     1       5.876   3.251  -0.352  0.00  0.00    +0.065 C 
ATOM      4  C   UNL     1       5.103   1.994  -0.083  0.00  0.00    +0.092 C 
ATOM      5  C   UNL     1       3.612   2.307  -0.044  0.00  0.00    +0.014 A 
ATOM      6  C   UNL     1       2.613   1.349  -0.054  0.00  0.00    +0.050 A 
ATOM      7  C   UNL     1       1.280   1.758  -0.013  0.00  0.00    +0.096 A 
ATOM      8  S   UNL     1       1.441   3.536   0.054  0.00  0.00    -0.067 S 
ATOM      9  C   UNL     1       3.207   3.624   0.015  0.00  0.00    +0.076 A 
ATOM     10  N   UNL     1       4.047   4.710   0.033  0.00  0.00    -0.312 N 
ATOM     11  H   UNL     1       3.723   5.596   0.257  0.00  0.00    +0.152 HD
ENDROOT
BRANCH   4  12
ATOM     12  C   UNL     1       5.529   1.418   1.244  0.00  0.00    -0.032 A 
ATOM     13  C   UNL     1       5.384   2.148   2.413  0.00  0.00    +0.024 A 
ATOM     14  C   UNL     1       5.782   1.586   3.612  0.00  0.00    +0.111 A 
ATOM     15  N   UNL     1       6.302   0.375   3.649  0.00  0.00    -0.263 NA
ATOM     16  C   UNL     1       6.459  -0.346   2.556  0.00  0.00    +0.111 A 
ATOM     17  C   UNL     1       6.080   0.148   1.322  0.00  0.00    +0.024 A 
ENDBRANCH   4  12
BRANCH   7  18
ATOM     18  C   UNL     1       0.109   0.972  -0.018  0.00  0.00    +0.253 C 
ATOM     19  O   UNL     1       0.192  -0.243  -0.068  0.00  0.00    -0.270 OA
ATOM     20  N   UNL     1      -1.100   1.564   0.028  0.00  0.00    -0.305 N 
ATOM     21  H   UNL     1      -1.166   2.531   0.068  0.00  0.00    +0.150 HD
BRANCH  20  22
ATOM     22  C   UNL     1      -2.317   0.747   0.018  0.00  0.00    +0.036 C 
ATOM     23  C   UNL     1      -2.361  -0.085  -1.265  0.00  0.00    +0.029 C 
ATOM     24  C   UNL     1      -3.631  -0.938  -1.276  0.00  0.00    -0.008 C 
ATOM     25  C   UNL     1      -4.858  -0.026  -1.218  0.00  0.00    +0.007 C 
ATOM     26  C   UNL     1      -4.814   0.806   0.065  0.00  0.00    -0.008 C 
ATOM     27  C   UNL     1      -3.544   1.659   0.076  0.00  0.00    +0.029 C 
ATOM     28  C   UNL     1      -4.813  -0.126   1.278  0.00  0.00    +0.007 C 
ATOM     29  C   UNL     1      -3.586  -1.038   1.220  0.00  0.00    -0.008 C 
ATOM     30  C   UNL     1      -3.630  -1.870  -0.063  0.00  0.00    +0.007 C 
ATOM     31  C   UNL     1      -2.316  -0.185   1.231  0.00  0.00    +0.029 C 
ENDBRANCH  20  22
ENDBRANCH   7  18
BRANCH   6  32
ATOM     32  N   UNL     1       2.934  -0.004  -0.109  0.00  0.00    -0.357 N 
ATOM     33  H   UNL     1       2.229  -0.670  -0.119  0.00  0.00    +0.142 HD
ATOM     34  H   UNL     1       3.863  -0.282  -0.137  0.00  0.00    +0.142 HD
ENDBRANCH   6  32
BRANCH   3  35
ATOM     35  C   UNL     1       7.238   3.121  -0.702  0.00  0.00    +0.337 C 
ATOM     36  O   UNL     1       7.877   4.102  -1.034  0.00  0.00    -0.245 OA
BRANCH  35  37
ATOM     37  O   UNL     1       7.831   1.909  -0.668  0.00  0.00    -0.465 OA
ATOM     38  C   UNL     1       9.211   1.851  -1.036  0.00  0.00    +0.280 C 
ENDBRANCH  35  37
ENDBRANCH   3  35
TORSDOF 6
