REMARK  Name = ZINC09407394
REMARK  8 active torsions:
REMARK  status: ('A' for Active; 'I' for Inactive)
REMARK    1  A    between atoms: C_1  and  C_2
REMARK    2  A    between atoms: C_3  and  C_13
REMARK    3  A    between atoms: C_4  and  C_12
REMARK    4  A    between atoms: C_9  and  C_11
REMARK    5  A    between atoms: C_11  and  N_50
REMARK    6  A    between atoms: C_13  and  C_14
REMARK    7  A    between atoms: C_14  and  C_15
REMARK    8  A    between atoms: N_17  and  C_18
REMARK                            x       y       z     vdW  Elec       q    Type
REMARK                         _______ _______ _______ _____ _____    ______ ____
ROOT
ATOM      1  C   UNL     1       5.537   2.362   3.520  0.00  0.00    +0.066 C 
ATOM      2  C   UNL     1       6.488   1.922   2.437  0.00  0.00    +0.047 A 
ATOM      3  C   UNL     1       6.054   1.032   1.447  0.00  0.00    -0.005 A 
ATOM      4  C   UNL     1       6.923   0.640   0.480  0.00  0.00    +0.048 A 
ATOM      5  N   UNL     1       8.191   1.133   0.494  0.00  0.00    -0.201 N 
ATOM      6  C   UNL     1       8.583   2.000   1.474  0.00  0.00    +0.253 A 
ATOM      7  N   UNL     1       7.721   2.376   2.426  0.00  0.00    -0.216 NA
ATOM      8  N   UNL     1       9.854   2.306   1.244  0.00  0.00    -0.196 NA
ATOM      9  C   UNL     1      10.279   1.669   0.161  0.00  0.00    +0.136 A 
ATOM     10  N   UNL     1       9.305   0.942  -0.334  0.00  0.00    -0.151 NA
ATOM     11  C   UNL     1       6.488  -0.321  -0.596  0.00  0.00    +0.066 C 
ENDROOT
BRANCH   9  12
ATOM     12  C   UNL     1      11.668   1.766  -0.415  0.00  0.00    -0.007 C 
BRANCH  12  15
ATOM     13  H   UNL     1      11.427   3.735  -0.966  0.00  0.00    -0.089 HD
ATOM     14  H   UNL     1      12.642   2.952  -1.788  0.00  0.00    -0.089 HD
ATOM     15  N   UNL     1      11.703   2.858  -1.404  0.00  0.00    +0.383 N 
ATOM     16  H   UNL     1      11.050   2.644  -2.167  0.00  0.00    -0.089 HD
ENDBRANCH  12  15
ENDBRANCH   9  12
BRANCH   3  17
ATOM     17  C   UNL     1       4.640   0.511   1.457  0.00  0.00    +0.048 C 
BRANCH  17  18
ATOM     18  C   UNL     1       3.745   1.447   0.644  0.00  0.00    +0.100 C 
BRANCH  18  19
ATOM     19  C   UNL     1       2.331   0.926   0.654  0.00  0.00    +0.214 C 
ATOM     20  O   UNL     1       2.066  -0.095   1.254  0.00  0.00    -0.276 OA
ATOM     21  N   UNL     1       1.362   1.593  -0.002  0.00  0.00    -0.312 N 
ATOM     22  H   UNL     1       1.574   2.409  -0.482  0.00  0.00    +0.149 HD
BRANCH  21  23
ATOM     23  C   UNL     1      -0.013   1.086   0.008  0.00  0.00    +0.073 C 
ATOM     24  C   UNL     1      -0.729   1.579   1.267  0.00  0.00    +0.022 C 
ATOM     25  C   UNL     1      -2.164   1.050   1.278  0.00  0.00    +0.002 C 
ATOM     26  C   UNL     1      -2.904   1.556   0.038  0.00  0.00    +0.000 C 
ATOM     27  C   UNL     1      -2.188   1.063  -1.221  0.00  0.00    +0.002 C 
ATOM     28  C   UNL     1      -0.753   1.593  -1.232  0.00  0.00    +0.022 C 
ENDBRANCH  21  23
ENDBRANCH  18  19
ENDBRANCH  17  18
ENDBRANCH   3  17
TORSDOF 6
