REMARK  Name = ZINC49150577
REMARK  7 active torsions:
REMARK  status: ('A' for Active; 'I' for Inactive)
REMARK    1  A    between atoms: C_1  and  C_2
REMARK    2  A    between atoms: C_2  and  C_4
REMARK    3  A    between atoms: C_2  and  N_10
REMARK    4  A    between atoms: C_4  and  N_5
REMARK    5  A    between atoms: N_10  and  S_11
REMARK    6  A    between atoms: S_11  and  C_14
REMARK    7  A    between atoms: C_15  and  N_22
REMARK                            x       y       z     vdW  Elec       q    Type
REMARK                         _______ _______ _______ _____ _____    ______ ____
ROOT
ATOM      1  S   UNL     1       3.319  -0.965  -1.189  0.00  0.00    +0.061 S 
ATOM      2  O   UNL     1       4.032  -1.540  -2.276  0.00  0.00    -0.153 OA
ATOM      3  O   UNL     1       3.858   0.081  -0.393  0.00  0.00    -0.153 OA
ENDROOT
BRANCH   1   4
ATOM      4  C   UNL     1       2.926  -2.284  -0.089  0.00  0.00    +0.140 A 
ATOM      5  C   UNL     1       2.784  -2.037   1.270  0.00  0.00    +0.053 A 
ATOM      6  C   UNL     1       2.474  -3.079   2.134  0.00  0.00    +0.040 A 
ATOM      7  C   UNL     1       2.308  -4.359   1.639  0.00  0.00    +0.021 A 
ATOM      8  C   UNL     1       2.451  -4.603   0.285  0.00  0.00    +0.032 A 
ATOM      9  C   UNL     1       2.754  -3.565  -0.579  0.00  0.00    +0.047 A 
ATOM     10 BR   UNL     1       2.940  -3.901  -2.431  0.00  0.00    -0.048 Br
ATOM     11 BR   UNL     1       1.886  -5.779   2.815  0.00  0.00    -0.050 Br
BRANCH   5  12
ATOM     12  N   UNL     1       2.953  -0.743   1.767  0.00  0.00    -0.356 N 
ATOM     13  H   UNL     1       2.785   0.022   1.195  0.00  0.00    +0.142 HD
ATOM     14  H   UNL     1       3.237  -0.609   2.685  0.00  0.00    +0.142 HD
ENDBRANCH   5  12
ENDBRANCH   1   4
BRANCH   1  15
ATOM     15  N   UNL     1       1.890  -0.401  -1.807  0.00  0.00    -0.189 NA
ATOM     16  H   UNL     1       1.702  -0.490  -2.755  0.00  0.00    +0.148 HD
BRANCH  15  18
ATOM     17  C   UNL     1       1.100   1.751  -0.955  0.00  0.00    +0.024 C 
ATOM     18  C   UNL     1       0.909   0.233  -0.923  0.00  0.00    +0.057 C 
BRANCH  18  19
ATOM     19  C   UNL     1      -0.504  -0.113  -1.397  0.00  0.00    -0.059 C 
BRANCH  19  20
ATOM     20  N   UNL     1      -0.649  -1.572  -1.481  0.00  0.00    +0.381 N 
ATOM     21  C   UNL     1      -0.625  -2.168  -0.120  0.00  0.00    -0.079 C 
ATOM     22  C   UNL     1      -1.329  -3.534  -0.319  0.00  0.00    -0.020 C 
ATOM     23  C   UNL     1      -2.441  -3.204  -1.341  0.00  0.00    -0.020 C 
ATOM     24  C   UNL     1      -1.968  -1.922  -2.051  0.00  0.00    -0.079 C 
ATOM     25  H   UNL     1       0.090  -1.964  -2.046  0.00  0.00    -0.082 HD
ENDBRANCH  19  20
ENDBRANCH  18  19
ENDBRANCH  15  18
ENDBRANCH   1  15
TORSDOF 6
