REMARK  Name = ZINC32967827
REMARK  11 active torsions:
REMARK  status: ('A' for Active; 'I' for Inactive)
REMARK    1  A    between atoms: C_1  and  C_2
REMARK    2  A    between atoms: C_2  and  N_3
REMARK    3  A    between atoms: N_3  and  S_4
REMARK    4  A    between atoms: S_4  and  C_7
REMARK    5  A    between atoms: C_10  and  C_13
REMARK    6  A    between atoms: C_14  and  C_15
REMARK    7  A    between atoms: N_17  and  C_18
REMARK    8  A    between atoms: C_23  and  C_24
REMARK    9  A    between atoms: C_24  and  N_25
REMARK   10  A    between atoms: N_25  and  C_26
REMARK   11  A    between atoms: N_25  and  C_27
REMARK                            x       y       z     vdW  Elec       q    Type
REMARK                         _______ _______ _______ _____ _____    ______ ____
ROOT
ATOM      1  C   UNL     1      -1.182  -0.883  -0.572  0.00  0.00    +0.241 C 
ATOM      2  O   UNL     1      -2.175  -0.410  -1.093  0.00  0.00    -0.270 OA
ATOM      3  N   UNL     1      -1.237  -2.101   0.003  0.00  0.00    -0.282 N 
ATOM      4  H   UNL     1      -0.321  -2.567   0.393  0.00  0.00    +0.155 HD
ENDROOT
BRANCH   3   5
ATOM      5  C   UNL     1      -2.460  -2.771   0.103  0.00  0.00    +0.035 A 
ATOM      6  C   UNL     1      -3.649  -2.053   0.111  0.00  0.00    +0.023 A 
ATOM      7  C   UNL     1      -4.855  -2.718   0.210  0.00  0.00    +0.002 A 
ATOM      8  C   UNL     1      -4.880  -4.098   0.302  0.00  0.00    +0.000 A 
ATOM      9  C   UNL     1      -3.699  -4.816   0.295  0.00  0.00    +0.003 A 
ATOM     10  C   UNL     1      -2.489  -4.157   0.190  0.00  0.00    -0.043 A 
BRANCH  10  11
ATOM     11  C   UNL     1      -1.202  -4.941   0.176  0.00  0.00    -0.041 C 
BRANCH  11  12
ATOM     12  N   UNL     1      -0.593  -4.907   1.513  0.00  0.00    +0.382 N 
ATOM     13  C   UNL     1      -1.427  -5.621   2.489  0.00  0.00    -0.095 C 
ATOM     14  H   UNL     1      -0.529  -3.855   1.828  0.00  0.00    -0.081 HD
BRANCH  12  15
ATOM     15  C   UNL     1       0.770  -5.453   1.484  0.00  0.00    -0.069 C 
ATOM     16  C   UNL     1       0.716  -6.939   1.122  0.00  0.00    -0.015 C 
ATOM     17  C   UNL     1       2.136  -7.508   1.093  0.00  0.00    -0.002 C 
ATOM     18  C   UNL     1       2.781  -7.342   2.470  0.00  0.00    -0.000 C 
ATOM     19  C   UNL     1       2.835  -5.856   2.832  0.00  0.00    -0.002 C 
ATOM     20  C   UNL     1       1.415  -5.287   2.862  0.00  0.00    -0.015 C 
ENDBRANCH  12  15
ENDBRANCH  11  12
ENDBRANCH  10  11
ENDBRANCH   3   5
BRANCH   1  22
ATOM     21  C   UNL     1       0.129   1.089  -1.145  0.00  0.00    +0.013 C 
ATOM     22  C   UNL     1       0.073  -0.129  -0.570  0.00  0.00    +0.068 C 
BRANCH  21  26
ATOM     23  C   UNL     1       3.765   3.274  -1.138  0.00  0.00    +0.105 A 
ATOM     24  C   UNL     1       2.638   3.815  -1.732  0.00  0.00    +0.029 A 
ATOM     25  C   UNL     1       1.452   3.111  -1.738  0.00  0.00    +0.010 A 
ATOM     26  C   UNL     1       1.391   1.847  -1.143  0.00  0.00    -0.025 A 
ATOM     27  C   UNL     1       2.532   1.309  -0.540  0.00  0.00    +0.010 A 
ATOM     28  C   UNL     1       3.712   2.023  -0.546  0.00  0.00    +0.029 A 
BRANCH  23  29
ATOM     29  S   UNL     1       5.275   4.181  -1.134  0.00  0.00    +0.058 S 
ATOM     30  O   UNL     1       6.321   3.229  -0.998  0.00  0.00    -0.153 OA
ATOM     31  O   UNL     1       5.207   5.087  -2.227  0.00  0.00    -0.153 OA
BRANCH  29  32
ATOM     32  N   UNL     1       5.290   5.101   0.243  0.00  0.00    -0.190 NA
ATOM     33  H   UNL     1       5.104   6.183   0.169  0.00  0.00    +0.148 HD
BRANCH  32  35
ATOM     34  C   UNL     1       5.711   5.484   2.622  0.00  0.00    +0.022 C 
ATOM     35  C   UNL     1       5.332   4.453   1.556  0.00  0.00    +0.102 C 
ENDBRANCH  32  35
ENDBRANCH  29  32
ENDBRANCH  23  29
ENDBRANCH  21  26
ENDBRANCH   1  22
TORSDOF 9
