REMARK  Name = ZINC09443751
REMARK  8 active torsions:
REMARK  status: ('A' for Active; 'I' for Inactive)
REMARK    1  A    between atoms: C_1  and  C_2
REMARK    2  A    between atoms: C_2  and  O_3
REMARK    3  A    between atoms: O_3  and  C_4
REMARK    4  A    between atoms: C_6  and  C_11
REMARK    5  A    between atoms: C_9  and  O_10
REMARK    6  A    between atoms: C_13  and  C_20
REMARK    7  A    between atoms: C_14  and  C_19
REMARK    8  A    between atoms: N_22  and  C_23
REMARK                            x       y       z     vdW  Elec       q    Type
REMARK                         _______ _______ _______ _____ _____    ______ ____
ROOT
ATOM      1  C   UNL     1      -1.742   3.183   2.435  0.00  0.00    +0.139 C 
ATOM      2  C   UNL     1      -0.280   3.123   2.043  0.00  0.00    +0.056 C 
ATOM      3  C   UNL     1       0.386   1.971   2.273  0.00  0.00    +0.017 C 
ATOM      4  N   UNL     1      -0.237   0.900   2.849  0.00  0.00    -0.300 N 
ATOM      5  C   UNL     1      -1.524   0.900   3.219  0.00  0.00    +0.135 C 
ATOM      6  S   UNL     1      -2.180  -0.512   3.930  0.00  0.00    -0.019 S 
ATOM      7  N   UNL     1      -2.319   1.974   3.049  0.00  0.00    -0.315 N 
ATOM      8  C   UNL     1       1.841   1.867   1.895  0.00  0.00    +0.061 C 
ATOM      9  H   UNL     1       0.283   0.095   2.999  0.00  0.00    +0.154 HD
ATOM     10  H   UNL     1      -3.249   1.953   3.324  0.00  0.00    +0.149 HD
ENDROOT
BRANCH   1  13
ATOM     11  C   UNL     1      -3.475   2.836  -0.904  0.00  0.00    +0.162 A 
ATOM     12  C   UNL     1      -2.733   2.542   0.229  0.00  0.00    +0.055 A 
ATOM     13  C   UNL     1      -2.545   3.506   1.202  0.00  0.00    -0.019 A 
ATOM     14  C   UNL     1      -3.088   4.767   1.043  0.00  0.00    +0.009 A 
ATOM     15  C   UNL     1      -3.825   5.069  -0.087  0.00  0.00    +0.049 A 
ATOM     16  C   UNL     1      -4.021   4.106  -1.064  0.00  0.00    +0.158 A 
BRANCH  16  17
ATOM     17  O   UNL     1      -4.745   4.401  -2.176  0.00  0.00    -0.503 OA
ATOM     18  H   UNL     1      -4.218   4.751  -2.908  0.00  0.00    +0.292 HD
ENDBRANCH  16  17
BRANCH  11  19
ATOM     19  O   UNL     1      -3.664   1.887  -1.860  0.00  0.00    -0.489 OA
BRANCH  19  21
ATOM     20  C   UNL     1      -3.392  -0.323  -2.799  0.00  0.00    +0.048 C 
ATOM     21  C   UNL     1      -3.150   0.582  -1.589  0.00  0.00    +0.226 C 
ENDBRANCH  19  21
ENDBRANCH  11  19
ENDBRANCH   1  13
BRANCH   2  22
ATOM     22  C   UNL     1       0.366   4.235   1.452  0.00  0.00    +0.248 C 
ATOM     23  O   UNL     1       1.505   4.128   1.035  0.00  0.00    -0.270 OA
ATOM     24  N   UNL     1      -0.281   5.413   1.349  0.00  0.00    -0.282 N 
ATOM     25  H   UNL     1      -1.142   5.533   1.779  0.00  0.00    +0.155 HD
BRANCH  24  26
ATOM     26  C   UNL     1       0.290   6.464   0.623  0.00  0.00    +0.034 A 
ATOM     27  C   UNL     1       1.077   6.194  -0.490  0.00  0.00    +0.024 A 
ATOM     28  C   UNL     1       1.635   7.233  -1.208  0.00  0.00    +0.017 A 
ATOM     29  C   UNL     1       1.420   8.542  -0.814  0.00  0.00    +0.018 A 
ATOM     30  C   UNL     1       0.642   8.814   0.298  0.00  0.00    +0.017 A 
ATOM     31  C   UNL     1       0.077   7.779   1.016  0.00  0.00    +0.024 A 
ATOM     32 BR   UNL     1       2.192   9.962  -1.795  0.00  0.00    -0.050 Br
ENDBRANCH  24  26
ENDBRANCH   2  22
TORSDOF 6
