REMARK  Name = ZINC10337008
REMARK  5 active torsions:
REMARK  status: ('A' for Active; 'I' for Inactive)
REMARK    1  A    between atoms: C_1  and  C_2
REMARK    2  A    between atoms: C_2  and  C_3
REMARK    3  A    between atoms: C_2  and  C_4
REMARK    4  A    between atoms: C_7  and  C_10
REMARK    5  A    between atoms: C_27  and  C_29
REMARK                            x       y       z     vdW  Elec       q    Type
REMARK                         _______ _______ _______ _____ _____    ______ ____
ROOT
ATOM      1  C   UNL     1      -5.419  -2.005   0.043  0.00  0.00    +0.234 C 
ATOM      2  C   UNL     1      -6.270  -1.152  -0.851  0.00  0.00    +0.027 C 
ATOM      3  C   UNL     1      -6.410  -1.453  -2.159  0.00  0.00    +0.083 C 
ATOM      4  C   UNL     1      -5.702  -2.656  -2.663  0.00  0.00    +0.042 A 
ATOM      5  C   UNL     1      -5.511  -2.869  -4.022  0.00  0.00    +0.013 A 
ATOM      6  C   UNL     1      -4.844  -4.003  -4.447  0.00  0.00    +0.001 A 
ATOM      7  C   UNL     1      -4.369  -4.919  -3.525  0.00  0.00    +0.004 A 
ATOM      8  C   UNL     1      -4.556  -4.714  -2.171  0.00  0.00    +0.046 A 
ATOM      9  C   UNL     1      -5.223  -3.584  -1.730  0.00  0.00    +0.131 A 
ATOM     10  O   UNL     1      -5.426  -3.359  -0.411  0.00  0.00    -0.479 OA
ATOM     11  N   UNL     1      -7.169  -0.690  -2.985  0.00  0.00    -0.213 NA
ATOM     12  C   UNL     1      -7.827   0.374  -2.605  0.00  0.00    +0.232 C 
ATOM     13  N   UNL     1      -8.630   1.256  -3.261  0.00  0.00    -0.231 N 
ATOM     14  N   UNL     1      -9.053   2.151  -2.441  0.00  0.00    -0.086 NA
ATOM     15  N   UNL     1      -8.597   1.953  -1.252  0.00  0.00    -0.165 N 
ATOM     16  N   UNL     1      -7.792   0.814  -1.295  0.00  0.00    -0.193 N 
ATOM     17  C   UNL     1      -6.996   0.065  -0.318  0.00  0.00    +0.162 C 
ATOM     18  H   UNL     1      -8.779   2.497  -0.469  0.00  0.00    +0.195 HD
ATOM     19  H   UNL     1      -8.850   1.215  -4.205  0.00  0.00    +0.193 HD
ENDROOT
BRANCH   1  23
ATOM     20  C   UNL     1      -1.412  -0.526   0.013  0.00  0.00    -0.045 A 
ATOM     21  C   UNL     1      -2.259  -0.204   1.056  0.00  0.00    +0.004 A 
ATOM     22  C   UNL     1      -3.556  -0.683   1.066  0.00  0.00    +0.008 A 
ATOM     23  C   UNL     1      -4.006  -1.482   0.032  0.00  0.00    -0.003 A 
ATOM     24  C   UNL     1      -3.159  -1.803  -1.012  0.00  0.00    +0.008 A 
ATOM     25  C   UNL     1      -1.863  -1.321  -1.024  0.00  0.00    +0.004 A 
BRANCH  20  27
ATOM     26  C   UNL     1      -0.019   1.526   0.010  0.00  0.00    +0.012 C 
ATOM     27  C   UNL     1       0.002  -0.004   0.002  0.00  0.00    +0.013 C 
ATOM     28  C   UNL     1       0.742  -0.511   1.242  0.00  0.00    +0.012 C 
ENDBRANCH  20  27
ENDBRANCH   1  23
BRANCH  17  29
ATOM     29  C   UNL     1      -5.973   1.001   0.272  0.00  0.00    -0.003 A 
ATOM     30  C   UNL     1      -5.763   1.038   1.642  0.00  0.00    +0.009 A 
ATOM     31  C   UNL     1      -4.812   1.915   2.141  0.00  0.00    +0.020 A 
ATOM     32  C   UNL     1      -4.110   2.718   1.262  0.00  0.00    +0.111 A 
ATOM     33  N   UNL     1      -4.336   2.657  -0.036  0.00  0.00    -0.263 NA
ATOM     34  C   UNL     1      -5.229   1.830  -0.546  0.00  0.00    +0.116 A 
ENDBRANCH  17  29
TORSDOF 3
