REMARK  Name = ZINC16436750
REMARK  18 active torsions:
REMARK  status: ('A' for Active; 'I' for Inactive)
REMARK    1  A    between atoms: C_1  and  C_2
REMARK    2  A    between atoms: C_2  and  C_3
REMARK    3  A    between atoms: C_3  and  C_4
REMARK    4  A    between atoms: C_4  and  C_5
REMARK    5  A    between atoms: C_5  and  N_6
REMARK    6  A    between atoms: N_6  and  C_7
REMARK    7  A    between atoms: C_7  and  C_8
REMARK    8  A    between atoms: N_10  and  C_11
REMARK    9  A    between atoms: C_13  and  C_24
REMARK   10  A    between atoms: N_15  and  C_16
REMARK   11  A    between atoms: C_19  and  C_23
REMARK   12  A    between atoms: C_21  and  C_22
REMARK   13  A    between atoms: C_24  and  C_25
REMARK   14  A    between atoms: C_24  and  C_26
REMARK   15  A    between atoms: C_24  and  C_27
REMARK   16  A    between atoms: N_30  and  C_31
REMARK   17  A    between atoms: C_32  and  C_38
REMARK   18  A    between atoms: C_36  and  C_37
REMARK                            x       y       z     vdW  Elec       q    Type
REMARK                         _______ _______ _______ _____ _____    ______ ____
ROOT
ATOM      1  C   UNL     1      -0.468  -3.089   0.447  0.00  0.00    +0.236 C 
ATOM      2  O   UNL     1      -0.804  -2.140  -0.229  0.00  0.00    -0.274 OA
ATOM      3  N   UNL     1       0.827  -3.252   0.784  0.00  0.00    -0.269 N 
ATOM      4  H   UNL     1       1.096  -4.011   1.324  0.00  0.00    +0.156 HD
ENDROOT
BRANCH   3   5
ATOM      5  C   UNL     1       1.780  -2.329   0.355  0.00  0.00    +0.129 A 
ATOM      6  C   UNL     1       1.569  -1.292  -0.501  0.00  0.00    +0.069 A 
ATOM      7  C   UNL     1       2.781  -0.614  -0.662  0.00  0.00    +0.071 A 
ATOM      8  N   UNL     1       3.692  -1.218   0.058  0.00  0.00    -0.169 NA
ATOM      9  N   UNL     1       3.094  -2.303   0.711  0.00  0.00    -0.218 N 
BRANCH   9  10
ATOM     10  C   UNL     1       3.733  -3.201   1.576  0.00  0.00    +0.070 A 
ATOM     11  C   UNL     1       3.167  -3.504   2.808  0.00  0.00    +0.028 A 
ATOM     12  C   UNL     1       3.796  -4.394   3.655  0.00  0.00    +0.005 A 
ATOM     13  C   UNL     1       4.995  -4.975   3.284  0.00  0.00    -0.050 A 
ATOM     14  C   UNL     1       5.564  -4.672   2.061  0.00  0.00    +0.008 A 
ATOM     15  C   UNL     1       4.936  -3.787   1.206  0.00  0.00    -0.025 A 
ATOM     16  C   UNL     1       5.557  -3.456  -0.127  0.00  0.00    +0.046 C 
ATOM     17  C   UNL     1       5.682  -5.941   4.214  0.00  0.00    +0.044 C 
ENDBRANCH   9  10
BRANCH   7  18
ATOM     18  C   UNL     1       3.002   0.602  -1.523  0.00  0.00    +0.006 C 
ATOM     19  C   UNL     1       2.408   1.831  -0.833  0.00  0.00    +0.017 C 
ATOM     20  C   UNL     1       4.503   0.812  -1.733  0.00  0.00    +0.017 C 
ATOM     21  C   UNL     1       2.321   0.399  -2.878  0.00  0.00    +0.017 C 
ENDBRANCH   7  18
ENDBRANCH   3   5
BRANCH   1  22
ATOM     22  C   UNL     1      -1.498  -4.087   0.911  0.00  0.00    +0.205 C 
BRANCH  22  23
ATOM     23  N   UNL     1      -2.819  -3.690   0.417  0.00  0.00    -0.277 N 
ATOM     24  C   UNL     1      -3.253  -4.136  -0.778  0.00  0.00    +0.307 C 
ATOM     25  O   UNL     1      -2.549  -4.867  -1.447  0.00  0.00    -0.252 OA
ATOM     26  N   UNL     1      -4.469  -3.771  -1.232  0.00  0.00    -0.269 N 
ATOM     27  H   UNL     1      -5.008  -3.144  -0.724  0.00  0.00    +0.156 HD
BRANCH  26  28
ATOM     28  C   UNL     1      -4.952  -4.295  -2.436  0.00  0.00    +0.041 A 
ATOM     29  C   UNL     1      -4.341  -3.959  -3.637  0.00  0.00    -0.029 A 
ATOM     30  C   UNL     1      -4.818  -4.482  -4.823  0.00  0.00    +0.005 A 
ATOM     31  C   UNL     1      -5.910  -5.331  -4.817  0.00  0.00    +0.001 A 
ATOM     32  C   UNL     1      -6.524  -5.663  -3.623  0.00  0.00    +0.005 A 
ATOM     33  C   UNL     1      -6.048  -5.148  -2.433  0.00  0.00    -0.029 A 
ATOM     34  C   UNL     1      -6.718  -5.511  -1.133  0.00  0.00    +0.045 C 
ATOM     35  C   UNL     1      -3.155  -3.029  -3.645  0.00  0.00    +0.045 C 
ENDBRANCH  26  28
BRANCH  23  36
ATOM     36  C   UNL     1      -3.667  -2.808   1.223  0.00  0.00    +0.110 C 
BRANCH  36  37
ATOM     37  C   UNL     1      -3.377  -1.351   0.861  0.00  0.00    +0.019 C 
BRANCH  37  38
ATOM     38  C   UNL     1      -4.263  -0.430   1.703  0.00  0.00    +0.001 C 
BRANCH  38  40
ATOM     39  C   UNL     1      -4.858   1.949   2.182  0.00  0.00    +0.004 C 
ATOM     40  C   UNL     1      -3.972   1.028   1.341  0.00  0.00    -0.003 C 
ENDBRANCH  38  40
ENDBRANCH  37  38
ENDBRANCH  36  37
ENDBRANCH  23  36
ENDBRANCH  22  23
ENDBRANCH   1  22
TORSDOF 10
