REMARK  Name = ZINC62503951
REMARK  10 active torsions:
REMARK  status: ('A' for Active; 'I' for Inactive)
REMARK    1  A    between atoms: C_1  and  C_2
REMARK    2  A    between atoms: C_2  and  C_3
REMARK    3  A    between atoms: C_2  and  N_8
REMARK    4  A    between atoms: C_3  and  C_4
REMARK    5  A    between atoms: C_4  and  N_5
REMARK    6  A    between atoms: N_5  and  C_6
REMARK    7  A    between atoms: N_5  and  C_7
REMARK    8  A    between atoms: N_11  and  C_12
REMARK    9  A    between atoms: C_12  and  C_13
REMARK   10  A    between atoms: N_16  and  C_18
REMARK                            x       y       z     vdW  Elec       q    Type
REMARK                         _______ _______ _______ _____ _____    ______ ____
ROOT
ATOM      1  N   UNL     1       0.688  -0.476  -1.203  0.00  0.00    -0.297 N 
ATOM      2  C   UNL     1       0.006  -0.608  -2.358  0.00  0.00    +0.300 C 
ATOM      3  O   UNL     1      -1.178  -0.335  -2.400  0.00  0.00    -0.253 OA
ATOM      4  N   UNL     1       0.637  -1.043  -3.467  0.00  0.00    -0.299 N 
ATOM      5  H   UNL     1       1.632  -0.695  -1.170  0.00  0.00    +0.151 HD
ATOM      6  H   UNL     1       1.582  -1.261  -3.434  0.00  0.00    +0.150 HD
ENDROOT
BRANCH   1   8
ATOM      7  C   UNL     1      -0.019   1.526   0.010  0.00  0.00    +0.028 C 
ATOM      8  C   UNL     1       0.002  -0.004   0.002  0.00  0.00    +0.070 C 
BRANCH   8   9
ATOM      9  C   UNL     1       0.742  -0.511   1.242  0.00  0.00    +0.003 C 
BRANCH   9  10
ATOM     10  C   UNL     1       0.655  -2.037   1.299  0.00  0.00    -0.078 C 
BRANCH  10  11
ATOM     11  N   UNL     1       1.366  -2.524   2.489  0.00  0.00    +0.376 N 
ATOM     12  C   UNL     1       1.182  -3.977   2.609  0.00  0.00    -0.097 C 
ATOM     13  C   UNL     1       2.798  -2.220   2.362  0.00  0.00    -0.097 C 
ATOM     14  H   UNL     1       0.997  -2.069   3.310  0.00  0.00    -0.083 HD
ENDBRANCH  10  11
ENDBRANCH   9  10
ENDBRANCH   8   9
ENDBRANCH   1   8
BRANCH   4  15
ATOM     15  C   UNL     1      -0.104  -1.186  -4.723  0.00  0.00    +0.110 C 
BRANCH  15  16
ATOM     16  C   UNL     1       0.839  -1.692  -5.817  0.00  0.00    +0.025 C 
ATOM     17  C   UNL     1       1.214  -3.178  -5.575  0.00  0.00    +0.025 C 
ATOM     18  C   UNL     1       1.536  -3.655  -7.013  0.00  0.00    +0.105 C 
ATOM     19  N   UNL     1       0.562  -2.955  -7.870  0.00  0.00    -0.330 N 
ATOM     20  C   UNL     1       0.119  -1.734  -7.181  0.00  0.00    +0.110 C 
BRANCH  19  21
ATOM     21  C   UNL     1       0.131  -3.382  -9.129  0.00  0.00    +0.030 A 
ATOM     22  C   UNL     1      -0.791  -2.626  -9.842  0.00  0.00    +0.024 A 
ATOM     23  C   UNL     1      -1.215  -3.050 -11.086  0.00  0.00    +0.017 A 
ATOM     24  C   UNL     1      -0.723  -4.227 -11.622  0.00  0.00    +0.018 A 
ATOM     25  C   UNL     1       0.195  -4.982 -10.914  0.00  0.00    +0.017 A 
ATOM     26  C   UNL     1       0.627  -4.560  -9.672  0.00  0.00    +0.024 A 
ATOM     27 BR   UNL     1      -1.307  -4.804 -13.325  0.00  0.00    -0.050 Br
ENDBRANCH  19  21
ENDBRANCH  15  16
ENDBRANCH   4  15
TORSDOF 7
