REMARK  Name = ZINC08437433
REMARK  11 active torsions:
REMARK  status: ('A' for Active; 'I' for Inactive)
REMARK    1  A    between atoms: C_1  and  C_2
REMARK    2  A    between atoms: C_9  and  C_36
REMARK    3  A    between atoms: C_10  and  C_11
REMARK    4  A    between atoms: N_13  and  N_14
REMARK    5  A    between atoms: C_15  and  C_16
REMARK    6  A    between atoms: C_19  and  C_21
REMARK    7  A    between atoms: C_21  and  N_22
REMARK    8  A    between atoms: C_23  and  C_25
REMARK    9  A    between atoms: N_27  and  C_28
REMARK   10  A    between atoms: C_31  and  C_35
REMARK   11  A    between atoms: C_32  and  C_34
REMARK                            x       y       z     vdW  Elec       q    Type
REMARK                         _______ _______ _______ _____ _____    ______ ____
ROOT
ATOM      1  C   UNL     1       4.939   3.384   0.075  0.00  0.00    +0.148 A 
ATOM      2  C   UNL     1       5.706   4.506  -0.048  0.00  0.00    +0.051 A 
ATOM      3  C   UNL     1       4.821   5.600  -0.064  0.00  0.00    +0.047 A 
ATOM      4  C   UNL     1       3.573   5.103   0.048  0.00  0.00    +0.123 A 
ATOM      5  O   UNL     1       3.647   3.764   0.127  0.00  0.00    -0.457 OA
ENDROOT
BRANCH   1   7
ATOM      6  N   UNL     1       4.592   1.014   0.202  0.00  0.00    -0.184 NA
ATOM      7  C   UNL     1       5.433   2.005   0.135  0.00  0.00    +0.176 C 
BRANCH   6  10
ATOM      8  C   UNL     1       2.341   0.252   0.340  0.00  0.00    +0.282 C 
ATOM      9  O   UNL     1       2.731  -0.890   0.176  0.00  0.00    -0.267 OA
ATOM     10  N   UNL     1       3.228   1.266   0.394  0.00  0.00    -0.202 N 
ATOM     11  H   UNL     1       2.921   2.170   0.566  0.00  0.00    +0.178 HD
BRANCH   8  21
ATOM     12  C   UNL     1      -2.205   4.900   1.996  0.00  0.00    +0.044 C 
ATOM     13  C   UNL     1      -1.304   3.760   1.597  0.00  0.00    -0.046 A 
ATOM     14  C   UNL     1       0.088   3.928   1.601  0.00  0.00    +0.021 A 
ATOM     15  C   UNL     1       0.896   2.904   1.242  0.00  0.00    +0.094 A 
ATOM     16  N   UNL     1       0.372   1.703   0.877  0.00  0.00    -0.295 N 
ATOM     17  C   UNL     1      -0.980   1.508   0.863  0.00  0.00    +0.139 A 
ATOM     18  C   UNL     1      -1.837   2.559   1.237  0.00  0.00    +0.050 A 
ATOM     19  N   UNL     1      -1.225   0.259   0.472  0.00  0.00    -0.232 NA
ATOM     20  C   UNL     1      -0.085  -0.367   0.229  0.00  0.00    +0.069 A 
ATOM     21  C   UNL     1       0.954   0.515   0.475  0.00  0.00    +0.133 A 
ATOM     22  C   UNL     1       0.058  -1.794  -0.233  0.00  0.00    +0.068 C 
ENDBRANCH   8  21
ENDBRANCH   6  10
ENDBRANCH   1   7
BRANCH   4  23
ATOM     23  C   UNL     1       2.304   5.915   0.075  0.00  0.00    +0.179 C 
BRANCH  23  24
ATOM     24  N   UNL     1       1.708   5.936  -1.263  0.00  0.00    -0.300 N 
ATOM     25  C   UNL     1       0.559   6.607  -1.479  0.00  0.00    +0.300 C 
ATOM     26  O   UNL     1       0.018   7.194  -0.565  0.00  0.00    -0.265 OA
ATOM     27  H   UNL     1       2.141   5.467  -1.994  0.00  0.00    +0.150 HD
BRANCH  25  28
ATOM     28  C   UNL     1      -0.048   6.628  -2.844  0.00  0.00    +0.303 C 
ATOM     29  O   UNL     1       0.494   6.041  -3.758  0.00  0.00    -0.265 OA
ATOM     30  N   UNL     1      -1.196   7.299  -3.060  0.00  0.00    -0.278 N 
ATOM     31  H   UNL     1      -1.590   7.828  -2.349  0.00  0.00    +0.155 HD
BRANCH  30  32
ATOM     32  C   UNL     1      -1.820   7.233  -4.308  0.00  0.00    +0.034 A 
ATOM     33  C   UNL     1      -1.055   7.170  -5.466  0.00  0.00    +0.023 A 
ATOM     34  C   UNL     1      -1.674   7.100  -6.698  0.00  0.00    +0.005 A 
ATOM     35  C   UNL     1      -3.055   7.102  -6.781  0.00  0.00    -0.047 A 
ATOM     36  C   UNL     1      -3.820   7.169  -5.631  0.00  0.00    -0.046 A 
ATOM     37  C   UNL     1      -3.206   7.234  -4.395  0.00  0.00    +0.027 A 
ATOM     38  C   UNL     1      -5.324   7.170  -5.726  0.00  0.00    +0.044 C 
ATOM     39  C   UNL     1      -3.728   7.030  -8.128  0.00  0.00    +0.044 C 
ENDBRANCH  30  32
ENDBRANCH  25  28
ENDBRANCH  23  24
ENDBRANCH   4  23
TORSDOF 7
