REMARK  Name = ZINC09120409
REMARK  11 active torsions:
REMARK  status: ('A' for Active; 'I' for Inactive)
REMARK    1  A    between atoms: C_1  and  C_2
REMARK    2  A    between atoms: C_2  and  C_4
REMARK    3  A    between atoms: C_2  and  N_21
REMARK    4  A    between atoms: N_6  and  C_7
REMARK    5  A    between atoms: C_7  and  C_8
REMARK    6  A    between atoms: C_8  and  C_10
REMARK    7  A    between atoms: C_8  and  N_15
REMARK    8  A    between atoms: N_21  and  S_22
REMARK    9  A    between atoms: S_22  and  C_25
REMARK   10  A    between atoms: C_28  and  N_31
REMARK   11  A    between atoms: C_32  and  C_34
REMARK                            x       y       z     vdW  Elec       q    Type
REMARK                         _______ _______ _______ _____ _____    ______ ____
ROOT
ATOM      1  C   UNL     1      -0.051   1.476   0.429  0.00  0.00    +0.035 C 
ATOM      2  C   UNL     1      -0.291  -0.025   0.255  0.00  0.00    +0.159 C 
ENDROOT
BRANCH   2   3
ATOM      3  C   UNL     1       0.318  -0.483  -1.046  0.00  0.00    +0.231 C 
ATOM      4  O   UNL     1       1.184  -1.332  -1.045  0.00  0.00    -0.274 OA
ATOM      5  N   UNL     1      -0.101   0.051  -2.211  0.00  0.00    -0.315 N 
ATOM      6  H   UNL     1      -0.794   0.730  -2.212  0.00  0.00    +0.149 HD
BRANCH   5   7
ATOM      7  C   UNL     1       0.490  -0.394  -3.475  0.00  0.00    +0.096 C 
BRANCH   7   8
ATOM      8  C   UNL     1      -0.243   0.270  -4.642  0.00  0.00    +0.016 C 
BRANCH   8   9
ATOM      9  N   UNL     1      -1.683  -0.001  -4.534  0.00  0.00    +0.387 N 
ATOM     10  C   UNL     1      -1.902  -1.450  -4.452  0.00  0.00    -0.078 C 
ATOM     11  C   UNL     1      -3.393  -1.733  -4.258  0.00  0.00    -0.019 C 
ATOM     12  C   UNL     1      -4.175  -1.163  -5.444  0.00  0.00    -0.004 C 
ATOM     13  C   UNL     1      -3.880   0.335  -5.564  0.00  0.00    -0.019 C 
ATOM     14  C   UNL     1      -2.371   0.542  -5.711  0.00  0.00    -0.078 C 
ATOM     15  H   UNL     1      -2.045   0.440  -3.701  0.00  0.00    -0.081 HD
ENDBRANCH   8   9
BRANCH   8  16
ATOM     16  C   UNL     1      -0.007   1.758  -4.603  0.00  0.00    +0.093 A 
ATOM     17  C   UNL     1       0.877   2.434  -5.358  0.00  0.00    +0.043 A 
ATOM     18  C   UNL     1       0.766   3.797  -4.997  0.00  0.00    +0.041 A 
ATOM     19  C   UNL     1      -0.179   3.871  -4.043  0.00  0.00    +0.195 A 
ATOM     20  O   UNL     1      -0.648   2.634  -3.812  0.00  0.00    -0.469 OA
ENDBRANCH   8  16
ENDBRANCH   7   8
ENDBRANCH   5   7
ENDBRANCH   2   3
BRANCH   2  21
ATOM     21  N   UNL     1       0.329  -0.751   1.366  0.00  0.00    -0.178 NA
ATOM     22  H   UNL     1       1.268  -0.990   1.325  0.00  0.00    +0.149 HD
BRANCH  21  23
ATOM     23  S   UNL     1      -0.573  -1.163   2.692  0.00  0.00    +0.059 S 
ATOM     24  O   UNL     1       0.293  -1.870   3.568  0.00  0.00    -0.153 OA
ATOM     25  O   UNL     1      -1.267   0.011   3.091  0.00  0.00    -0.153 OA
BRANCH  23  26
ATOM     26  C   UNL     1      -1.795  -2.312   2.154  0.00  0.00    +0.105 A 
ATOM     27  C   UNL     1      -3.022  -1.857   1.708  0.00  0.00    +0.030 A 
ATOM     28  C   UNL     1      -3.982  -2.756   1.286  0.00  0.00    +0.025 A 
ATOM     29  C   UNL     1      -3.713  -4.118   1.309  0.00  0.00    +0.033 A 
ATOM     30  C   UNL     1      -2.480  -4.572   1.757  0.00  0.00    +0.025 A 
ATOM     31  C   UNL     1      -1.522  -3.668   2.173  0.00  0.00    +0.030 A 
BRANCH  29  32
ATOM     32  N   UNL     1      -4.684  -5.031   0.882  0.00  0.00    -0.286 N 
ATOM     33  C   UNL     1      -5.611  -4.656  -0.021  0.00  0.00    +0.214 C 
ATOM     34  O   UNL     1      -5.550  -3.559  -0.533  0.00  0.00    -0.276 OA
ATOM     35  C   UNL     1      -6.725  -5.600  -0.394  0.00  0.00    +0.109 C 
ATOM     36  H   UNL     1      -4.689  -5.934   1.236  0.00  0.00    +0.155 HD
ENDBRANCH  29  32
ENDBRANCH  23  26
ENDBRANCH  21  23
ENDBRANCH   2  21
TORSDOF 9
