REMARK  Name = ZINC59973128
REMARK  5 active torsions:
REMARK  status: ('A' for Active; 'I' for Inactive)
REMARK    1  A    between atoms: C_5  and  C_12
REMARK    2  A    between atoms: C_9  and  N_11
REMARK    3  A    between atoms: N_14  and  C_15
REMARK    4  A    between atoms: C_15  and  C_16
REMARK    5  A    between atoms: C_16  and  C_17
REMARK                            x       y       z     vdW  Elec       q    Type
REMARK                         _______ _______ _______ _____ _____    ______ ____
ROOT
ATOM      1  C   UNL     1      -0.017   1.384   0.010  0.00  0.00    +0.002 A 
ATOM      2  C   UNL     1       1.147   2.096   0.002  0.00  0.00    +0.010 A 
ATOM      3  C   UNL     1       2.379   1.426  -0.013  0.00  0.00    +0.002 A 
ATOM      4  C   UNL     1       3.724   1.866  -0.024  0.00  0.00    +0.041 A 
ATOM      5  C   UNL     1       4.520   0.764  -0.038  0.00  0.00    +0.103 A 
ATOM      6  N   UNL     1       3.727  -0.366  -0.036  0.00  0.00    -0.349 N 
ATOM      7  H   UNL     1       4.049  -1.281  -0.043  0.00  0.00    +0.166 HD
ATOM      8  C   UNL     1       2.406   0.019  -0.021  0.00  0.00    +0.068 A 
ATOM      9  C   UNL     1       1.202  -0.691  -0.013  0.00  0.00    +0.049 A 
ATOM     10  C   UNL     1       0.002  -0.004   0.002  0.00  0.00    +0.025 A 
ENDROOT
BRANCH   5  11
ATOM     11  C   UNL     1       5.991   0.775  -0.053  0.00  0.00    +0.260 C 
ATOM     12  O   UNL     1       6.591   1.833  -0.053  0.00  0.00    -0.269 OA
ATOM     13  N   UNL     1       6.673  -0.388  -0.066  0.00  0.00    -0.310 N 
ATOM     14  H   UNL     1       6.194  -1.231  -0.066  0.00  0.00    +0.149 HD
BRANCH  13  15
ATOM     15  C   UNL     1       8.137  -0.377  -0.081  0.00  0.00    +0.105 C 
BRANCH  15  16
ATOM     16  C   UNL     1       8.658  -1.816  -0.095  0.00  0.00    +0.022 C 
BRANCH  16  17
ATOM     17  C   UNL     1      10.188  -1.805  -0.110  0.00  0.00    -0.010 C 
ATOM     18  C   UNL     1      10.707  -1.199   1.196  0.00  0.00    +0.003 C 
ATOM     19  C   UNL     1      12.236  -1.188   1.180  0.00  0.00    +0.000 C 
ATOM     20  C   UNL     1      12.755  -2.621   1.041  0.00  0.00    +0.000 C 
ATOM     21  C   UNL     1      12.236  -3.227  -0.265  0.00  0.00    +0.000 C 
ATOM     22  C   UNL     1      10.707  -3.237  -0.249  0.00  0.00    +0.003 C 
ENDBRANCH  16  17
ENDBRANCH  15  16
ENDBRANCH  13  15
ENDBRANCH   5  11
BRANCH   9  23
ATOM     23  N   UNL     1       1.212  -2.089  -0.021  0.00  0.00    -0.356 N 
ATOM     24  H   UNL     1       2.055  -2.569  -0.032  0.00  0.00    +0.142 HD
ATOM     25  H   UNL     1       0.375  -2.580  -0.015  0.00  0.00    +0.142 HD
ENDBRANCH   9  23
TORSDOF 5
