REMARK  Name = ZINC27520855
REMARK  10 active torsions:
REMARK  status: ('A' for Active; 'I' for Inactive)
REMARK    1  A    between atoms: C_1  and  C_2
REMARK    2  A    between atoms: C_2  and  N_3
REMARK    3  A    between atoms: N_3  and  C_4
REMARK    4  A    between atoms: N_3  and  C_6
REMARK    5  A    between atoms: C_4  and  C_5
REMARK    6  A    between atoms: C_11  and  C_25
REMARK    7  A    between atoms: N_13  and  C_14
REMARK    8  A    between atoms: C_18  and  O_20
REMARK    9  A    between atoms: O_20  and  C_21
REMARK   10  A    between atoms: C_27  and  C_30
REMARK                            x       y       z     vdW  Elec       q    Type
REMARK                         _______ _______ _______ _____ _____    ______ ____
ROOT
ATOM      1  C   UNL     1      -2.014  -0.758   1.223  0.00  0.00    +0.033 A 
ATOM      2  C   UNL     1      -1.346  -0.517   2.424  0.00  0.00    +0.024 A 
ATOM      3  C   UNL     1      -1.958  -0.766   3.617  0.00  0.00    +0.013 A 
ATOM      4  C   UNL     1      -3.263  -1.278   3.641  0.00  0.00    +0.018 A 
ATOM      5  C   UNL     1      -3.897  -1.574   4.876  0.00  0.00    +0.027 A 
ATOM      6  C   UNL     1      -5.099  -2.261   4.848  0.00  0.00    +0.068 A 
ATOM      7  C   UNL     1      -5.619  -2.664   3.527  0.00  0.00    +0.209 A 
ATOM      8  N   UNL     1      -6.427  -3.695   3.398  0.00  0.00    -0.325 N 
ATOM      9  O   UNL     1      -5.234  -1.933   2.449  0.00  0.00    -0.439 OA
ATOM     10  C   UNL     1      -3.951  -1.495   2.432  0.00  0.00    +0.139 A 
ATOM     11  C   UNL     1      -3.317  -1.239   1.228  0.00  0.00    +0.070 A 
ATOM     12  H   UNL     1      -6.691  -4.205   4.180  0.00  0.00    +0.169 HD
ENDROOT
BRANCH   8  13
ATOM     13  C   UNL     1      -6.894  -4.047   2.163  0.00  0.00    +0.045 A 
ATOM     14  C   UNL     1      -7.365  -3.067   1.285  0.00  0.00    +0.026 A 
ATOM     15  C   UNL     1      -7.836  -3.426   0.040  0.00  0.00    +0.006 A 
ATOM     16  C   UNL     1      -7.844  -4.755  -0.345  0.00  0.00    +0.046 A 
ATOM     17  C   UNL     1      -7.378  -5.737   0.520  0.00  0.00    +0.122 A 
ATOM     18  C   UNL     1      -6.897  -5.387   1.770  0.00  0.00    +0.071 A 
BRANCH  17  19
ATOM     19  O   UNL     1      -7.389  -7.040   0.137  0.00  0.00    -0.495 OA
ATOM     20  C   UNL     1      -7.894  -7.329  -1.169  0.00  0.00    +0.277 C 
ENDBRANCH  17  19
ENDBRANCH   8  13
BRANCH   6  21
ATOM     21  C   UNL     1      -5.831  -2.577   6.088  0.00  0.00    +0.114 A 
ATOM     22  N   UNL     1      -5.517  -2.291   7.343  0.00  0.00    -0.239 NA
ATOM     23  C   UNL     1      -6.296  -2.655   8.345  0.00  0.00    +0.079 A 
ATOM     24  C   UNL     1      -7.453  -3.341   8.082  0.00  0.00    +0.075 A 
ATOM     25  S   UNL     1      -7.381  -3.442   6.298  0.00  0.00    -0.075 S 
BRANCH  23  26
ATOM     26  C   UNL     1      -5.924  -2.323   9.742  0.00  0.00    +0.001 A 
ATOM     27  C   UNL     1      -6.747  -2.714  10.796  0.00  0.00    +0.011 A 
ATOM     28  C   UNL     1      -6.396  -2.403  12.094  0.00  0.00    +0.020 A 
ATOM     29  C   UNL     1      -5.228  -1.704  12.350  0.00  0.00    +0.041 A 
ATOM     30  C   UNL     1      -4.407  -1.314  11.306  0.00  0.00    +0.020 A 
ATOM     31  C   UNL     1      -4.747  -1.625  10.005  0.00  0.00    +0.011 A 
ATOM     32 CL   UNL     1      -4.793  -1.315  13.985  0.00  0.00    -0.084 Cl
ENDBRANCH  23  26
ENDBRANCH   6  21
BRANCH   1  33
ATOM     33  N   UNL     1      -1.372  -0.511   0.012  0.00  0.00    -0.330 N 
BRANCH  33  35
ATOM     34  C   UNL     1      -0.019   1.526   0.010  0.00  0.00    +0.024 C 
ATOM     35  C   UNL     1       0.002  -0.004   0.002  0.00  0.00    +0.102 C 
ENDBRANCH  33  35
BRANCH  33  36
ATOM     36  C   UNL     1      -2.072  -0.758  -1.251  0.00  0.00    +0.102 C 
ATOM     37  C   UNL     1      -1.816  -2.197  -1.703  0.00  0.00    +0.024 C 
ENDBRANCH  33  36
ENDBRANCH   1  33
TORSDOF 7
