REMARK  Name = ZINC38679843
REMARK  11 active torsions:
REMARK  status: ('A' for Active; 'I' for Inactive)
REMARK    1  A    between atoms: C_1  and  C_2
REMARK    2  A    between atoms: C_2  and  C_3
REMARK    3  A    between atoms: C_2  and  C_4
REMARK    4  A    between atoms: C_4  and  O_5
REMARK    5  A    between atoms: O_5  and  C_6
REMARK    6  A    between atoms: C_9  and  C_12
REMARK    7  A    between atoms: C_12  and  O_14
REMARK    8  A    between atoms: O_14  and  C_15
REMARK    9  A    between atoms: C_22  and  N_36
REMARK   10  A    between atoms: C_23  and  C_34
REMARK   11  A    between atoms: C_24  and  C_26
REMARK                            x       y       z     vdW  Elec       q    Type
REMARK                         _______ _______ _______ _____ _____    ______ ____
ROOT
ATOM      1  C   UNL     1      -9.377  -1.898  -2.951  0.00  0.00    +0.135 A 
ATOM      2  C   UNL     1      -9.897  -2.552  -1.842  0.00  0.00    +0.047 A 
ATOM      3  C   UNL     1     -11.207  -2.986  -1.849  0.00  0.00    +0.012 A 
ATOM      4  C   UNL     1     -12.008  -2.772  -2.957  0.00  0.00    +0.008 A 
ATOM      5  C   UNL     1     -11.494  -2.119  -4.067  0.00  0.00    +0.138 A 
ATOM      6  C   UNL     1     -10.177  -1.677  -4.060  0.00  0.00    +0.093 A 
ATOM      7  O   UNL     1     -12.263  -1.900  -5.162  0.00  0.00    -0.441 OA
ATOM      8  C   UNL     1     -13.601  -1.953  -5.063  0.00  0.00    +0.199 C 
ATOM      9  C   UNL     1     -14.220  -2.580  -4.035  0.00  0.00    +0.098 C 
ATOM     10  C   UNL     1     -13.434  -3.253  -2.944  0.00  0.00    +0.101 C 
ENDROOT
BRANCH  10  11
ATOM     11  C   UNL     1     -13.460  -4.745  -3.158  0.00  0.00    +0.002 A 
ATOM     12  C   UNL     1     -12.928  -5.287  -4.314  0.00  0.00    +0.046 A 
ATOM     13  C   UNL     1     -12.952  -6.656  -4.510  0.00  0.00    +0.020 A 
ATOM     14  C   UNL     1     -13.507  -7.482  -3.551  0.00  0.00    +0.003 A 
ATOM     15  C   UNL     1     -14.039  -6.941  -2.396  0.00  0.00    +0.020 A 
ATOM     16  C   UNL     1     -14.010  -5.572  -2.196  0.00  0.00    +0.046 A 
ATOM     17 CL   UNL     1     -14.671  -4.893  -0.741  0.00  0.00    -0.083 Cl
ATOM     18 CL   UNL     1     -12.231  -4.249  -5.519  0.00  0.00    -0.083 Cl
ENDBRANCH  10  11
BRANCH   8  19
ATOM     19  N   UNL     1     -14.365  -1.355  -6.034  0.00  0.00    -0.328 N 
ATOM     20  H   UNL     1     -13.937  -0.902  -6.777  0.00  0.00    +0.145 HD
ATOM     21  H   UNL     1     -15.333  -1.385  -5.977  0.00  0.00    +0.145 HD
ENDBRANCH   8  19
BRANCH   9  22
ATOM     22  C   UNL     1     -15.651  -2.603  -3.985  0.00  0.00    +0.101 C 
ATOM     23  N   UNL     1     -16.786  -2.620  -3.945  0.00  0.00    -0.191 NA
ENDBRANCH   9  22
BRANCH   1  24
ATOM     24  O   UNL     1      -8.088  -1.469  -2.946  0.00  0.00    -0.422 OA
BRANCH  24  25
ATOM     25  C   UNL     1      -7.858  -0.157  -2.746  0.00  0.00    +0.344 C 
ATOM     26  O   UNL     1      -8.790   0.618  -2.667  0.00  0.00    -0.245 OA
BRANCH  25  30
ATOM     27  C   UNL     1      -3.875   1.272  -2.394  0.00  0.00    +0.121 A 
ATOM     28  C   UNL     1      -4.941   2.160  -2.303  0.00  0.00    +0.046 A 
ATOM     29  C   UNL     1      -6.234   1.701  -2.417  0.00  0.00    +0.018 A 
ATOM     30  C   UNL     1      -6.474   0.340  -2.624  0.00  0.00    +0.060 A 
ATOM     31  C   UNL     1      -5.400  -0.550  -2.715  0.00  0.00    +0.018 A 
ATOM     32  C   UNL     1      -4.110  -0.082  -2.606  0.00  0.00    +0.046 A 
BRANCH  27  33
ATOM     33  O   UNL     1      -2.602   1.728  -2.281  0.00  0.00    -0.492 OA
BRANCH  33  34
ATOM     34  C   UNL     1      -2.433   3.130  -2.065  0.00  0.00    +0.232 C 
BRANCH  34  36
ATOM     35  C   UNL     1      -0.265   3.168  -3.307  0.00  0.00    +0.010 C 
ATOM     36  C   UNL     1      -0.941   3.454  -1.964  0.00  0.00    +0.020 C 
ATOM     37  C   UNL     1      -0.762   4.931  -1.609  0.00  0.00    +0.010 C 
ENDBRANCH  34  36
ENDBRANCH  33  34
ENDBRANCH  27  33
ENDBRANCH  25  30
ENDBRANCH  24  25
ENDBRANCH   1  24
TORSDOF 9
