REMARK  Name = ZINC56945584
REMARK  10 active torsions:
REMARK  status: ('A' for Active; 'I' for Inactive)
REMARK    1  A    between atoms: C_1  and  C_2
REMARK    2  A    between atoms: C_4  and  C_8
REMARK    3  A    between atoms: C_5  and  C_7
REMARK    4  A    between atoms: N_10  and  N_11
REMARK    5  A    between atoms: N_14  and  C_15
REMARK    6  A    between atoms: C_15  and  C_17
REMARK    7  A    between atoms: C_15  and  C_18
REMARK    8  A    between atoms: C_18  and  N_19
REMARK    9  A    between atoms: C_21  and  C_28
REMARK   10  A    between atoms: C_24  and  C_27
REMARK                            x       y       z     vdW  Elec       q    Type
REMARK                         _______ _______ _______ _____ _____    ______ ____
ROOT
ATOM      1  N   UNL     1      -3.707  -4.868  -0.455  0.00  0.00    -0.218 N 
ATOM      2  C   UNL     1      -5.037  -4.689  -0.340  0.00  0.00    +0.316 C 
ATOM      3  O   UNL     1      -5.788  -5.643  -0.407  0.00  0.00    -0.251 OA
ATOM      4  N   UNL     1      -5.536  -3.452  -0.149  0.00  0.00    -0.297 N 
ATOM      5  H   UNL     1      -3.347  -5.759  -0.593  0.00  0.00    +0.174 HD
ATOM      6  H   UNL     1      -4.938  -2.690  -0.095  0.00  0.00    +0.150 HD
ENDROOT
BRANCH   1   9
ATOM      7  C   UNL     1      -1.511  -3.948  -0.493  0.00  0.00    +0.263 C 
ATOM      8  O   UNL     1      -1.061  -5.065  -0.665  0.00  0.00    -0.269 OA
ATOM      9  N   UNL     1      -2.842  -3.769  -0.378  0.00  0.00    -0.229 N 
ATOM     10  H   UNL     1      -3.201  -2.878  -0.240  0.00  0.00    +0.173 HD
BRANCH   7  14
ATOM     11  C   UNL     1       0.309   0.794  -0.023  0.00  0.00    +0.086 C 
ATOM     12  C   UNL     1       0.181  -0.696  -0.202  0.00  0.00    +0.103 A 
ATOM     13  C   UNL     1      -0.971  -1.383  -0.207  0.00  0.00    +0.057 A 
ATOM     14  C   UNL     1      -0.602  -2.791  -0.411  0.00  0.00    +0.079 A 
ATOM     15  C   UNL     1       0.759  -2.804  -0.508  0.00  0.00    +0.114 A 
ATOM     16  O   UNL     1       1.202  -1.548  -0.387  0.00  0.00    -0.464 OA
ATOM     17  C   UNL     1       1.616  -4.024  -0.723  0.00  0.00    +0.087 C 
ENDBRANCH   7  14
ENDBRANCH   1   9
BRANCH   4  18
ATOM     18  C   UNL     1      -6.983  -3.256  -0.023  0.00  0.00    +0.055 C 
ATOM     19  C   UNL     1      -7.399  -3.454   1.436  0.00  0.00    +0.026 C 
BRANCH  18  20
ATOM     20  C   UNL     1      -7.347  -1.839  -0.470  0.00  0.00    -0.057 C 
BRANCH  20  21
ATOM     21  N   UNL     1      -6.853  -1.614  -1.835  0.00  0.00    +0.381 N 
ATOM     22  C   UNL     1      -7.068  -0.210  -2.205  0.00  0.00    -0.076 C 
ATOM     23  C   UNL     1      -6.483   0.050  -3.595  0.00  0.00    -0.031 C 
ATOM     24  C   UNL     1      -7.175  -0.861  -4.613  0.00  0.00    +0.003 C 
ATOM     25  C   UNL     1      -7.007  -2.319  -4.176  0.00  0.00    -0.031 C 
ATOM     26  C   UNL     1      -7.573  -2.491  -2.765  0.00  0.00    -0.076 C 
ATOM     27  C   UNL     1      -7.760  -3.232  -5.145  0.00  0.00    +0.005 C 
ATOM     28  C   UNL     1      -4.982  -0.246  -3.580  0.00  0.00    +0.005 C 
ATOM     29  H   UNL     1      -5.867  -1.822  -1.873  0.00  0.00    -0.082 HD
ENDBRANCH  20  21
ENDBRANCH  18  20
ENDBRANCH   4  18
TORSDOF 5
