REMARK  Name = ZINC64230891
REMARK  10 active torsions:
REMARK  status: ('A' for Active; 'I' for Inactive)
REMARK    1  A    between atoms: C_1  and  C_2
REMARK    2  A    between atoms: C_2  and  O_3
REMARK    3  A    between atoms: O_3  and  C_4
REMARK    4  A    between atoms: C_7  and  S_10
REMARK    5  A    between atoms: S_10  and  N_13
REMARK    6  A    between atoms: N_13  and  C_14
REMARK    7  A    between atoms: C_17  and  C_20
REMARK    8  A    between atoms: N_22  and  N_23
REMARK    9  A    between atoms: C_24  and  C_25
REMARK   10  A    between atoms: C_33  and  C_35
REMARK                            x       y       z     vdW  Elec       q    Type
REMARK                         _______ _______ _______ _____ _____    ______ ____
ROOT
ATOM      1  C   UNL     1      -0.277  -6.237  -4.113  0.00  0.00    +0.048 A 
ATOM      2  C   UNL     1       0.156  -4.957  -4.448  0.00  0.00    +0.025 A 
ATOM      3  C   UNL     1       0.076  -4.522  -5.746  0.00  0.00    +0.015 A 
ATOM      4  C   UNL     1      -0.441  -5.366  -6.734  0.00  0.00    +0.038 A 
ATOM      5  C   UNL     1      -0.874  -6.652  -6.394  0.00  0.00    +0.015 A 
ATOM      6  C   UNL     1      -0.787  -7.082  -5.096  0.00  0.00    +0.025 A 
ENDROOT
BRANCH   4   7
ATOM      7  C   UNL     1      -0.528  -4.902  -8.130  0.00  0.00    +0.263 C 
ATOM      8  O   UNL     1      -0.151  -3.784  -8.424  0.00  0.00    -0.268 OA
ATOM      9  N   UNL     1      -1.026  -5.717  -9.081  0.00  0.00    -0.203 N 
ATOM     10  H   UNL     1      -1.327  -6.609  -8.847  0.00  0.00    +0.178 HD
BRANCH   9  11
ATOM     11  N   UNL     1      -1.110  -5.275 -10.408  0.00  0.00    -0.188 NA
ATOM     12  C   UNL     1      -1.594  -6.067 -11.333  0.00  0.00    +0.136 C 
BRANCH  12  13
ATOM     13  C   UNL     1      -1.677  -5.626 -12.660  0.00  0.00    +0.003 C 
ATOM     14  C   UNL     1      -1.286  -4.386 -13.162  0.00  0.00    +0.005 A 
ATOM     15  C   UNL     1      -0.720  -3.245 -12.552  0.00  0.00    +0.010 A 
ATOM     16  C   UNL     1      -0.435  -2.152 -13.303  0.00  0.00    +0.001 A 
ATOM     17  C   UNL     1      -0.690  -2.120 -14.677  0.00  0.00    +0.002 A 
ATOM     18  C   UNL     1      -1.232  -3.177 -15.329  0.00  0.00    +0.026 A 
ATOM     19  C   UNL     1      -1.556  -4.359 -14.610  0.00  0.00    +0.043 A 
ATOM     20  N   UNL     1      -2.082  -5.500 -15.002  0.00  0.00    -0.377 N 
ATOM     21  C   UNL     1      -2.205  -6.398 -13.849  0.00  0.00    +0.109 C 
ATOM     22  C   UNL     1      -1.369  -7.661 -14.070  0.00  0.00    +0.035 C 
ATOM     23  H   UNL     1      -2.343  -5.715 -15.911  0.00  0.00    +0.160 HD
ENDBRANCH  12  13
ENDBRANCH   9  11
ENDBRANCH   4   7
BRANCH   1  24
ATOM     24  N   UNL     1      -0.195  -6.675  -2.796  0.00  0.00    -0.216 N 
ATOM     25  H   UNL     1      -0.997  -6.735  -2.254  0.00  0.00    +0.174 HD
BRANCH  24  26
ATOM     26  S   UNL     1       1.273  -7.095  -2.154  0.00  0.00    +0.072 S 
ATOM     27  O   UNL     1       1.027  -7.509  -0.817  0.00  0.00    -0.150 OA
ATOM     28  O   UNL     1       2.172  -6.041  -2.472  0.00  0.00    -0.150 OA
BRANCH  26  32
ATOM     29  C   UNL     1       2.720 -10.753  -4.396  0.00  0.00    +0.121 A 
ATOM     30  C   UNL     1       3.141  -9.489  -4.783  0.00  0.00    +0.047 A 
ATOM     31  C   UNL     1       2.698  -8.375  -4.098  0.00  0.00    +0.032 A 
ATOM     32  C   UNL     1       1.836  -8.518  -3.026  0.00  0.00    +0.109 A 
ATOM     33  C   UNL     1       1.415  -9.777  -2.638  0.00  0.00    +0.032 A 
ATOM     34  C   UNL     1       1.851 -10.894  -3.324  0.00  0.00    +0.047 A 
BRANCH  29  35
ATOM     35  O   UNL     1       3.155 -11.851  -5.069  0.00  0.00    -0.492 OA
BRANCH  35  37
ATOM     36  C   UNL     1       4.425 -12.973  -6.791  0.00  0.00    +0.048 C 
ATOM     37  C   UNL     1       4.048 -11.631  -6.162  0.00  0.00    +0.225 C 
ENDBRANCH  35  37
ENDBRANCH  29  35
ENDBRANCH  26  32
ENDBRANCH  24  26
ENDBRANCH   1  24
TORSDOF 8
