REMARK  Name = ZINC33513739
REMARK  9 active torsions:
REMARK  status: ('A' for Active; 'I' for Inactive)
REMARK    1  A    between atoms: C_1  and  C_2
REMARK    2  A    between atoms: C_2  and  O_3
REMARK    3  A    between atoms: O_3  and  C_4
REMARK    4  A    between atoms: C_4  and  C_6
REMARK    5  A    between atoms: C_8  and  N_14
REMARK    6  A    between atoms: C_9  and  C_13
REMARK    7  A    between atoms: C_11  and  C_12
REMARK    8  A    between atoms: N_17  and  C_18
REMARK    9  A    between atoms: C_21  and  C_25
REMARK                            x       y       z     vdW  Elec       q    Type
REMARK                         _______ _______ _______ _____ _____    ______ ____
ROOT
ATOM      1  N   UNL     1       5.879  -0.558  -0.392  0.00  0.00    -0.268 N 
ATOM      2  C   UNL     1       4.742   0.154  -0.516  0.00  0.00    +0.308 C 
ATOM      3  O   UNL     1       4.765   1.250  -1.042  0.00  0.00    -0.252 OA
ATOM      4  N   UNL     1       3.579  -0.348  -0.056  0.00  0.00    -0.267 N 
ATOM      5  H   UNL     1       5.845  -1.584   0.003  0.00  0.00    +0.156 HD
ATOM      6  H   UNL     1       3.566  -1.315   0.468  0.00  0.00    +0.156 HD
ENDROOT
BRANCH   4   7
ATOM      7  C   UNL     1       2.387   0.362  -0.243  0.00  0.00    +0.063 A 
ATOM      8  C   UNL     1       2.107   0.939  -1.475  0.00  0.00    +0.040 A 
ATOM      9  C   UNL     1       0.929   1.640  -1.657  0.00  0.00    +0.020 A 
ATOM     10  C   UNL     1       0.031   1.767  -0.614  0.00  0.00    -0.048 A 
ATOM     11  C   UNL     1       0.306   1.194   0.614  0.00  0.00    +0.020 A 
ATOM     12  C   UNL     1       1.482   0.492   0.803  0.00  0.00    +0.040 A 
ATOM     13 BR   UNL     1       1.857  -0.292   2.482  0.00  0.00    -0.048 Br
ATOM     14  C   UNL     1      -1.249   2.537  -0.814  0.00  0.00    +0.044 C 
ATOM     15 BR   UNL     1       3.335   0.766  -2.903  0.00  0.00    -0.048 Br
ENDBRANCH   4   7
BRANCH   1  18
ATOM     16  C   UNL     1       8.497   1.904  -1.206  0.00  0.00    +0.082 A 
ATOM     17  C   UNL     1       7.253   1.388  -0.826  0.00  0.00    +0.042 A 
ATOM     18  C   UNL     1       7.104   0.007  -0.767  0.00  0.00    +0.057 A 
ATOM     19  C   UNL     1       8.188  -0.805  -1.080  0.00  0.00    +0.060 A 
ATOM     20  N   UNL     1       9.345  -0.284  -1.439  0.00  0.00    -0.254 NA
ATOM     21  C   UNL     1       9.532   1.017  -1.508  0.00  0.00    +0.053 A 
ATOM     22  C   UNL     1      10.878   1.556  -1.920  0.00  0.00    +0.066 C 
ATOM     23  C   UNL     1       8.036  -2.303  -1.013  0.00  0.00    +0.067 C 
BRANCH  16  24
ATOM     24  C   UNL     1       8.712   3.363  -1.284  0.00  0.00    +0.341 C 
ATOM     25  O   UNL     1       9.786   3.800  -1.647  0.00  0.00    -0.245 OA
BRANCH  24  26
ATOM     26  O   UNL     1       7.717   4.209  -0.954  0.00  0.00    -0.461 OA
BRANCH  26  28
ATOM     27  C   UNL     1       6.760   6.427  -0.643  0.00  0.00    +0.048 C 
ATOM     28  C   UNL     1       7.999   5.630  -1.055  0.00  0.00    +0.229 C 
ENDBRANCH  26  28
ENDBRANCH  24  26
ENDBRANCH  16  24
ENDBRANCH   1  18
TORSDOF 5
