REMARK  Name = ZINC39693362
REMARK  10 active torsions:
REMARK  status: ('A' for Active; 'I' for Inactive)
REMARK    1  A    between atoms: C_1  and  C_2
REMARK    2  A    between atoms: C_2  and  C_3
REMARK    3  A    between atoms: C_2  and  C_4
REMARK    4  A    between atoms: C_2  and  O_5
REMARK    5  A    between atoms: O_5  and  C_6
REMARK    6  A    between atoms: N_8  and  C_9
REMARK    7  A    between atoms: C_9  and  C_10
REMARK    8  A    between atoms: C_10  and  N_11
REMARK    9  A    between atoms: C_12  and  C_14
REMARK   10  A    between atoms: C_25  and  C_27
REMARK                            x       y       z     vdW  Elec       q    Type
REMARK                         _______ _______ _______ _____ _____    ______ ____
ROOT
ATOM      1  C   UNL     1       8.611  -0.467  -5.162  0.00  0.00    +0.100 C 
ATOM      2  C   UNL     1       8.469   1.052  -5.403  0.00  0.00    +0.121 C 
ATOM      3  N   UNL     1       9.405   1.344  -6.514  0.00  0.00    -0.296 N 
ATOM      4  C   UNL     1       9.263   0.186  -7.430  0.00  0.00    +0.115 C 
ATOM      5  C   UNL     1       9.132  -1.032  -6.494  0.00  0.00    -0.004 C 
ATOM      6  C   UNL     1       8.135  -2.033  -7.070  0.00  0.00    -0.010 C 
ATOM      7  C   UNL     1       8.701  -2.624  -8.364  0.00  0.00    -0.082 C 
ATOM      8  N   UNL     1       9.981  -3.284  -8.084  0.00  0.00    +0.379 N 
ATOM      9  C   UNL     1      10.963  -2.297  -7.619  0.00  0.00    -0.082 C 
ATOM     10  C   UNL     1      10.492  -1.692  -6.293  0.00  0.00    -0.010 C 
ATOM     11  C   UNL     1      10.206   2.419  -6.660  0.00  0.00    +0.249 C 
ATOM     12  O   UNL     1      10.853   2.562  -7.679  0.00  0.00    -0.270 OA
ATOM     13  H   UNL     1       9.847  -3.985  -7.370  0.00  0.00    -0.086 HD
ATOM     14  H   UNL     1      10.322  -3.725  -8.925  0.00  0.00    -0.086 HD
ENDROOT
BRANCH  11  15
ATOM     15  C   UNL     1      10.297   3.423  -5.581  0.00  0.00    +0.072 A 
ATOM     16  C   UNL     1       9.172   3.730  -4.811  0.00  0.00    +0.016 A 
ATOM     17  C   UNL     1       9.264   4.668  -3.805  0.00  0.00    +0.001 A 
ATOM     18  C   UNL     1      10.467   5.307  -3.555  0.00  0.00    +0.003 A 
ATOM     19  C   UNL     1      11.585   5.011  -4.312  0.00  0.00    +0.039 A 
ATOM     20  C   UNL     1      11.510   4.067  -5.321  0.00  0.00    +0.135 A 
ATOM     21  F   UNL     1      12.604   3.774  -6.056  0.00  0.00    -0.205 F 
ENDBRANCH  11  15
BRANCH   1  23
ATOM     22  N   UNL     1       7.208  -2.167  -4.039  0.00  0.00    -0.314 N 
ATOM     23  C   UNL     1       7.274  -1.072  -4.822  0.00  0.00    +0.218 C 
ATOM     24  O   UNL     1       6.256  -0.574  -5.255  0.00  0.00    -0.275 OA
ATOM     25  H   UNL     1       8.022  -2.565  -3.693  0.00  0.00    +0.149 HD
BRANCH  22  26
ATOM     26  C   UNL     1       5.907  -2.755  -3.709  0.00  0.00    +0.123 C 
BRANCH  26  27
ATOM     27  C   UNL     1       6.113  -3.978  -2.814  0.00  0.00    +0.126 C 
BRANCH  27  30
ATOM     28  C   UNL     1       4.747  -5.661  -1.700  0.00  0.00    +0.401 C 
ATOM     29  O   UNL     1       5.767  -6.160  -1.267  0.00  0.00    -0.226 OA
ATOM     30  N   UNL     1       4.812  -4.566  -2.484  0.00  0.00    -0.280 N 
ATOM     31  H   UNL     1       3.998  -4.167  -2.829  0.00  0.00    +0.152 HD
BRANCH  28  32
ATOM     32  O   UNL     1       3.552  -6.201  -1.397  0.00  0.00    -0.445 OA
BRANCH  32  34
ATOM     33  C   UNL     1       4.206  -7.019   0.781  0.00  0.00    +0.055 C 
ATOM     34  C   UNL     1       3.557  -7.360  -0.562  0.00  0.00    +0.107 C 
ATOM     35  C   UNL     1       4.351  -8.476  -1.243  0.00  0.00    +0.055 C 
ATOM     36  C   UNL     1       2.119  -7.828  -0.329  0.00  0.00    +0.055 C 
ENDBRANCH  32  34
ENDBRANCH  28  32
ENDBRANCH  27  30
ENDBRANCH  26  27
ENDBRANCH  22  26
ENDBRANCH   1  23
TORSDOF 7
