REMARK  Name = ZINC15775013
REMARK  9 active torsions:
REMARK  status: ('A' for Active; 'I' for Inactive)
REMARK    1  A    between atoms: C_6  and  N_7
REMARK    2  A    between atoms: N_7  and  N_8
REMARK    3  A    between atoms: C_10  and  C_22
REMARK    4  A    between atoms: N_12  and  C_15
REMARK    5  A    between atoms: C_22  and  C_24
REMARK    6  A    between atoms: C_22  and  O_29
REMARK    7  A    between atoms: C_24  and  C_26
REMARK    8  A    between atoms: C_24  and  O_28
REMARK    9  A    between atoms: C_26  and  O_27
REMARK                            x       y       z     vdW  Elec       q    Type
REMARK                         _______ _______ _______ _____ _____    ______ ____
ROOT
ATOM      1  N   UNL     1       3.507   1.772  -0.022  0.00  0.00    -0.175 NA
ATOM      2  C   UNL     1       4.661   1.129  -0.037  0.00  0.00    +0.171 C 
ATOM      3  C   UNL     1       4.877  -0.326  -0.042  0.00  0.00    +0.123 C 
ATOM      4  N   UNL     1       6.158  -0.532  -0.060  0.00  0.00    -0.172 NA
ATOM      5  N   UNL     1       6.867   0.669  -0.060  0.00  0.00    -0.155 N 
ATOM      6  C   UNL     1       6.013   1.712  -0.047  0.00  0.00    +0.292 C 
ATOM      7  O   UNL     1       6.302   2.896  -0.043  0.00  0.00    -0.266 OA
ENDROOT
BRANCH   5   8
ATOM      8  C   UNL     1       8.264   0.775  -0.072  0.00  0.00    +0.060 A 
ATOM      9  C   UNL     1       8.866   2.027  -0.076  0.00  0.00    +0.026 A 
ATOM     10  C   UNL     1      10.243   2.129  -0.083  0.00  0.00    +0.017 A 
ATOM     11  C   UNL     1      11.023   0.986  -0.097  0.00  0.00    +0.018 A 
ATOM     12  C   UNL     1      10.426  -0.262  -0.098  0.00  0.00    +0.017 A 
ATOM     13  C   UNL     1       9.049  -0.370  -0.086  0.00  0.00    +0.026 A 
ATOM     14 BR   UNL     1      12.909   1.130  -0.114  0.00  0.00    -0.050 Br
ENDBRANCH   5   8
BRANCH   1  15
ATOM     15  N   UNL     1       2.400   1.109  -0.015  0.00  0.00    -0.237 N 
ATOM     16  H   UNL     1       2.415   0.139  -0.021  0.00  0.00    +0.174 HD
BRANCH  15  22
ATOM     17  C   UNL     1      -0.013   1.076   0.008  0.00  0.00    +0.026 A 
ATOM     18  C   UNL     1      -1.217   1.751   0.017  0.00  0.00    +0.017 A 
ATOM     19  C   UNL     1      -1.237   3.134   0.031  0.00  0.00    +0.018 A 
ATOM     20  C   UNL     1      -0.050   3.846   0.023  0.00  0.00    +0.017 A 
ATOM     21  C   UNL     1       1.158   3.178   0.008  0.00  0.00    +0.026 A 
ATOM     22  C   UNL     1       1.181   1.788   0.000  0.00  0.00    +0.048 A 
ATOM     23 BR   UNL     1      -2.889   4.054   0.053  0.00  0.00    -0.050 Br
ENDBRANCH  15  22
ENDBRANCH   1  15
BRANCH   3  24
ATOM     24  C   UNL     1       3.805  -1.385  -0.030  0.00  0.00    +0.197 C 
BRANCH  24  25
ATOM     25  O   UNL     1       3.007  -1.243   1.146  0.00  0.00    -0.383 OA
ATOM     26  H   UNL     1       3.503  -1.330   1.972  0.00  0.00    +0.210 HD
ENDBRANCH  24  25
BRANCH  24  27
ATOM     27  C   UNL     1       4.456  -2.770  -0.040  0.00  0.00    +0.174 C 
BRANCH  27  28
ATOM     28  O   UNL     1       5.372  -2.873   1.053  0.00  0.00    -0.387 OA
ATOM     29  H   UNL     1       4.962  -2.757   1.921  0.00  0.00    +0.210 HD
ENDBRANCH  27  28
BRANCH  27  30
ATOM     30  C   UNL     1       3.375  -3.843   0.097  0.00  0.00    +0.190 C 
BRANCH  30  31
ATOM     31  O   UNL     1       3.969  -5.137  -0.028  0.00  0.00    -0.392 OA
ATOM     32  H   UNL     1       3.340  -5.867   0.049  0.00  0.00    +0.210 HD
ENDBRANCH  30  31
ENDBRANCH  27  30
ENDBRANCH  24  27
ENDBRANCH   3  24
TORSDOF 9
