REMARK  Name = ZINC39676226
REMARK  4 active torsions:
REMARK  status: ('A' for Active; 'I' for Inactive)
REMARK    1  A    between atoms: C_11  and  C_13
REMARK    2  A    between atoms: C_13  and  N_14
REMARK    3  A    between atoms: C_15  and  C_17
REMARK    4  A    between atoms: C_28  and  C_30
REMARK                            x       y       z     vdW  Elec       q    Type
REMARK                         _______ _______ _______ _____ _____    ______ ____
ROOT
ATOM      1  C   UNL     1       8.271  -1.229  -0.683  0.00  0.00    +0.100 C 
ATOM      2  C   UNL     1       8.344  -0.171  -1.807  0.00  0.00    +0.121 C 
ATOM      3  N   UNL     1       9.793   0.062  -2.009  0.00  0.00    -0.296 N 
ATOM      4  C   UNL     1      10.404  -1.283  -1.885  0.00  0.00    +0.115 C 
ATOM      5  C   UNL     1       9.625  -1.957  -0.738  0.00  0.00    -0.004 C 
ATOM      6  C   UNL     1       9.416  -3.438  -1.041  0.00  0.00    -0.010 C 
ATOM      7  C   UNL     1      10.771  -4.152  -1.033  0.00  0.00    -0.082 C 
ATOM      8  N   UNL     1      11.406  -3.985   0.280  0.00  0.00    +0.379 N 
ATOM      9  C   UNL     1      11.687  -2.565   0.524  0.00  0.00    -0.082 C 
ATOM     10  C   UNL     1      10.371  -1.784   0.581  0.00  0.00    -0.010 C 
ATOM     11  C   UNL     1      10.416   1.233  -2.249  0.00  0.00    +0.247 C 
ATOM     12  O   UNL     1       9.793   2.275  -2.195  0.00  0.00    -0.270 OA
ATOM     13  H   UNL     1      10.787  -4.332   0.998  0.00  0.00    -0.086 HD
ATOM     14  H   UNL     1      12.269  -4.507   0.304  0.00  0.00    -0.086 HD
ENDROOT
BRANCH  11  15
ATOM     15  C   UNL     1      11.857   1.250  -2.579  0.00  0.00    +0.037 A 
ATOM     16  C   UNL     1      12.478   0.097  -3.063  0.00  0.00    +0.014 A 
ATOM     17  C   UNL     1      13.823   0.119  -3.369  0.00  0.00    +0.016 A 
ATOM     18  C   UNL     1      14.556   1.281  -3.198  0.00  0.00    +0.018 A 
ATOM     19  C   UNL     1      13.945   2.427  -2.718  0.00  0.00    +0.016 A 
ATOM     20  C   UNL     1      12.600   2.420  -2.414  0.00  0.00    +0.014 A 
ATOM     21 BR   UNL     1      16.399   1.302  -3.619  0.00  0.00    -0.050 Br
ENDBRANCH  11  15
BRANCH   1  23
ATOM     22  N   UNL     1       6.506  -2.781   0.088  0.00  0.00    -0.308 N 
ATOM     23  C   UNL     1       7.144  -2.195  -0.944  0.00  0.00    +0.219 C 
ATOM     24  O   UNL     1       6.812  -2.446  -2.083  0.00  0.00    -0.275 OA
ATOM     25  H   UNL     1       6.772  -2.581   0.999  0.00  0.00    +0.149 HD
BRANCH  22  26
ATOM     26  C   UNL     1       5.411  -3.720  -0.165  0.00  0.00    +0.178 C 
BRANCH  26  37
ATOM     27  C   UNL     1       4.042  -5.099   5.923  0.00  0.00    +0.001 A 
ATOM     28  C   UNL     1       5.091  -4.191   5.857  0.00  0.00    +0.002 A 
ATOM     29  C   UNL     1       5.562  -3.745   4.643  0.00  0.00    +0.028 A 
ATOM     30  C   UNL     1       4.981  -4.210   3.462  0.00  0.00    +0.078 A 
ATOM     31  C   UNL     1       3.915  -5.134   3.532  0.00  0.00    +0.065 A 
ATOM     32  C   UNL     1       3.452  -5.573   4.771  0.00  0.00    +0.015 A 
ATOM     33  C   UNL     1       3.324  -5.605   2.271  0.00  0.00    +0.259 A 
ATOM     34  O   UNL     1       2.403  -6.400   2.261  0.00  0.00    -0.267 OA
ATOM     35  N   UNL     1       3.844  -5.118   1.120  0.00  0.00    -0.309 N 
ATOM     36  H   UNL     1       3.480  -5.405   0.268  0.00  0.00    +0.170 HD
ATOM     37  C   UNL     1       4.872  -4.229   1.147  0.00  0.00    +0.128 A 
ATOM     38  N   UNL     1       5.414  -3.797   2.244  0.00  0.00    -0.232 NA
ENDBRANCH  26  37
ENDBRANCH  22  26
ENDBRANCH   1  23
TORSDOF 4
