REMARK  Name = ZINC44018939
REMARK  6 active torsions:
REMARK  status: ('A' for Active; 'I' for Inactive)
REMARK    1  A    between atoms: N_7  and  S_8
REMARK    2  A    between atoms: S_8  and  C_11
REMARK    3  A    between atoms: C_14  and  N_17
REMARK    4  A    between atoms: N_17  and  C_18
REMARK    5  A    between atoms: N_22  and  C_27
REMARK    6  A    between atoms: C_27  and  C_28
REMARK                            x       y       z     vdW  Elec       q    Type
REMARK                         _______ _______ _______ _____ _____    ______ ____
ROOT
ATOM      1  N   UNL     1       0.483  -5.063  -3.914  0.00  0.00    -0.301 N 
ATOM      2  H   UNL     1      -0.483  -5.117  -3.842  0.00  0.00    +0.154 HD
ENDROOT
BRANCH   1   3
ATOM      3  C   UNL     1       1.107  -5.425  -5.082  0.00  0.00    +0.109 A 
ATOM      4  C   UNL     1       0.388  -5.979  -6.104  0.00  0.00    +0.112 A 
ATOM      5  C   UNL     1       1.052  -6.340  -7.287  0.00  0.00    +0.259 A 
ATOM      6  O   UNL     1       0.431  -6.835  -8.212  0.00  0.00    -0.267 OA
ATOM      7  N   UNL     1       2.379  -6.134  -7.395  0.00  0.00    -0.257 N 
ATOM      8  C   UNL     1       3.071  -5.588  -6.379  0.00  0.00    +0.331 A 
ATOM      9  O   UNL     1       4.269  -5.411  -6.497  0.00  0.00    -0.246 OA
ATOM     10  N   UNL     1       2.458  -5.228  -5.236  0.00  0.00    -0.296 N 
ATOM     11  H   UNL     1       2.973  -4.832  -4.516  0.00  0.00    +0.172 HD
BRANCH   7  12
ATOM     12  C   UNL     1       3.075  -6.509  -8.629  0.00  0.00    +0.165 C 
BRANCH  12  13
ATOM     13  C   UNL     1       3.069  -5.342  -9.582  0.00  0.00    -0.027 A 
ATOM     14  C   UNL     1       2.030  -5.190 -10.482  0.00  0.00    +0.008 A 
ATOM     15  C   UNL     1       2.024  -4.120 -11.357  0.00  0.00    +0.038 A 
ATOM     16  C   UNL     1       3.059  -3.201 -11.333  0.00  0.00    +0.123 A 
ATOM     17  C   UNL     1       4.099  -3.355 -10.432  0.00  0.00    +0.038 A 
ATOM     18  C   UNL     1       4.101  -4.422  -9.554  0.00  0.00    +0.008 A 
ATOM     19  F   UNL     1       3.055  -2.155 -12.188  0.00  0.00    -0.205 F 
ENDBRANCH  12  13
ENDBRANCH   7  12
ENDBRANCH   1   3
BRANCH   1  23
ATOM     20  C   UNL     1       2.738  -3.729  -0.675  0.00  0.00    +0.109 A 
ATOM     21  C   UNL     1       1.544  -3.106  -0.988  0.00  0.00    +0.030 A 
ATOM     22  C   UNL     1       0.794  -3.545  -2.061  0.00  0.00    +0.025 A 
ATOM     23  C   UNL     1       1.240  -4.615  -2.827  0.00  0.00    +0.032 A 
ATOM     24  C   UNL     1       2.440  -5.239  -2.510  0.00  0.00    +0.025 A 
ATOM     25  C   UNL     1       3.188  -4.791  -1.439  0.00  0.00    +0.030 A 
BRANCH  20  26
ATOM     26  S   UNL     1       3.692  -3.165   0.694  0.00  0.00    +0.075 S 
ATOM     27  O   UNL     1       4.501  -4.259   1.104  0.00  0.00    -0.150 OA
ATOM     28  O   UNL     1       2.790  -2.512   1.576  0.00  0.00    -0.150 OA
BRANCH  26  35
ATOM     29  C   UNL     1       3.243   1.487  -1.334  0.00  0.00    +0.039 A 
ATOM     30  C   UNL     1       4.587   1.367  -1.015  0.00  0.00    +0.116 A 
ATOM     31  N   UNL     1       5.037   0.217  -0.542  0.00  0.00    -0.222 NA
ATOM     32  C   UNL     1       4.219  -0.812  -0.372  0.00  0.00    +0.235 A 
ATOM     33  N   UNL     1       2.930  -0.730  -0.667  0.00  0.00    -0.222 NA
ATOM     34  C   UNL     1       2.416   0.391  -1.144  0.00  0.00    +0.116 A 
ATOM     35  N   UNL     1       4.724  -2.001   0.126  0.00  0.00    -0.184 N 
ATOM     36  H   UNL     1       5.682  -2.152   0.141  0.00  0.00    +0.177 HD
ENDBRANCH  26  35
ENDBRANCH  20  26
ENDBRANCH   1  23
TORSDOF 6
