REMARK  Name = ZINC14666176
REMARK  10 active torsions:
REMARK  status: ('A' for Active; 'I' for Inactive)
REMARK    1  A    between atoms: C_1  and  C_2
REMARK    2  A    between atoms: C_7  and  C_8
REMARK    3  A    between atoms: N_10  and  N_11
REMARK    4  A    between atoms: N_11  and  C_12
REMARK    5  A    between atoms: C_12  and  N_14
REMARK    6  A    between atoms: C_15  and  C_17
REMARK    7  A    between atoms: C_22  and  O_23
REMARK    8  A    between atoms: O_23  and  C_24
REMARK    9  A    between atoms: C_24  and  C_25
REMARK   10  A    between atoms: C_25  and  C_26
REMARK                            x       y       z     vdW  Elec       q    Type
REMARK                         _______ _______ _______ _____ _____    ______ ____
ROOT
ATOM      1  N   UNL     1       2.277  -0.227  -1.165  0.00  0.00    -0.263 N 
ATOM      2  C   UNL     1       3.441  -0.866  -1.393  0.00  0.00    +0.253 C 
ATOM      3  O   UNL     1       4.453  -0.228  -1.609  0.00  0.00    -0.270 OA
ATOM      4  H   UNL     1       1.469  -0.736  -0.993  0.00  0.00    +0.157 HD
ENDROOT
BRANCH   2   5
ATOM      5  C   UNL     1       3.488  -2.340  -1.381  0.00  0.00    +0.080 A 
ATOM      6  C   UNL     1       2.328  -3.078  -1.127  0.00  0.00    +0.032 A 
ATOM      7  C   UNL     1       2.378  -4.455  -1.122  0.00  0.00    +0.019 A 
ATOM      8  C   UNL     1       3.576  -5.112  -1.356  0.00  0.00    +0.019 A 
ATOM      9  C   UNL     1       4.729  -4.395  -1.603  0.00  0.00    +0.047 A 
ATOM     10  C   UNL     1       4.697  -3.009  -1.617  0.00  0.00    +0.133 A 
ATOM     11 BR   UNL     1       0.807  -5.453  -0.787  0.00  0.00    -0.050 Br
BRANCH  10  12
ATOM     12  O   UNL     1       5.830  -2.303  -1.859  0.00  0.00    -0.491 OA
BRANCH  12  13
ATOM     13  C   UNL     1       7.024  -3.053  -2.092  0.00  0.00    +0.233 C 
BRANCH  13  14
ATOM     14  C   UNL     1       8.188  -2.092  -2.344  0.00  0.00    +0.076 C 
BRANCH  14  15
ATOM     15  C   UNL     1       9.447  -2.883  -2.589  0.00  0.00    -0.044 A 
ATOM     16  C   UNL     1      10.267  -3.223  -1.530  0.00  0.00    +0.004 A 
ATOM     17  C   UNL     1      11.420  -3.952  -1.754  0.00  0.00    +0.000 A 
ATOM     18  C   UNL     1      11.758  -4.333  -3.039  0.00  0.00    +0.000 A 
ATOM     19  C   UNL     1      10.941  -3.989  -4.099  0.00  0.00    +0.000 A 
ATOM     20  C   UNL     1       9.785  -3.264  -3.874  0.00  0.00    +0.004 A 
ENDBRANCH  14  15
ENDBRANCH  13  14
ENDBRANCH  12  13
ENDBRANCH  10  12
ENDBRANCH   2   5
BRANCH   1  21
ATOM     21  C   UNL     1       2.234   1.120  -1.176  0.00  0.00    +0.153 C 
ATOM     22  S   UNL     1       3.659   2.019  -1.480  0.00  0.00    -0.017 S 
BRANCH  21  23
ATOM     23  N   UNL     1       1.069   1.759  -0.948  0.00  0.00    -0.245 N 
ATOM     24  H   UNL     1       1.039   2.729  -0.957  0.00  0.00    +0.172 HD
BRANCH  23  27
ATOM     25  C   UNL     1      -1.262   1.663  -0.477  0.00  0.00    +0.260 C 
ATOM     26  O   UNL     1      -1.301   2.877  -0.488  0.00  0.00    -0.269 OA
ATOM     27  N   UNL     1      -0.097   1.024  -0.700  0.00  0.00    -0.231 N 
ATOM     28  H   UNL     1      -0.066   0.054  -0.692  0.00  0.00    +0.173 HD
BRANCH  25  35
ATOM     29  C   UNL     1      -3.697   3.043   0.255  0.00  0.00    +0.044 C 
ATOM     30  C   UNL     1      -3.674   1.541   0.133  0.00  0.00    -0.038 A 
ATOM     31  C   UNL     1      -4.820   0.810   0.371  0.00  0.00    +0.004 A 
ATOM     32  C   UNL     1      -4.801  -0.569   0.259  0.00  0.00    +0.000 A 
ATOM     33  C   UNL     1      -3.634  -1.224  -0.092  0.00  0.00    +0.001 A 
ATOM     34  C   UNL     1      -2.483  -0.505  -0.338  0.00  0.00    +0.013 A 
ATOM     35  C   UNL     1      -2.494   0.886  -0.221  0.00  0.00    +0.041 A 
ENDBRANCH  25  35
ENDBRANCH  23  27
ENDBRANCH  21  23
ENDBRANCH   1  21
TORSDOF 9
