REMARK  Name = ZINC08927622
REMARK  5 active torsions:
REMARK  status: ('A' for Active; 'I' for Inactive)
REMARK    1  A    between atoms: C_1  and  C_2
REMARK    2  A    between atoms: C_2  and  N_42
REMARK    3  A    between atoms: C_10  and  O_24
REMARK    4  A    between atoms: C_12  and  C_15
REMARK    5  A    between atoms: C_20  and  O_21
REMARK                            x       y       z     vdW  Elec       q    Type
REMARK                         _______ _______ _______ _____ _____    ______ ____
ROOT
ATOM      1  C   UNL     1      -1.891   2.405  -6.547  0.00  0.00    -0.074 C 
ATOM      2  C   UNL     1      -1.931   3.112  -5.190  0.00  0.00    +0.018 C 
ATOM      3  C   UNL     1      -2.306   2.084  -4.128  0.00  0.00    -0.027 A 
ATOM      4  C   UNL     1      -2.876   0.911  -4.494  0.00  0.00    -0.021 A 
ATOM      5  S   UNL     1      -3.136   0.037  -2.975  0.00  0.00    -0.080 S 
ATOM      6  C   UNL     1      -2.510   1.202  -1.888  0.00  0.00    +0.080 A 
ATOM      7  C   UNL     1      -2.095   2.263  -2.704  0.00  0.00    +0.067 A 
ATOM      8  C   UNL     1      -1.490   3.441  -2.031  0.00  0.00    +0.220 C 
ATOM      9  N   UNL     1      -1.199   3.335  -0.764  0.00  0.00    -0.223 NA
ATOM     10  C   UNL     1      -1.332   2.114   0.020  0.00  0.00    +0.227 C 
ATOM     11  N   UNL     1      -2.381   1.230  -0.520  0.00  0.00    -0.313 N 
ATOM     12  C   UNL     1      -3.202   0.477  -5.888  0.00  0.00    -0.035 C 
ATOM     13  H   UNL     1      -2.950   0.699   0.058  0.00  0.00    +0.149 HD
ATOM     14  N   UNL     1      -3.159   1.677  -6.759  0.00  0.00    +0.383 N 
ATOM     15  H   UNL     1      -3.943   2.294  -6.516  0.00  0.00    -0.081 HD
ENDROOT
BRANCH  10  16
ATOM     16  C   UNL     1      -0.017   1.378   0.010  0.00  0.00    +0.038 A 
ATOM     17  C   UNL     1       0.002  -0.004   0.002  0.00  0.00    +0.026 A 
ATOM     18  C   UNL     1       1.208  -0.681  -0.013  0.00  0.00    +0.020 A 
ATOM     19  C   UNL     1       2.399   0.024  -0.021  0.00  0.00    +0.034 A 
ATOM     20  C   UNL     1       2.385   1.406  -0.014  0.00  0.00    +0.061 A 
ATOM     21  C   UNL     1       1.175   2.087   0.002  0.00  0.00    +0.138 A 
ATOM     22 BR   UNL     1       4.012   2.369  -0.024  0.00  0.00    -0.046 Br
ATOM     23 BR   UNL     1       1.230  -2.571  -0.023  0.00  0.00    -0.050 Br
BRANCH  21  24
ATOM     24  O   UNL     1       1.159   3.446   0.009  0.00  0.00    -0.505 OA
ATOM     25  H   UNL     1       1.162   3.834   0.894  0.00  0.00    +0.292 HD
ENDBRANCH  21  24
ENDBRANCH  10  16
BRANCH  14  27
ATOM     26  C   UNL     1      -4.689   0.723  -8.415  0.00  0.00    -0.017 C 
ATOM     27  C   UNL     1      -3.283   1.278  -8.178  0.00  0.00    -0.082 C 
ENDBRANCH  14  27
BRANCH   8  28
ATOM     28  O   UNL     1      -1.248   4.586  -2.711  0.00  0.00    -0.492 OA
ATOM     29  H   UNL     1      -0.853   5.286  -2.174  0.00  0.00    +0.294 HD
ENDBRANCH   8  28
TORSDOF 4
