REMARK  Name = ZINC09742753
REMARK  7 active torsions:
REMARK  status: ('A' for Active; 'I' for Inactive)
REMARK    1  A    between atoms: C_1  and  C_2
REMARK    2  A    between atoms: N_8  and  C_9
REMARK    3  A    between atoms: C_9  and  C_10
REMARK    4  A    between atoms: C_26  and  C_30
REMARK    5  A    between atoms: C_27  and  N_29
REMARK    6  A    between atoms: C_30  and  O_32
REMARK    7  A    between atoms: O_32  and  C_33
REMARK                            x       y       z     vdW  Elec       q    Type
REMARK                         _______ _______ _______ _____ _____    ______ ____
ROOT
ATOM      1  C   UNL     1      -1.368   4.925   0.868  0.00  0.00    +0.064 C 
ATOM      2  C   UNL     1      -1.871   3.844   1.790  0.00  0.00    +0.023 A 
ATOM      3  C   UNL     1      -1.972   4.092   3.114  0.00  0.00    +0.068 A 
ATOM      4  C   UNL     1      -2.441   3.084   3.981  0.00  0.00    +0.142 A 
ATOM      5  C   UNL     1      -2.787   1.857   3.454  0.00  0.00    +0.083 A 
ATOM      6  C   UNL     1      -2.671   1.648   2.074  0.00  0.00    +0.260 A 
ATOM      7  O   UNL     1      -2.979   0.569   1.593  0.00  0.00    -0.267 OA
ATOM      8  N   UNL     1      -2.216   2.634   1.278  0.00  0.00    -0.308 N 
ATOM      9  C   UNL     1      -3.287   0.757   4.346  0.00  0.00    +0.143 C 
ATOM     10  C   UNL     1      -4.756   0.538   4.155  0.00  0.00    -0.002 A 
ATOM     11  C   UNL     1      -5.836   1.371   4.353  0.00  0.00    +0.007 A 
ATOM     12  C   UNL     1      -7.094   0.849   4.075  0.00  0.00    +0.000 A 
ATOM     13  C   UNL     1      -7.251  -0.445   3.621  0.00  0.00    +0.002 A 
ATOM     14  C   UNL     1      -6.170  -1.288   3.419  0.00  0.00    +0.023 A 
ATOM     15  C   UNL     1      -4.901  -0.776   3.694  0.00  0.00    +0.038 A 
ATOM     16  N   UNL     1      -3.664  -1.385   3.583  0.00  0.00    -0.284 N 
ATOM     17  C   UNL     1      -2.659  -0.561   3.944  0.00  0.00    +0.237 C 
ATOM     18  O   UNL     1      -1.475  -0.826   3.945  0.00  0.00    -0.274 OA
ATOM     19  C   UNL     1      -2.973   1.057   5.784  0.00  0.00    +0.117 C 
ATOM     20  C   UNL     1      -2.625   2.310   6.176  0.00  0.00    +0.196 C 
ATOM     21  O   UNL     1      -2.546   3.329   5.305  0.00  0.00    -0.441 OA
ATOM     22  H   UNL     1      -3.535  -2.298   3.281  0.00  0.00    +0.155 HD
ENDROOT
BRANCH  20  23
ATOM     23  N   UNL     1      -2.345   2.541   7.496  0.00  0.00    -0.329 N 
ATOM     24  H   UNL     1      -1.627   3.145   7.742  0.00  0.00    +0.145 HD
ATOM     25  H   UNL     1      -2.865   2.100   8.186  0.00  0.00    +0.145 HD
ENDBRANCH  20  23
BRANCH  19  26
ATOM     26  C   UNL     1      -3.041   0.029   6.736  0.00  0.00    +0.341 C 
ATOM     27  O   UNL     1      -2.689   0.237   7.883  0.00  0.00    -0.245 OA
BRANCH  26  28
ATOM     28  O   UNL     1      -3.496  -1.192   6.379  0.00  0.00    -0.465 OA
ATOM     29  C   UNL     1      -3.538  -2.192   7.400  0.00  0.00    +0.280 C 
ENDBRANCH  26  28
ENDBRANCH  19  26
BRANCH   8  30
ATOM     30  C   UNL     1      -2.095   2.399  -0.163  0.00  0.00    +0.160 C 
BRANCH  30  31
ATOM     31  C   UNL     1      -3.350   2.866  -0.854  0.00  0.00    -0.028 A 
ATOM     32  C   UNL     1      -4.450   2.031  -0.928  0.00  0.00    +0.005 A 
ATOM     33  C   UNL     1      -5.599   2.456  -1.569  0.00  0.00    +0.000 A 
ATOM     34  C   UNL     1      -5.649   3.717  -2.132  0.00  0.00    +0.000 A 
ATOM     35  C   UNL     1      -4.550   4.553  -2.058  0.00  0.00    +0.000 A 
ATOM     36  C   UNL     1      -3.401   4.127  -1.419  0.00  0.00    +0.005 A 
ENDBRANCH  30  31
ENDBRANCH   8  30
TORSDOF 5
