REMARK  Name = ZINC01419024
REMARK  13 active torsions:
REMARK  status: ('A' for Active; 'I' for Inactive)
REMARK    1  A    between atoms: C_1  and  N_2
REMARK    2  A    between atoms: N_2  and  C_3
REMARK    3  A    between atoms: N_2  and  C_4
REMARK    4  A    between atoms: C_7  and  N_10
REMARK    5  A    between atoms: C_11  and  C_13
REMARK    6  A    between atoms: C_13  and  C_15
REMARK    7  A    between atoms: C_13  and  N_22
REMARK    8  A    between atoms: N_22  and  C_23
REMARK    9  A    between atoms: C_23  and  C_24
REMARK   10  A    between atoms: C_27  and  O_30
REMARK   11  A    between atoms: O_30  and  C_31
REMARK   12  A    between atoms: C_32  and  C_34
REMARK   13  A    between atoms: C_34  and  N_35
REMARK                            x       y       z     vdW  Elec       q    Type
REMARK                         _______ _______ _______ _____ _____    ______ ____
ROOT
ATOM      1  N   UNL     1      -4.550   3.039  -2.836  0.00  0.00    -0.280 N 
ATOM      2  C   UNL     1      -3.756   3.168  -3.917  0.00  0.00    +0.238 C 
ATOM      3  O   UNL     1      -4.232   3.104  -5.030  0.00  0.00    -0.274 OA
ENDROOT
BRANCH   1   4
ATOM      4  C   UNL     1      -4.001   3.248  -1.494  0.00  0.00    +0.193 C 
BRANCH   4   5
ATOM      5  C   UNL     1      -3.804   4.723  -1.255  0.00  0.00    -0.018 A 
ATOM      6  C   UNL     1      -4.795   5.619  -1.613  0.00  0.00    +0.007 A 
ATOM      7  C   UNL     1      -4.617   6.971  -1.389  0.00  0.00    +0.020 A 
ATOM      8  C   UNL     1      -3.444   7.429  -0.817  0.00  0.00    +0.041 A 
ATOM      9  C   UNL     1      -2.451   6.533  -0.464  0.00  0.00    +0.020 A 
ATOM     10  C   UNL     1      -2.632   5.180  -0.683  0.00  0.00    +0.007 A 
ATOM     11 CL   UNL     1      -3.217   9.128  -0.543  0.00  0.00    -0.084 Cl
ENDBRANCH   4   5
BRANCH   4  13
ATOM     12  N   UNL     1      -4.820   3.032   0.830  0.00  0.00    -0.284 N 
ATOM     13  C   UNL     1      -4.957   2.696  -0.468  0.00  0.00    +0.242 C 
ATOM     14  O   UNL     1      -5.849   1.949  -0.810  0.00  0.00    -0.273 OA
ATOM     15  H   UNL     1      -4.139   3.670   1.097  0.00  0.00    +0.155 HD
BRANCH  12  19
ATOM     16  C   UNL     1      -7.323   1.329   3.700  0.00  0.00    +0.029 A 
ATOM     17  C   UNL     1      -5.955   1.409   3.930  0.00  0.00    +0.025 A 
ATOM     18  C   UNL     1      -5.127   1.973   2.980  0.00  0.00    +0.025 A 
ATOM     19  C   UNL     1      -5.661   2.460   1.794  0.00  0.00    +0.034 A 
ATOM     20  C   UNL     1      -7.029   2.385   1.567  0.00  0.00    +0.025 A 
ATOM     21  C   UNL     1      -7.856   1.817   2.514  0.00  0.00    +0.025 A 
BRANCH  16  23
ATOM     22  C   UNL     1      -7.599   0.242   5.912  0.00  0.00    +0.129 C 
ATOM     23  N   UNL     1      -8.162   0.757   4.662  0.00  0.00    -0.336 N 
ATOM     24  C   UNL     1      -9.604   0.673   4.419  0.00  0.00    +0.129 C 
ENDBRANCH  16  23
ENDBRANCH  12  19
ENDBRANCH   4  13
ENDBRANCH   1   4
BRANCH   1  25
ATOM     25  C   UNL     1      -5.963   2.690  -3.002  0.00  0.00    +0.144 C 
BRANCH  25  26
ATOM     26  C   UNL     1      -6.099   1.196  -3.141  0.00  0.00    -0.030 A 
ATOM     27  C   UNL     1      -5.034   0.446  -3.605  0.00  0.00    +0.009 A 
ATOM     28  C   UNL     1      -5.153  -0.924  -3.728  0.00  0.00    +0.046 A 
ATOM     29  C   UNL     1      -6.347  -1.548  -3.395  0.00  0.00    +0.120 A 
ATOM     30  C   UNL     1      -7.416  -0.793  -2.935  0.00  0.00    +0.046 A 
ATOM     31  C   UNL     1      -7.290   0.577  -2.809  0.00  0.00    +0.009 A 
BRANCH  29  32
ATOM     32  O   UNL     1      -6.469  -2.896  -3.520  0.00  0.00    -0.495 OA
ATOM     33  C   UNL     1      -5.327  -3.609  -4.000  0.00  0.00    +0.277 C 
ENDBRANCH  29  32
ENDBRANCH  25  26
ENDBRANCH   1  25
BRANCH   2  34
ATOM     34  C   UNL     1      -2.276   3.392  -3.742  0.00  0.00    +0.241 C 
BRANCH  34  35
ATOM     35  N   UNL     1      -1.618   3.351  -5.050  0.00  0.00    -0.235 N 
ATOM     36  C   UNL     1      -1.097   2.243  -5.675  0.00  0.00    +0.090 A 
ATOM     37  C   UNL     1      -1.013   0.895  -5.341  0.00  0.00    +0.029 A 
ATOM     38  C   UNL     1      -0.414   0.018  -6.200  0.00  0.00    +0.002 A 
ATOM     39  C   UNL     1       0.105   0.458  -7.412  0.00  0.00    +0.002 A 
ATOM     40  C   UNL     1       0.030   1.774  -7.765  0.00  0.00    +0.032 A 
ATOM     41  C   UNL     1      -0.575   2.695  -6.899  0.00  0.00    +0.113 A 
ATOM     42  N   UNL     1      -0.791   4.023  -6.971  0.00  0.00    -0.129 NA
ATOM     43  N   UNL     1      -1.396   4.435  -5.912  0.00  0.00    -0.064 NA
ENDBRANCH  34  35
ENDBRANCH   2  34
TORSDOF 10
