REMARK  Name = ZINC36725194
REMARK  12 active torsions:
REMARK  status: ('A' for Active; 'I' for Inactive)
REMARK    1  A    between atoms: C_1  and  C_2
REMARK    2  A    between atoms: C_2  and  C_4
REMARK    3  A    between atoms: C_2  and  S_16
REMARK    4  A    between atoms: N_6  and  C_7
REMARK    5  A    between atoms: C_10  and  N_13
REMARK    6  A    between atoms: N_13  and  C_14
REMARK    7  A    between atoms: N_13  and  C_15
REMARK    8  A    between atoms: S_16  and  C_17
REMARK    9  A    between atoms: C_20  and  C_23
REMARK   10  A    between atoms: N_21  and  N_22
REMARK   11  A    between atoms: C_26  and  O_29
REMARK   12  A    between atoms: O_29  and  C_30
REMARK                            x       y       z     vdW  Elec       q    Type
REMARK                         _______ _______ _______ _____ _____    ______ ____
ROOT
ATOM      1  S   UNL     1      -1.700  -0.632   0.019  0.00  0.00    -0.072 S 
ENDROOT
BRANCH   1   2
ATOM      2  C   UNL     1      -2.334  -0.100   1.575  0.00  0.00    +0.209 A 
ATOM      3  N   UNL     1      -1.690   0.600   2.481  0.00  0.00    -0.121 NA
ATOM      4  N   UNL     1      -2.449   0.815   3.495  0.00  0.00    -0.127 NA
ATOM      5  C   UNL     1      -3.625   0.266   3.299  0.00  0.00    +0.182 A 
ATOM      6  N   UNL     1      -3.590  -0.332   2.060  0.00  0.00    -0.224 N 
BRANCH   5   7
ATOM      7  C   UNL     1      -4.773   0.290   4.230  0.00  0.00    +0.021 A 
ATOM      8  C   UNL     1      -5.842  -0.588   4.046  0.00  0.00    +0.015 A 
ATOM      9  C   UNL     1      -6.910  -0.563   4.917  0.00  0.00    +0.046 A 
ATOM     10  C   UNL     1      -6.924   0.335   5.977  0.00  0.00    +0.120 A 
ATOM     11  C   UNL     1      -5.862   1.210   6.163  0.00  0.00    +0.046 A 
ATOM     12  C   UNL     1      -4.787   1.187   5.300  0.00  0.00    +0.015 A 
BRANCH  10  13
ATOM     13  O   UNL     1      -7.979   0.357   6.833  0.00  0.00    -0.495 OA
ATOM     14  C   UNL     1      -7.928   1.306   7.900  0.00  0.00    +0.277 C 
ENDBRANCH  10  13
ENDBRANCH   5   7
BRANCH   6  15
ATOM     15  N   UNL     1      -4.599  -1.018   1.446  0.00  0.00    -0.295 N 
ATOM     16  H   UNL     1      -4.565  -1.998   1.680  0.00  0.00    +0.163 HD
ATOM     17  H   UNL     1      -5.498  -0.622   1.676  0.00  0.00    +0.163 HD
ENDBRANCH   6  15
ENDBRANCH   1   2
BRANCH   1  19
ATOM     18  C   UNL     1      -0.023   1.529  -0.003  0.00  0.00    +0.029 C 
ATOM     19  C   UNL     1       0.001  -0.001   0.000  0.00  0.00    +0.137 C 
BRANCH  19  20
ATOM     20  C   UNL     1       0.706  -0.494  -1.237  0.00  0.00    +0.230 C 
ATOM     21  O   UNL     1       0.064  -0.795  -2.222  0.00  0.00    -0.274 OA
ATOM     22  N   UNL     1       2.049  -0.602  -1.249  0.00  0.00    -0.285 N 
ATOM     23  H   UNL     1       2.567  -0.300  -0.487  0.00  0.00    +0.155 HD
BRANCH  22  24
ATOM     24  C   UNL     1       2.698  -1.152  -2.364  0.00  0.00    +0.034 A 
ATOM     25  C   UNL     1       3.837  -1.926  -2.191  0.00  0.00    +0.025 A 
ATOM     26  C   UNL     1       4.476  -2.468  -3.289  0.00  0.00    +0.025 A 
ATOM     27  C   UNL     1       3.979  -2.239  -4.565  0.00  0.00    +0.029 A 
ATOM     28  C   UNL     1       2.839  -1.464  -4.737  0.00  0.00    +0.025 A 
ATOM     29  C   UNL     1       2.197  -0.927  -3.639  0.00  0.00    +0.025 A 
BRANCH  27  30
ATOM     30  N   UNL     1       4.626  -2.788  -5.677  0.00  0.00    -0.336 N 
ATOM     31  C   UNL     1       5.762  -3.693  -5.490  0.00  0.00    +0.129 C 
ATOM     32  C   UNL     1       4.168  -2.456  -7.029  0.00  0.00    +0.129 C 
ENDBRANCH  27  30
ENDBRANCH  22  24
ENDBRANCH  19  20
ENDBRANCH   1  19
TORSDOF 8
