REMARK  Name = ZINC39445387
REMARK  8 active torsions:
REMARK  status: ('A' for Active; 'I' for Inactive)
REMARK    1  A    between atoms: C_4  and  C_7
REMARK    2  A    between atoms: C_11  and  C_14
REMARK    3  A    between atoms: C_14  and  N_15
REMARK    4  A    between atoms: C_16  and  C_18
REMARK    5  A    between atoms: C_21  and  C_25
REMARK    6  A    between atoms: C_25  and  N_26
REMARK    7  A    between atoms: C_30  and  C_32
REMARK    8  A    between atoms: C_32  and  O_33
REMARK                            x       y       z     vdW  Elec       q    Type
REMARK                         _______ _______ _______ _____ _____    ______ ____
ROOT
ATOM      1  C   UNL     1       8.064  -3.340   2.706  0.00  0.00    +0.101 A 
ATOM      2  C   UNL     1       9.030  -3.995   3.468  0.00  0.00    +0.020 A 
ATOM      3  C   UNL     1      10.243  -3.355   3.716  0.00  0.00    +0.020 A 
ATOM      4  C   UNL     1      10.473  -2.112   3.219  0.00  0.00    +0.003 A 
ATOM      5  N   UNL     1       9.539  -1.469   2.478  0.00  0.00    -0.327 N 
ATOM      6  C   UNL     1       8.353  -2.045   2.204  0.00  0.00    +0.261 A 
ATOM      7  O   UNL     1       7.527  -1.452   1.530  0.00  0.00    -0.267 OA
ATOM      8  H   UNL     1       9.729  -0.582   2.136  0.00  0.00    +0.169 HD
ENDROOT
BRANCH   1  10
ATOM      9  N   UNL     1       5.893  -3.389   1.589  0.00  0.00    -0.309 N 
ATOM     10  C   UNL     1       6.772  -3.982   2.423  0.00  0.00    +0.249 C 
ATOM     11  O   UNL     1       6.495  -5.047   2.940  0.00  0.00    -0.270 OA
ATOM     12  H   UNL     1       6.081  -2.506   1.236  0.00  0.00    +0.149 HD
BRANCH   9  13
ATOM     13  C   UNL     1       4.656  -4.080   1.218  0.00  0.00    +0.134 C 
BRANCH  13  17
ATOM     14  C   UNL     1       3.723  -0.723  -0.074  0.00  0.00    +0.095 C 
ATOM     15  C   UNL     1       4.057  -1.121  -1.532  0.00  0.00    +0.094 C 
ATOM     16  S   UNL     1       4.811  -2.784  -1.248  0.00  0.00    -0.139 S 
ATOM     17  C   UNL     1       3.843  -3.195   0.271  0.00  0.00    +0.130 C 
ATOM     18  N   UNL     1       3.628  -1.849   0.847  0.00  0.00    -0.296 NA
ATOM     19  H   UNL     1       4.215  -1.707   1.654  0.00  0.00    +0.124 HD
BRANCH  14  23
ATOM     20  C   UNL     1      -0.005   1.362  -0.058  0.00  0.00    +0.000 A 
ATOM     21  C   UNL     1       1.183   2.069  -0.065  0.00  0.00    +0.000 A 
ATOM     22  C   UNL     1       2.389   1.395  -0.070  0.00  0.00    +0.005 A 
ATOM     23  C   UNL     1       2.408   0.012  -0.067  0.00  0.00    -0.030 A 
ATOM     24  C   UNL     1       1.220  -0.695  -0.060  0.00  0.00    +0.005 A 
ATOM     25  C   UNL     1       0.014  -0.020  -0.057  0.00  0.00    +0.000 A 
ENDBRANCH  14  23
ENDBRANCH  13  17
ENDBRANCH   9  13
ENDBRANCH   1  10
BRANCH   4  26
ATOM     26  C   UNL     1      11.790  -1.436   3.497  0.00  0.00    -0.024 C 
BRANCH  26  27
ATOM     27  N   UNL     1      12.524  -1.255   2.237  0.00  0.00    +0.387 N 
ATOM     28  C   UNL     1      12.894  -2.575   1.684  0.00  0.00    -0.078 C 
ATOM     29  C   UNL     1      14.287  -2.358   1.042  0.00  0.00    -0.020 C 
ATOM     30  C   UNL     1      14.943  -1.371   2.043  0.00  0.00    -0.015 C 
ATOM     31  C   UNL     1      13.758  -0.488   2.487  0.00  0.00    -0.042 C 
ATOM     32  H   UNL     1      11.945  -0.761   1.575  0.00  0.00    -0.081 HD
BRANCH  31  33
ATOM     33  C   UNL     1      13.739   0.807   1.673  0.00  0.00    +0.140 C 
BRANCH  33  34
ATOM     34  O   UNL     1      13.770   0.494   0.279  0.00  0.00    -0.397 OA
ATOM     35  H   UNL     1      13.760   1.269  -0.299  0.00  0.00    +0.209 HD
ENDBRANCH  33  34
ENDBRANCH  31  33
ENDBRANCH  26  27
ENDBRANCH   4  26
TORSDOF 8
