REMARK  Name = ZINC35100604
REMARK  12 active torsions:
REMARK  status: ('A' for Active; 'I' for Inactive)
REMARK    1  A    between atoms: C_1  and  C_2
REMARK    2  A    between atoms: C_2  and  C_41
REMARK    3  A    between atoms: C_7  and  C_11
REMARK    4  A    between atoms: C_11  and  N_12
REMARK    5  A    between atoms: N_12  and  C_13
REMARK    6  A    between atoms: C_13  and  C_14
REMARK    7  A    between atoms: C_14  and  N_15
REMARK    8  A    between atoms: N_23  and  C_24
REMARK    9  A    between atoms: C_27  and  O_30
REMARK   10  A    between atoms: O_30  and  C_31
REMARK   11  A    between atoms: C_32  and  C_34
REMARK   12  A    between atoms: C_34  and  C_35
REMARK                            x       y       z     vdW  Elec       q    Type
REMARK                         _______ _______ _______ _____ _____    ______ ____
ROOT
ATOM      1  N   UNL     1       2.900  -1.894   2.779  0.00  0.00    -0.296 N 
ATOM      2  C   UNL     1       3.115  -3.148   2.333  0.00  0.00    +0.220 C 
ATOM      3  O   UNL     1       3.639  -3.967   3.058  0.00  0.00    -0.275 OA
ENDROOT
BRANCH   1   4
ATOM      4  C   UNL     1       2.167  -0.937   1.946  0.00  0.00    +0.138 C 
BRANCH   4  10
ATOM      5  C   UNL     1       4.409   3.540   1.312  0.00  0.00    +0.012 C 
ATOM      6  C   UNL     1       3.906   2.225   0.713  0.00  0.00    -0.025 C 
ATOM      7  C   UNL     1       4.986   1.434  -0.053  0.00  0.00    -0.000 C 
ATOM      8  C   UNL     1       4.347   0.365  -0.950  0.00  0.00    +0.031 C 
ATOM      9  C   UNL     1       3.369  -0.456  -0.146  0.00  0.00    -0.025 C 
ATOM     10  C   UNL     1       3.142  -0.148   1.111  0.00  0.00    -0.053 C 
ATOM     11  C   UNL     1       3.916   1.045   1.701  0.00  0.00    +0.022 C 
ATOM     12  C   UNL     1       5.412   0.905   1.327  0.00  0.00    +0.012 C 
ATOM     13  C   UNL     1       2.590   2.381  -0.052  0.00  0.00    +0.012 C 
ENDBRANCH   4  10
ENDBRANCH   1   4
BRANCH   1  14
ATOM     14  C   UNL     1       3.400  -1.488   4.095  0.00  0.00    +0.123 C 
BRANCH  14  15
ATOM     15  C   UNL     1       2.334  -1.773   5.155  0.00  0.00    +0.103 C 
BRANCH  15  16
ATOM     16  N   UNL     1       2.835  -1.366   6.474  0.00  0.00    -0.298 NA
ATOM     17  C   UNL     1       3.023   0.089   6.540  0.00  0.00    +0.103 C 
ATOM     18  C   UNL     1       3.713   0.453   7.859  0.00  0.00    +0.124 C 
ATOM     19  N   UNL     1       2.936  -0.124   8.967  0.00  0.00    -0.283 N 
ATOM     20  C   UNL     1       2.590  -1.552   8.904  0.00  0.00    +0.124 C 
ATOM     21  C   UNL     1       1.944  -1.837   7.543  0.00  0.00    +0.103 C 
ATOM     22  C   UNL     1       2.553   0.635  10.012  0.00  0.00    +0.307 C 
ATOM     23  O   UNL     1       2.923   1.790  10.092  0.00  0.00    -0.252 OA
ATOM     24  N   UNL     1       1.760   0.113  10.969  0.00  0.00    -0.269 N 
ATOM     25  H   UNL     1       1.520  -0.826  10.941  0.00  0.00    +0.156 HD
BRANCH  24  26
ATOM     26  C   UNL     1       1.283   0.928  12.005  0.00  0.00    +0.035 A 
ATOM     27  C   UNL     1       0.950   2.252  11.750  0.00  0.00    +0.027 A 
ATOM     28  C   UNL     1       0.479   3.054  12.771  0.00  0.00    +0.047 A 
ATOM     29  C   UNL     1       0.339   2.537  14.051  0.00  0.00    +0.120 A 
ATOM     30  C   UNL     1       0.672   1.215  14.306  0.00  0.00    +0.047 A 
ATOM     31  C   UNL     1       1.138   0.410  13.285  0.00  0.00    +0.027 A 
BRANCH  29  32
ATOM     32  O   UNL     1      -0.124   3.328  15.055  0.00  0.00    -0.495 OA
ATOM     33  C   UNL     1      -0.243   2.731  16.348  0.00  0.00    +0.277 C 
ENDBRANCH  29  32
ENDBRANCH  24  26
ENDBRANCH  15  16
ENDBRANCH  14  15
ENDBRANCH   1  14
BRANCH   2  34
ATOM     34  C   UNL     1       2.705  -3.532   0.935  0.00  0.00    +0.131 C 
BRANCH  34  35
ATOM     35  C   UNL     1       2.915  -5.011   0.738  0.00  0.00    -0.039 A 
ATOM     36  C   UNL     1       4.128  -5.480   0.269  0.00  0.00    +0.004 A 
ATOM     37  C   UNL     1       4.321  -6.837   0.088  0.00  0.00    +0.000 A 
ATOM     38  C   UNL     1       3.302  -7.725   0.377  0.00  0.00    +0.000 A 
ATOM     39  C   UNL     1       2.090  -7.256   0.848  0.00  0.00    +0.000 A 
ATOM     40  C   UNL     1       1.898  -5.899   1.033  0.00  0.00    +0.004 A 
ENDBRANCH  34  35
ENDBRANCH   2  34
TORSDOF 9
