REMARK  Name = ZINC08871595
REMARK  5 active torsions:
REMARK  status: ('A' for Active; 'I' for Inactive)
REMARK    1  A    between atoms: C_4  and  C_7
REMARK    2  A    between atoms: N_11  and  C_15
REMARK    3  A    between atoms: C_15  and  C_16
REMARK    4  A    between atoms: N_18  and  N_19
REMARK    5  A    between atoms: N_22  and  C_23
REMARK                            x       y       z     vdW  Elec       q    Type
REMARK                         _______ _______ _______ _____ _____    ______ ____
ROOT
ATOM      1  C   UNL     1      -2.918  -4.396   1.866  0.00  0.00    +0.247 C 
ATOM      2  O   UNL     1      -2.811  -3.537   2.715  0.00  0.00    -0.273 OA
ATOM      3  N   UNL     1      -3.167  -5.671   2.224  0.00  0.00    -0.232 N 
ATOM      4  H   UNL     1      -3.253  -6.358   1.545  0.00  0.00    +0.173 HD
ENDROOT
BRANCH   3   5
ATOM      5  N   UNL     1      -3.303  -6.004   3.579  0.00  0.00    -0.218 N 
ATOM      6  C   UNL     1      -3.552  -7.279   3.938  0.00  0.00    +0.320 C 
ATOM      7  O   UNL     1      -3.669  -7.568   5.113  0.00  0.00    -0.251 OA
ATOM      8  N   UNL     1      -3.671  -8.234   2.994  0.00  0.00    -0.267 N 
ATOM      9  H   UNL     1      -3.217  -5.317   4.258  0.00  0.00    +0.174 HD
ATOM     10  H   UNL     1      -3.510  -8.017   2.062  0.00  0.00    +0.156 HD
BRANCH   8  11
ATOM     11  C   UNL     1      -4.027  -9.537   3.358  0.00  0.00    +0.049 A 
ATOM     12  C   UNL     1      -4.647  -9.774   4.578  0.00  0.00    +0.024 A 
ATOM     13  C   UNL     1      -5.001 -11.061   4.933  0.00  0.00    +0.002 A 
ATOM     14  C   UNL     1      -4.730 -12.115   4.080  0.00  0.00    +0.001 A 
ATOM     15  C   UNL     1      -4.109 -11.884   2.866  0.00  0.00    +0.017 A 
ATOM     16  C   UNL     1      -3.756 -10.598   2.503  0.00  0.00    +0.039 A 
ATOM     17 BR   UNL     1      -2.905 -10.283   0.844  0.00  0.00    -0.048 Br
ENDBRANCH   8  11
ENDBRANCH   3   5
BRANCH   1  18
ATOM     18  C   UNL     1      -2.772  -4.038   0.409  0.00  0.00    +0.212 C 
BRANCH  18  23
ATOM     19  C   UNL     1       0.094   0.002   0.136  0.00  0.00    +0.028 C 
ATOM     20  C   UNL     1      -1.057  -0.715   0.159  0.00  0.00    +0.077 C 
ATOM     21  C   UNL     1      -1.257  -2.174   0.291  0.00  0.00    +0.259 C 
ATOM     22  O   UNL     1      -0.318  -2.940   0.401  0.00  0.00    -0.269 OA
ATOM     23  N   UNL     1      -2.507  -2.603   0.283  0.00  0.00    -0.246 N 
ATOM     24  C   UNL     1      -3.545  -1.750   0.161  0.00  0.00    +0.121 C 
ATOM     25  S   UNL     1      -5.218  -2.109   0.131  0.00  0.00    -0.027 S 
ATOM     26  S   UNL     1      -2.751  -0.154   0.048  0.00  0.00    -0.061 S 
BRANCH  19  30
ATOM     27  C   UNL     1      -0.005   4.144  -0.768  0.00  0.00    +0.000 A 
ATOM     28  C   UNL     1       1.129   3.590  -0.199  0.00  0.00    +0.001 A 
ATOM     29  C   UNL     1       1.169   2.245   0.098  0.00  0.00    +0.008 A 
ATOM     30  C   UNL     1       0.060   1.438  -0.178  0.00  0.00    -0.024 A 
ATOM     31  C   UNL     1      -1.081   2.004  -0.758  0.00  0.00    +0.008 A 
ATOM     32  C   UNL     1      -1.107   3.353  -1.044  0.00  0.00    +0.001 A 
ENDBRANCH  19  30
ENDBRANCH  18  23
ENDBRANCH   1  18
TORSDOF 5
