REMARK  Name = ZINC08791540
REMARK  6 active torsions:
REMARK  status: ('A' for Active; 'I' for Inactive)
REMARK    1  A    between atoms: C_1  and  C_2
REMARK    2  A    between atoms: C_2  and  C_3
REMARK    3  A    between atoms: C_3  and  C_4
REMARK    4  A    between atoms: C_4  and  N_5
REMARK    5  A    between atoms: C_10  and  C_27
REMARK    6  A    between atoms: C_27  and  C_28
REMARK                            x       y       z     vdW  Elec       q    Type
REMARK                         _______ _______ _______ _____ _____    ______ ____
ROOT
ATOM      1  N   UNL     1      -5.245   1.361  -2.936  0.00  0.00    -0.242 N 
ATOM      2  C   UNL     1      -4.687   1.228  -1.727  0.00  0.00    +0.224 C 
ATOM      3  O   UNL     1      -4.358   2.143  -1.003  0.00  0.00    -0.275 OA
ATOM      4  C   UNL     1      -4.528  -0.241  -1.406  0.00  0.00    +0.073 C 
ATOM      5  C   UNL     1      -3.026  -0.600  -1.408  0.00  0.00    -0.053 C 
ATOM      6  C   UNL     1      -3.915  -1.698  -3.269  0.00  0.00    +0.050 C 
ATOM      7  C   UNL     1      -5.111  -0.962  -2.654  0.00  0.00    +0.088 C 
ATOM      8  C   UNL     1      -5.521   0.205  -3.550  0.00  0.00    +0.225 C 
ATOM      9  O   UNL     1      -6.025   0.099  -4.648  0.00  0.00    -0.275 OA
ATOM     10  C   UNL     1      -4.323  -3.019  -3.856  0.00  0.00    -0.026 A 
ATOM     11  C   UNL     1      -4.913  -4.148  -3.332  0.00  0.00    +0.004 A 
ATOM     12  C   UNL     1      -5.170  -5.237  -4.146  0.00  0.00    +0.002 A 
ATOM     13  C   UNL     1      -4.832  -5.190  -5.486  0.00  0.00    +0.022 A 
ATOM     14  C   UNL     1      -4.240  -4.061  -6.016  0.00  0.00    +0.062 A 
ATOM     15  C   UNL     1      -3.978  -2.960  -5.203  0.00  0.00    +0.054 A 
ATOM     16  N   UNL     1      -3.397  -1.724  -5.499  0.00  0.00    -0.285 N 
ATOM     17  C   UNL     1      -3.325  -0.925  -4.417  0.00  0.00    +0.211 C 
ATOM     18  O   UNL     1      -2.871   0.199  -4.376  0.00  0.00    -0.277 OA
ATOM     19 CL   UNL     1      -3.821  -4.013  -7.700  0.00  0.00    -0.082 Cl
ATOM     20  H   UNL     1      -3.083  -1.471  -6.381  0.00  0.00    +0.155 HD
ATOM     21  N   UNL     1      -2.960  -1.841  -2.184  0.00  0.00    +0.394 N 
ATOM     22  H   UNL     1      -3.211  -2.642  -1.593  0.00  0.00    -0.083 HD
ATOM     23  H   UNL     1      -2.014  -1.975  -2.559  0.00  0.00    -0.083 HD
ENDROOT
BRANCH   1  24
ATOM     24  C   UNL     1      -5.530   2.666  -3.537  0.00  0.00    +0.116 C 
BRANCH  24  25
ATOM     25  C   UNL     1      -4.320   3.128  -4.351  0.00  0.00    +0.019 C 
BRANCH  25  27
ATOM     26  C   UNL     1      -3.408   4.954  -5.793  0.00  0.00    +0.004 C 
ATOM     27  C   UNL     1      -4.619   4.491  -4.979  0.00  0.00    -0.002 C 
ENDBRANCH  25  27
ENDBRANCH  24  25
ENDBRANCH   1  24
BRANCH   5  28
ATOM     28  C   UNL     1      -2.527  -0.809   0.023  0.00  0.00    +0.022 C 
BRANCH  28  29
ATOM     29  C   UNL     1      -1.037  -1.036   0.007  0.00  0.00    -0.024 A 
ATOM     30  C   UNL     1      -0.411  -2.224  -0.005  0.00  0.00    +0.087 A 
ATOM     31  N   UNL     1       0.945  -2.036  -0.017  0.00  0.00    -0.360 N 
ATOM     32  H   UNL     1       1.605  -2.746  -0.028  0.00  0.00    +0.165 HD
ATOM     33  C   UNL     1       1.231  -0.689  -0.013  0.00  0.00    +0.047 A 
ATOM     34  C   UNL     1       0.002  -0.004   0.002  0.00  0.00    +0.003 A 
ATOM     35  C   UNL     1      -0.017   1.392   0.010  0.00  0.00    +0.010 A 
ATOM     36  C   UNL     1       1.160   2.086   0.002  0.00  0.00    +0.001 A 
ATOM     37  C   UNL     1       2.375   1.415  -0.014  0.00  0.00    +0.002 A 
ATOM     38  C   UNL     1       2.417   0.038  -0.021  0.00  0.00    +0.026 A 
ENDBRANCH  28  29
ENDBRANCH   5  28
TORSDOF 5
