REMARK  Name = ZINC65137856
REMARK  11 active torsions:
REMARK  status: ('A' for Active; 'I' for Inactive)
REMARK    1  A    between atoms: C_1  and  C_2
REMARK    2  A    between atoms: C_3  and  C_31
REMARK    3  A    between atoms: C_6  and  C_8
REMARK    4  A    between atoms: C_11  and  S_15
REMARK    5  A    between atoms: C_12  and  C_14
REMARK    6  A    between atoms: S_15  and  N_18
REMARK    7  A    between atoms: N_18  and  C_19
REMARK    8  A    between atoms: C_19  and  C_20
REMARK    9  A    between atoms: C_20  and  C_21
REMARK   10  A    between atoms: C_24  and  S_27
REMARK   11  A    between atoms: S_27  and  N_30
REMARK                            x       y       z     vdW  Elec       q    Type
REMARK                         _______ _______ _______ _____ _____    ______ ____
ROOT
ATOM      1  S   UNL     1      -0.217  -1.302   6.174  0.00  0.00    +0.055 S 
ATOM      2  O   UNL     1      -0.036  -0.161   7.001  0.00  0.00    -0.153 OA
ATOM      3  O   UNL     1      -1.121  -2.347   6.504  0.00  0.00    -0.153 OA
ENDROOT
BRANCH   1   6
ATOM      4  C   UNL     1      -1.058   1.143   2.930  0.00  0.00    +0.087 C 
ATOM      5  C   UNL     1      -0.183   0.612   4.096  0.00  0.00    +0.074 C 
ATOM      6  C   UNL     1      -0.698  -0.703   4.588  0.00  0.00    +0.093 C 
ATOM      7  C   UNL     1      -1.511  -1.413   3.832  0.00  0.00    +0.005 C 
ATOM      8  S   UNL     1      -1.754  -0.458   2.343  0.00  0.00    -0.122 S 
ATOM      9  C   UNL     1      -2.112  -2.756   4.157  0.00  0.00    +0.053 C 
BRANCH   4  15
ATOM     10  C   UNL     1      -3.937   1.626   1.430  0.00  0.00    +0.043 C 
ATOM     11  C   UNL     1      -3.069   2.502   2.296  0.00  0.00    -0.023 C 
ATOM     12  C   UNL     1      -2.927   3.828   2.245  0.00  0.00    +0.061 C 
ATOM     13  N   UNL     1      -2.057   4.255   3.186  0.00  0.00    -0.159 NA
ATOM     14  N   UNL     1      -1.580   3.359   3.887  0.00  0.00    -0.178 NA
ATOM     15  C   UNL     1      -2.156   2.081   3.435  0.00  0.00    +0.169 C 
ATOM     16  C   UNL     1      -3.641   4.728   1.268  0.00  0.00    +0.067 C 
ENDBRANCH   4  15
ENDBRANCH   1   6
BRANCH   1  17
ATOM     17  N   UNL     1       1.274  -2.002   6.002  0.00  0.00    -0.190 NA
ATOM     18  H   UNL     1       1.381  -2.955   6.145  0.00  0.00    +0.148 HD
BRANCH  17  19
ATOM     19  C   UNL     1       2.430  -1.182   5.632  0.00  0.00    +0.110 C 
BRANCH  19  20
ATOM     20  C   UNL     1       3.717  -1.965   5.901  0.00  0.00    +0.052 C 
BRANCH  20  21
ATOM     21  C   UNL     1       4.907  -1.122   5.521  0.00  0.00    -0.046 A 
ATOM     22  C   UNL     1       5.409  -1.176   4.234  0.00  0.00    +0.005 A 
ATOM     23  C   UNL     1       6.501  -0.402   3.886  0.00  0.00    +0.029 A 
ATOM     24  C   UNL     1       7.089   0.426   4.824  0.00  0.00    +0.105 A 
ATOM     25  C   UNL     1       6.585   0.480   6.110  0.00  0.00    +0.029 A 
ATOM     26  C   UNL     1       5.492  -0.290   6.457  0.00  0.00    +0.005 A 
BRANCH  24  27
ATOM     27  S   UNL     1       8.481   1.411   4.380  0.00  0.00    +0.056 S 
ATOM     28  O   UNL     1       9.183   1.688   5.584  0.00  0.00    -0.153 OA
ATOM     29  O   UNL     1       9.095   0.770   3.270  0.00  0.00    -0.153 OA
BRANCH  27  30
ATOM     30  N   UNL     1       7.899   2.860   3.827  0.00  0.00    -0.204 NA
ATOM     31  H   UNL     1       6.942   3.020   3.800  0.00  0.00    +0.144 HD
ATOM     32  H   UNL     1       8.514   3.548   3.531  0.00  0.00    +0.144 HD
ENDBRANCH  27  30
ENDBRANCH  24  27
ENDBRANCH  20  21
ENDBRANCH  19  20
ENDBRANCH  17  19
ENDBRANCH   1  17
TORSDOF 8
