REMARK  Name = ZINC05369456
REMARK  7 active torsions:
REMARK  status: ('A' for Active; 'I' for Inactive)
REMARK    1  A    between atoms: C_1  and  C_2
REMARK    2  A    between atoms: C_2  and  C_3
REMARK    3  A    between atoms: C_6  and  C_9
REMARK    4  A    between atoms: C_18  and  C_20
REMARK    5  A    between atoms: N_21  and  C_22
REMARK    6  A    between atoms: C_26  and  C_29
REMARK    7  A    between atoms: C_27  and  C_28
REMARK                            x       y       z     vdW  Elec       q    Type
REMARK                         _______ _______ _______ _____ _____    ______ ____
ROOT
ATOM      1  C   UNL     1      -2.549   3.118   4.448  0.00  0.00    +0.220 C 
ATOM      2  C   UNL     1      -4.351   3.650   2.951  0.00  0.00    +0.166 C 
ATOM      3  N   UNL     1      -3.765   2.743   2.073  0.00  0.00    -0.259 N 
ATOM      4  C   UNL     1      -2.384   2.722   2.051  0.00  0.00    +0.207 A 
ATOM      5  N   UNL     1      -1.741   2.937   3.238  0.00  0.00    -0.255 N 
ATOM      6  C   UNL     1      -0.397   2.970   3.277  0.00  0.00    +0.257 A 
ATOM      7  O   UNL     1       0.192   3.184   4.324  0.00  0.00    -0.267 OA
ATOM      8  C   UNL     1       0.314   2.752   2.081  0.00  0.00    +0.093 A 
ATOM      9  C   UNL     1      -0.382   2.524   0.930  0.00  0.00    +0.047 A 
ATOM     10  N   UNL     1      -1.716   2.520   0.941  0.00  0.00    -0.221 NA
ATOM     11  C   UNL     1       0.358   2.281  -0.360  0.00  0.00    +0.066 C 
ATOM     12  N   UNL     1      -5.511   4.308   2.615  0.00  0.00    -0.288 N 
ATOM     13  H   UNL     1      -4.296   2.159   1.509  0.00  0.00    +0.158 HD
ATOM     14  H   UNL     1      -5.984   4.074   1.802  0.00  0.00    +0.155 HD
ATOM     15  N   UNL     1      -3.796   3.906   4.146  0.00  0.00    -0.336 N 
ATOM     16  H   UNL     1      -4.193   4.587   4.805  0.00  0.00    +0.164 HD
ENDROOT
BRANCH  12  17
ATOM     17  C   UNL     1      -6.010   5.316   3.448  0.00  0.00    +0.036 A 
ATOM     18  C   UNL     1      -5.150   6.013   4.287  0.00  0.00    +0.023 A 
ATOM     19  C   UNL     1      -5.644   7.011   5.104  0.00  0.00    +0.002 A 
ATOM     20  C   UNL     1      -6.995   7.309   5.095  0.00  0.00    +0.004 A 
ATOM     21  C   UNL     1      -7.854   6.612   4.266  0.00  0.00    -0.046 A 
ATOM     22  C   UNL     1      -7.365   5.617   3.442  0.00  0.00    -0.026 A 
ATOM     23  C   UNL     1      -8.302   4.858   2.538  0.00  0.00    +0.046 C 
ATOM     24  C   UNL     1      -9.325   6.939   4.259  0.00  0.00    +0.044 C 
ENDBRANCH  12  17
BRANCH   1  28
ATOM     25  C   UNL     1      -3.601  -0.700   6.048  0.00  0.00    -0.048 A 
ATOM     26  C   UNL     1      -4.444   0.381   6.227  0.00  0.00    +0.004 A 
ATOM     27  C   UNL     1      -4.103   1.617   5.710  0.00  0.00    +0.008 A 
ATOM     28  C   UNL     1      -2.920   1.771   5.012  0.00  0.00    -0.005 A 
ATOM     29  C   UNL     1      -2.079   0.689   4.828  0.00  0.00    +0.008 A 
ATOM     30  C   UNL     1      -2.418  -0.545   5.350  0.00  0.00    +0.004 A 
BRANCH  25  32
ATOM     31  C   UNL     1      -4.779  -2.830   5.575  0.00  0.00    +0.009 C 
ATOM     32  C   UNL     1      -3.972  -2.047   6.612  0.00  0.00    +0.032 C 
ENDBRANCH  25  32
ENDBRANCH   1  28
TORSDOF 3
