REMARK  Name = ZINC40797569
REMARK  9 active torsions:
REMARK  status: ('A' for Active; 'I' for Inactive)
REMARK    1  A    between atoms: C_1  and  C_2
REMARK    2  A    between atoms: C_2  and  O_3
REMARK    3  A    between atoms: O_3  and  C_4
REMARK    4  A    between atoms: C_4  and  C_6
REMARK    5  A    between atoms: C_7  and  C_27
REMARK    6  A    between atoms: C_10  and  N_11
REMARK    7  A    between atoms: C_12  and  C_14
REMARK    8  A    between atoms: C_14  and  C_26
REMARK    9  A    between atoms: C_20  and  C_25
REMARK                            x       y       z     vdW  Elec       q    Type
REMARK                         _______ _______ _______ _____ _____    ______ ____
ROOT
ATOM      1  N   UNL     1       3.744  -2.428   1.400  0.00  0.00    -0.276 N 
ATOM      2  C   UNL     1       5.047  -2.739   1.552  0.00  0.00    +0.270 C 
ATOM      3  O   UNL     1       5.442  -3.197   2.603  0.00  0.00    -0.271 OA
ATOM      4  H   UNL     1       3.428  -2.061   0.559  0.00  0.00    +0.155 HD
ENDROOT
BRANCH   2   5
ATOM      5  C   UNL     1       6.012  -2.518   0.415  0.00  0.00    +0.258 C 
ATOM      6  C   UNL     1       7.405  -2.347   0.966  0.00  0.00    +0.270 C 
ATOM      7  O   UNL     1       7.708  -2.855   2.025  0.00  0.00    -0.271 OA
ATOM      8  N   UNL     1       8.313  -1.625   0.276  0.00  0.00    -0.279 N 
ATOM      9  C   UNL     1       7.909  -0.942  -0.879  0.00  0.00    +0.076 A 
ATOM     10  C   UNL     1       8.848  -0.384  -1.732  0.00  0.00    +0.030 A 
ATOM     11  C   UNL     1       8.434   0.276  -2.874  0.00  0.00    -0.048 A 
ATOM     12  C   UNL     1       7.086   0.380  -3.167  0.00  0.00    +0.007 A 
ATOM     13  C   UNL     1       6.144  -0.171  -2.317  0.00  0.00    +0.048 A 
ATOM     14  C   UNL     1       6.551  -0.828  -1.169  0.00  0.00    +0.144 A 
ATOM     15  O   UNL     1       5.633  -1.346  -0.309  0.00  0.00    -0.465 OA
ATOM     16  C   UNL     1       9.453   0.884  -3.802  0.00  0.00    +0.044 C 
ATOM     17  C   UNL     1       5.981  -3.728  -0.521  0.00  0.00    +0.076 C 
ATOM     18  H   UNL     1       9.234  -1.580   0.577  0.00  0.00    +0.155 HD
ENDBRANCH   2   5
BRANCH   1  23
ATOM     19  C   UNL     1       1.496  -2.370   2.465  0.00  0.00    +0.096 A 
ATOM     20  C   UNL     1       0.793  -2.684   3.698  0.00  0.00    +0.012 A 
ATOM     21  C   UNL     1       1.565  -3.195   4.694  0.00  0.00    +0.057 A 
ATOM     22  S   UNL     1       3.189  -3.244   3.970  0.00  0.00    -0.080 S 
ATOM     23  C   UNL     1       2.857  -2.631   2.445  0.00  0.00    +0.087 A 
BRANCH  20  24
ATOM     24  C   UNL     1      -0.659  -2.462   3.858  0.00  0.00    +0.021 A 
ATOM     25  C   UNL     1      -1.618  -3.323   4.322  0.00  0.00    +0.016 A 
ATOM     26  C   UNL     1      -2.925  -2.888   4.383  0.00  0.00    +0.008 A 
ATOM     27  C   UNL     1      -3.221  -1.626   3.983  0.00  0.00    +0.046 A 
ATOM     28  S   UNL     1      -1.619  -0.999   3.505  0.00  0.00    -0.097 S 
ENDBRANCH  20  24
BRANCH  19  29
ATOM     29  C   UNL     1       0.801  -1.814   1.305  0.00  0.00    +0.342 C 
ATOM     30  O   UNL     1       0.321  -2.558   0.470  0.00  0.00    -0.245 OA
BRANCH  29  31
ATOM     31  O   UNL     1       0.693  -0.477   1.160  0.00  0.00    -0.461 OA
BRANCH  31  33
ATOM     32  C   UNL     1      -0.019   1.526   0.010  0.00  0.00    +0.048 C 
ATOM     33  C   UNL     1       0.002  -0.004   0.002  0.00  0.00    +0.229 C 
ENDBRANCH  31  33
ENDBRANCH  29  31
ENDBRANCH  19  29
ENDBRANCH   1  23
TORSDOF 6
