REMARK  Name = ZINC09158867
REMARK  8 active torsions:
REMARK  status: ('A' for Active; 'I' for Inactive)
REMARK    1  A    between atoms: C_1  and  C_2
REMARK    2  A    between atoms: C_9  and  N_22
REMARK    3  A    between atoms: C_10  and  C_11
REMARK    4  A    between atoms: N_13  and  C_14
REMARK    5  A    between atoms: C_23  and  C_25
REMARK    6  A    between atoms: C_25  and  C_27
REMARK    7  A    between atoms: C_25  and  O_28
REMARK    8  A    between atoms: O_28  and  C_29
REMARK                            x       y       z     vdW  Elec       q    Type
REMARK                         _______ _______ _______ _____ _____    ______ ____
ROOT
ATOM      1  C   UNL     1      -5.966   6.020   3.276  0.00  0.00    +0.008 C 
ATOM      2  C   UNL     1      -5.181   4.715   3.130  0.00  0.00    -0.009 C 
ATOM      3  C   UNL     1      -4.160   4.855   1.998  0.00  0.00    +0.008 C 
ATOM      4  C   UNL     1      -3.545   3.491   1.680  0.00  0.00    +0.037 C 
ATOM      5  C   UNL     1      -3.018   2.879   2.972  0.00  0.00    -0.023 A 
ATOM      6  C   UNL     1      -3.446   3.321   4.176  0.00  0.00    -0.004 A 
ATOM      7  S   UNL     1      -2.579   2.325   5.356  0.00  0.00    -0.077 S 
ATOM      8  C   UNL     1      -1.668   1.331   4.269  0.00  0.00    +0.085 A 
ATOM      9  C   UNL     1      -2.055   1.792   3.018  0.00  0.00    +0.069 A 
ATOM     10  C   UNL     1      -4.433   4.416   4.437  0.00  0.00    +0.046 C 
ENDROOT
BRANCH   9  11
ATOM     11  C   UNL     1      -1.508   1.209   1.790  0.00  0.00    +0.247 C 
ATOM     12  O   UNL     1      -2.066   0.264   1.263  0.00  0.00    -0.270 OA
ATOM     13  N   UNL     1      -0.387   1.719   1.243  0.00  0.00    -0.307 N 
ATOM     14  H   UNL     1       0.059   2.472   1.662  0.00  0.00    +0.149 HD
BRANCH  13  15
ATOM     15  C   UNL     1       0.160   1.136   0.015  0.00  0.00    +0.096 C 
ATOM     16  C   UNL     1      -0.534   1.769  -1.202  0.00  0.00    +0.046 C 
ATOM     17  C   UNL     1       0.268   1.376  -2.476  0.00  0.00    +0.168 C 
ATOM     18  S   UNL     1       1.994   1.551  -1.855  0.00  0.00    -0.029 S 
ATOM     19  O   UNL     1       2.457   2.864  -2.139  0.00  0.00    -0.174 OA
ATOM     20  O   UNL     1       2.756   0.431  -2.285  0.00  0.00    -0.174 OA
ATOM     21  C   UNL     1       1.683   1.405  -0.048  0.00  0.00    +0.188 C 
ENDBRANCH  13  15
ENDBRANCH   9  11
BRANCH   8  22
ATOM     22  N   UNL     1      -0.769   0.320   4.573  0.00  0.00    -0.276 N 
ATOM     23  C   UNL     1      -0.516   0.009   5.860  0.00  0.00    +0.258 C 
ATOM     24  O   UNL     1      -1.075   0.612   6.751  0.00  0.00    -0.271 OA
ATOM     25  H   UNL     1      -0.322  -0.163   3.861  0.00  0.00    +0.155 HD
BRANCH  23  26
ATOM     26  C   UNL     1       0.460  -1.090   6.191  0.00  0.00    +0.256 C 
ATOM     27  C   UNL     1       1.861  -0.684   5.729  0.00  0.00    +0.062 C 
BRANCH  26  28
ATOM     28  O   UNL     1       0.470  -1.309   7.603  0.00  0.00    -0.477 OA
BRANCH  28  29
ATOM     29  C   UNL     1       0.857  -2.539   8.035  0.00  0.00    +0.157 A 
ATOM     30  C   UNL     1       1.326  -3.478   7.128  0.00  0.00    +0.048 A 
ATOM     31  C   UNL     1       1.718  -4.727   7.568  0.00  0.00    +0.004 A 
ATOM     32  C   UNL     1       1.645  -5.043   8.912  0.00  0.00    +0.003 A 
ATOM     33  C   UNL     1       1.178  -4.110   9.820  0.00  0.00    +0.042 A 
ATOM     34  C   UNL     1       0.788  -2.857   9.385  0.00  0.00    +0.165 A 
ATOM     35  F   UNL     1       0.336  -1.943  10.273  0.00  0.00    -0.202 F 
ENDBRANCH  28  29
ENDBRANCH  26  28
ENDBRANCH  23  26
ENDBRANCH   8  22
TORSDOF 6
