REMARK  Name = ZINC36543534
REMARK  11 active torsions:
REMARK  status: ('A' for Active; 'I' for Inactive)
REMARK    1  A    between atoms: C_1  and  C_2
REMARK    2  A    between atoms: C_2  and  C_3
REMARK    3  A    between atoms: C_3  and  C_4
REMARK    4  A    between atoms: C_4  and  N_5
REMARK    5  A    between atoms: C_6  and  C_8
REMARK    6  A    between atoms: C_8  and  C_10
REMARK    7  A    between atoms: C_8  and  N_20
REMARK    8  A    between atoms: C_12  and  N_17
REMARK    9  A    between atoms: N_20  and  C_21
REMARK   10  A    between atoms: C_28  and  C_30
REMARK   11  A    between atoms: C_35  and  O_36
REMARK                            x       y       z     vdW  Elec       q    Type
REMARK                         _______ _______ _______ _____ _____    ______ ____
ROOT
ATOM      1  C   UNL     1      -4.956  -4.591  -0.097  0.00  0.00    +0.199 C 
ENDROOT
BRANCH   1   2
ATOM      2  C   UNL     1      -5.678  -4.592  -1.419  0.00  0.00    +0.003 A 
ATOM      3  C   UNL     1      -5.564  -5.676  -2.269  0.00  0.00    +0.040 A 
ATOM      4  C   UNL     1      -6.226  -5.677  -3.482  0.00  0.00    +0.127 A 
ATOM      5  C   UNL     1      -7.002  -4.593  -3.847  0.00  0.00    +0.034 A 
ATOM      6  C   UNL     1      -7.118  -3.509  -2.999  0.00  0.00    +0.022 A 
ATOM      7  C   UNL     1      -6.460  -3.510  -1.781  0.00  0.00    +0.047 A 
ATOM      8 CL   UNL     1      -6.611  -2.151  -0.712  0.00  0.00    -0.083 Cl
BRANCH   4   9
ATOM      9  N   UNL     1      -6.102  -6.838  -4.391  0.00  0.00    +0.056 N 
ATOM     10  O   UNL     1      -5.423  -7.786  -4.072  0.00  0.00    -0.126 OA
ATOM     11  O   UNL     1      -6.681  -6.839  -5.453  0.00  0.00    -0.126 OA
ENDBRANCH   4   9
ENDBRANCH   1   2
BRANCH   1  13
ATOM     12  N   UNL     1      -3.566  -2.662  -0.779  0.00  0.00    -0.313 N 
ATOM     13  C   UNL     1      -3.626  -3.901  -0.251  0.00  0.00    +0.239 C 
ATOM     14  O   UNL     1      -2.608  -4.460   0.099  0.00  0.00    -0.273 OA
ATOM     15  H   UNL     1      -4.370  -2.243  -1.125  0.00  0.00    +0.149 HD
BRANCH  12  16
ATOM     16  C   UNL     1      -2.288  -1.948  -0.829  0.00  0.00    +0.104 C 
BRANCH  16  17
ATOM     17  C   UNL     1      -2.496  -0.574  -1.470  0.00  0.00    +0.018 C 
BRANCH  17  19
ATOM     18  C   UNL     1      -1.369   1.545  -2.164  0.00  0.00    +0.004 C 
ATOM     19  C   UNL     1      -1.161   0.171  -1.523  0.00  0.00    -0.002 C 
ENDBRANCH  17  19
ENDBRANCH  16  17
ENDBRANCH  12  16
ENDBRANCH   1  13
BRANCH   1  20
ATOM     20  N   UNL     1      -4.742  -5.972   0.344  0.00  0.00    -0.250 N 
ATOM     21  C   UNL     1      -3.893  -6.771  -0.333  0.00  0.00    +0.255 C 
ATOM     22  O   UNL     1      -3.229  -6.318  -1.245  0.00  0.00    -0.269 OA
BRANCH  20  23
ATOM     23  C   UNL     1      -5.419  -6.461   1.467  0.00  0.00    +0.056 A 
ATOM     24  C   UNL     1      -6.720  -6.930   1.345  0.00  0.00    +0.025 A 
ATOM     25  C   UNL     1      -7.385  -7.413   2.455  0.00  0.00    +0.002 A 
ATOM     26  C   UNL     1      -6.757  -7.429   3.687  0.00  0.00    +0.002 A 
ATOM     27  C   UNL     1      -5.462  -6.962   3.813  0.00  0.00    +0.022 A 
ATOM     28  C   UNL     1      -4.788  -6.483   2.705  0.00  0.00    +0.062 A 
ATOM     29 CL   UNL     1      -3.159  -5.904   2.861  0.00  0.00    -0.082 Cl
ENDBRANCH  20  23
BRANCH  21  30
ATOM     30  C   UNL     1      -3.771  -8.194   0.034  0.00  0.00    +0.079 A 
ATOM     31  C   UNL     1      -4.915  -8.983   0.180  0.00  0.00    +0.017 A 
ATOM     32  C   UNL     1      -4.793 -10.312   0.522  0.00  0.00    +0.001 A 
ATOM     33  C   UNL     1      -3.541 -10.871   0.722  0.00  0.00    +0.004 A 
ATOM     34  C   UNL     1      -2.403 -10.103   0.580  0.00  0.00    +0.046 A 
ATOM     35  C   UNL     1      -2.506  -8.765   0.230  0.00  0.00    +0.129 A 
BRANCH  35  36
ATOM     36  O   UNL     1      -1.388  -8.011   0.085  0.00  0.00    -0.506 OA
ATOM     37  H   UNL     1      -1.099  -7.575   0.898  0.00  0.00    +0.292 HD
ENDBRANCH  35  36
ENDBRANCH  21  30
ENDBRANCH   1  20
TORSDOF 10
