REMARK  Name = ZINC51144774
REMARK  7 active torsions:
REMARK  status: ('A' for Active; 'I' for Inactive)
REMARK    1  A    between atoms: C_1  and  C_2
REMARK    2  A    between atoms: C_2  and  C_38
REMARK    3  A    between atoms: C_6  and  C_26
REMARK    4  A    between atoms: C_8  and  C_18
REMARK    5  A    between atoms: N_10  and  C_11
REMARK    6  A    between atoms: C_18  and  N_20
REMARK    7  A    between atoms: C_30  and  N_32
REMARK                            x       y       z     vdW  Elec       q    Type
REMARK                         _______ _______ _______ _____ _____    ______ ____
ROOT
ATOM      1  C   UNL     1       0.999   0.353  -2.268  0.00  0.00    +0.011 C 
ATOM      2  C   UNL     1       0.638  -1.005  -1.661  0.00  0.00    -0.023 C 
ATOM      3  C   UNL     1      -0.790  -0.962  -1.115  0.00  0.00    +0.058 C 
ATOM      4  C   UNL     1      -1.130  -2.291  -0.481  0.00  0.00    +0.025 C 
ATOM      5  C   UNL     1      -0.181  -3.035   0.120  0.00  0.00    +0.021 C 
ATOM      6  C   UNL     1      -0.496  -4.351   0.790  0.00  0.00    +0.073 C 
ATOM      7  C   UNL     1      -1.783  -4.951   0.223  0.00  0.00    +0.150 C 
ATOM      8  C   UNL     1      -2.813  -3.839   0.155  0.00  0.00    +0.090 C 
ATOM      9  N   UNL     1      -2.438  -2.711  -0.556  0.00  0.00    -0.262 N 
ATOM     10  N   UNL     1      -3.969  -3.938   0.725  0.00  0.00    -0.389 N 
ATOM     11  C   UNL     1       1.161  -2.608   0.145  0.00  0.00    +0.162 C 
ATOM     12  O   UNL     1       1.993  -3.298   0.701  0.00  0.00    -0.292 OA
ATOM     13  C   UNL     1       1.589  -1.320  -0.501  0.00  0.00    +0.086 C 
ATOM     14  C   UNL     1       0.750  -2.093  -2.731  0.00  0.00    +0.011 C 
ATOM     15  H   UNL     1      -4.230  -4.770   1.151  0.00  0.00    +0.157 HD
ATOM     16  H   UNL     1      -4.575  -3.181   0.728  0.00  0.00    +0.157 HD
ENDROOT
BRANCH   9  17
ATOM     17  C   UNL     1      -3.370  -2.014  -1.334  0.00  0.00    +0.039 A 
ATOM     18  C   UNL     1      -3.600  -2.394  -2.650  0.00  0.00    +0.024 A 
ATOM     19  C   UNL     1      -4.520  -1.705  -3.416  0.00  0.00    +0.002 A 
ATOM     20  C   UNL     1      -5.212  -0.638  -2.873  0.00  0.00    +0.000 A 
ATOM     21  C   UNL     1      -4.985  -0.257  -1.563  0.00  0.00    +0.002 A 
ATOM     22  C   UNL     1      -4.070  -0.946  -0.791  0.00  0.00    +0.024 A 
ENDBRANCH   9  17
BRANCH   6  23
ATOM     23  C   UNL     1      -0.665  -4.126   2.271  0.00  0.00    -0.037 A 
ATOM     24  C   UNL     1      -1.650  -3.273   2.733  0.00  0.00    +0.004 A 
ATOM     25  C   UNL     1      -1.805  -3.067   4.091  0.00  0.00    +0.003 A 
ATOM     26  C   UNL     1      -0.975  -3.715   4.987  0.00  0.00    +0.033 A 
ATOM     27  C   UNL     1       0.009  -4.568   4.525  0.00  0.00    +0.126 A 
ATOM     28  C   UNL     1       0.161  -4.777   3.167  0.00  0.00    +0.037 A 
BRANCH  27  29
ATOM     29  N   UNL     1       0.898  -5.261   5.485  0.00  0.00    +0.056 N 
ATOM     30  O   UNL     1       0.764  -5.080   6.673  0.00  0.00    -0.126 OA
ATOM     31  O   UNL     1       1.759  -6.007   5.081  0.00  0.00    -0.126 OA
ENDBRANCH  27  29
ENDBRANCH   6  23
BRANCH   7  32
ATOM     32  C   UNL     1      -1.528  -5.497  -1.159  0.00  0.00    +0.249 C 
ATOM     33  O   UNL     1      -0.418  -5.415  -1.649  0.00  0.00    -0.273 OA
BRANCH  32  34
ATOM     34  N   UNL     1      -2.514  -6.066  -1.840  0.00  0.00    -0.156 NA
ATOM     35  C   UNL     1      -2.288  -6.550  -3.063  0.00  0.00    +0.163 A 
ATOM     36  N   UNL     1      -1.125  -6.555  -3.768  0.00  0.00    -0.342 N 
ATOM     37  C   UNL     1      -1.113  -7.105  -5.012  0.00  0.00    +0.092 A 
ATOM     38  C   UNL     1      -2.264  -7.612  -5.469  0.00  0.00    +0.066 A 
ATOM     39  S   UNL     1      -3.370  -7.306  -4.104  0.00  0.00    -0.061 S 
ATOM     40  H   UNL     1      -0.317  -6.173  -3.390  0.00  0.00    +0.167 HD
ENDBRANCH  32  34
ENDBRANCH   7  32
TORSDOF 5
