REMARK  Name = ZINC40545025
REMARK  7 active torsions:
REMARK  status: ('A' for Active; 'I' for Inactive)
REMARK    1  A    between atoms: C_9  and  N_12
REMARK    2  A    between atoms: N_15  and  C_16
REMARK    3  A    between atoms: C_16  and  C_17
REMARK    4  A    between atoms: C_17  and  C_18
REMARK    5  A    between atoms: C_18  and  C_19
REMARK    6  A    between atoms: C_19  and  N_20
REMARK    7  A    between atoms: N_23  and  C_24
REMARK                            x       y       z     vdW  Elec       q    Type
REMARK                         _______ _______ _______ _____ _____    ______ ____
ROOT
ATOM      1  C   UNL     1       9.271  -4.218   1.371  0.00  0.00    +0.020 C 
ENDROOT
BRANCH   1   2
ATOM      2  C   UNL     1       8.066  -3.416   1.865  0.00  0.00    +0.106 C 
BRANCH   2   6
ATOM      3  N   UNL     1       4.872  -2.834   0.139  0.00  0.00    -0.296 N 
ATOM      4  C   UNL     1       5.845  -2.805   1.071  0.00  0.00    +0.300 C 
ATOM      5  O   UNL     1       5.673  -2.197   2.111  0.00  0.00    -0.253 OA
ATOM      6  N   UNL     1       7.008  -3.448   0.852  0.00  0.00    -0.299 N 
ATOM      7  H   UNL     1       5.010  -3.319  -0.690  0.00  0.00    +0.151 HD
ATOM      8  H   UNL     1       7.146  -3.932   0.023  0.00  0.00    +0.150 HD
BRANCH   3  17
ATOM      9  C   UNL     1      -0.017   1.375   0.010  0.00  0.00    +0.000 A 
ATOM     10  C   UNL     1       1.174   2.078   0.002  0.00  0.00    +0.000 A 
ATOM     11  C   UNL     1       2.372   1.395  -0.016  0.00  0.00    +0.004 A 
ATOM     12  C   UNL     1       2.393   0.006  -0.025  0.00  0.00    -0.042 A 
ATOM     13  C   UNL     1       1.208  -0.694  -0.012  0.00  0.00    -0.044 A 
ATOM     14  C   UNL     1       0.002  -0.004   0.002  0.00  0.00    +0.004 A 
ATOM     15  C   UNL     1       1.155  -2.199  -0.004  0.00  0.00    +0.037 C 
ATOM     16  C   UNL     1       2.493  -2.786  -0.450  0.00  0.00    +0.027 C 
ATOM     17  C   UNL     1       3.607  -2.135   0.378  0.00  0.00    +0.079 C 
ATOM     18  C   UNL     1       3.736  -0.675  -0.052  0.00  0.00    +0.057 C 
ENDBRANCH   3  17
ENDBRANCH   2   6
ENDBRANCH   1   2
BRANCH   1  19
ATOM     19  C   UNL     1      10.376  -4.184   2.429  0.00  0.00    +0.020 C 
BRANCH  19  20
ATOM     20  C   UNL     1      11.581  -4.987   1.934  0.00  0.00    +0.106 C 
BRANCH  20  21
ATOM     21  N   UNL     1      12.638  -4.955   2.948  0.00  0.00    -0.299 N 
ATOM     22  C   UNL     1      13.802  -5.598   2.728  0.00  0.00    +0.300 C 
ATOM     23  O   UNL     1      13.974  -6.205   1.689  0.00  0.00    -0.253 OA
ATOM     24  N   UNL     1      14.774  -5.568   3.660  0.00  0.00    -0.296 N 
ATOM     25  H   UNL     1      12.501  -4.470   3.777  0.00  0.00    +0.150 HD
ATOM     26  H   UNL     1      14.637  -5.084   4.489  0.00  0.00    +0.151 HD
BRANCH  24  27
ATOM     27  C   UNL     1      16.040  -6.268   3.422  0.00  0.00    +0.079 C 
ATOM     28  C   UNL     1      16.700  -6.613   4.762  0.00  0.00    +0.027 C 
ATOM     29  C   UNL     1      17.881  -7.542   4.492  0.00  0.00    +0.037 C 
ATOM     30  C   UNL     1      18.779  -6.962   3.430  0.00  0.00    -0.044 A 
ATOM     31  C   UNL     1      20.070  -7.465   3.329  0.00  0.00    +0.004 A 
ATOM     32  C   UNL     1      20.938  -6.979   2.374  0.00  0.00    +0.000 A 
ATOM     33  C   UNL     1      20.521  -5.985   1.508  0.00  0.00    +0.000 A 
ATOM     34  C   UNL     1      19.240  -5.483   1.609  0.00  0.00    +0.004 A 
ATOM     35  C   UNL     1      18.365  -5.968   2.572  0.00  0.00    -0.042 A 
ATOM     36  C   UNL     1      16.987  -5.364   2.635  0.00  0.00    +0.057 C 
ENDBRANCH  24  27
ENDBRANCH  20  21
ENDBRANCH  19  20
ENDBRANCH   1  19
TORSDOF 7
