REMARK  Name = ZINC65074753
REMARK  7 active torsions:
REMARK  status: ('A' for Active; 'I' for Inactive)
REMARK    1  A    between atoms: C_1  and  C_2
REMARK    2  A    between atoms: C_5  and  C_31
REMARK    3  A    between atoms: C_6  and  S_8
REMARK    4  A    between atoms: S_8  and  N_11
REMARK    5  A    between atoms: N_22  and  C_23
REMARK    6  A    between atoms: C_23  and  C_24
REMARK    7  A    between atoms: C_29  and  C_30
REMARK                            x       y       z     vdW  Elec       q    Type
REMARK                         _______ _______ _______ _____ _____    ______ ____
ROOT
ATOM      1  N   UNL     1      -1.793  -4.004   2.347  0.00  0.00    -0.176 NA
ATOM      2  C   UNL     1      -3.023  -3.342   2.802  0.00  0.00    +0.111 C 
ATOM      3  C   UNL     1      -3.765  -4.283   3.756  0.00  0.00    +0.047 C 
ATOM      4  C   UNL     1      -3.998  -5.627   3.061  0.00  0.00    +0.075 C 
ATOM      5  C   UNL     1      -2.648  -6.260   2.712  0.00  0.00    +0.047 C 
ATOM      6  C   UNL     1      -1.893  -5.340   1.742  0.00  0.00    +0.111 C 
ATOM      7  C   UNL     1      -4.760  -6.541   3.978  0.00  0.00    +0.089 C 
ATOM      8  N   UNL     1      -6.007  -6.795   3.848  0.00  0.00    -0.374 N 
ATOM      9  C   UNL     1      -6.842  -6.239   2.788  0.00  0.00    +0.129 C 
ATOM     10  C   UNL     1      -6.149  -5.031   2.154  0.00  0.00    +0.102 C 
ATOM     11  N   UNL     1      -4.763  -5.407   1.825  0.00  0.00    -0.303 NA
ATOM     12  N   UNL     1      -4.082  -7.135   5.010  0.00  0.00    -0.329 N 
ATOM     13  H   UNL     1      -4.325  -4.705   1.248  0.00  0.00    +0.123 HD
ATOM     14  H   UNL     1      -3.136  -6.961   5.133  0.00  0.00    +0.147 HD
ATOM     15  H   UNL     1      -6.421  -7.393   4.490  0.00  0.00    +0.161 HD
ENDROOT
BRANCH   1  16
ATOM     16  S   UNL     1      -0.323  -3.257   2.505  0.00  0.00    +0.061 S 
ATOM     17  O   UNL     1       0.642  -4.288   2.663  0.00  0.00    -0.153 OA
ATOM     18  O   UNL     1      -0.495  -2.221   3.463  0.00  0.00    -0.153 OA
BRANCH  16  24
ATOM     19  C   UNL     1       2.585  -2.690  -1.800  0.00  0.00    +0.044 C 
ATOM     20  C   UNL     1       1.397  -2.252  -0.984  0.00  0.00    -0.049 A 
ATOM     21  C   UNL     1       0.582  -1.232  -1.441  0.00  0.00    +0.004 A 
ATOM     22  C   UNL     1      -0.508  -0.831  -0.692  0.00  0.00    +0.005 A 
ATOM     23  C   UNL     1      -0.784  -1.449   0.513  0.00  0.00    -0.024 A 
ATOM     24  C   UNL     1       0.029  -2.469   0.969  0.00  0.00    +0.109 A 
ATOM     25  C   UNL     1       1.117  -2.874   0.218  0.00  0.00    +0.032 A 
ATOM     26  C   UNL     1      -1.973  -1.011   1.329  0.00  0.00    +0.046 C 
ENDBRANCH  16  24
ENDBRANCH   1  16
BRANCH  12  27
ATOM     27  C   UNL     1      -4.787  -8.034   5.928  0.00  0.00    +0.138 C 
BRANCH  27  28
ATOM     28  C   UNL     1      -3.822  -8.550   6.965  0.00  0.00    -0.027 A 
ATOM     29  C   UNL     1      -3.270  -9.810   6.828  0.00  0.00    +0.005 A 
ATOM     30  C   UNL     1      -2.385 -10.284   7.779  0.00  0.00    +0.000 A 
ATOM     31  C   UNL     1      -2.052  -9.497   8.866  0.00  0.00    +0.000 A 
ATOM     32  C   UNL     1      -2.604  -8.237   9.002  0.00  0.00    +0.003 A 
ATOM     33  C   UNL     1      -3.486  -7.762   8.049  0.00  0.00    -0.046 A 
ATOM     34  C   UNL     1      -4.083  -6.386   8.195  0.00  0.00    +0.044 C 
ENDBRANCH  27  28
ENDBRANCH  12  27
TORSDOF 4
