REMARK  Name = ZINC23593275
REMARK  11 active torsions:
REMARK  status: ('A' for Active; 'I' for Inactive)
REMARK    1  A    between atoms: C_1  and  C_2
REMARK    2  A    between atoms: C_2  and  C_3
REMARK    3  A    between atoms: C_2  and  C_4
REMARK    4  A    between atoms: C_2  and  C_5
REMARK    5  A    between atoms: C_10  and  N_11
REMARK    6  A    between atoms: C_12  and  C_14
REMARK    7  A    between atoms: C_14  and  O_15
REMARK    8  A    between atoms: O_15  and  C_16
REMARK    9  A    between atoms: C_16  and  C_18
REMARK   10  A    between atoms: C_20  and  S_25
REMARK   11  A    between atoms: S_25  and  N_28
REMARK                            x       y       z     vdW  Elec       q    Type
REMARK                         _______ _______ _______ _____ _____    ______ ____
ROOT
ATOM      1  O   UNL     1       2.222   4.292   0.692  0.00  0.00    -0.452 OA
ENDROOT
BRANCH   1   2
ATOM      2  C   UNL     1       1.052   3.641   0.842  0.00  0.00    +0.341 C 
ATOM      3  O   UNL     1       0.010   4.263   0.873  0.00  0.00    -0.245 OA
BRANCH   2   4
ATOM      4  C   UNL     1       1.038   2.170   0.970  0.00  0.00    +0.075 A 
ATOM      5  C   UNL     1       2.235   1.451   0.936  0.00  0.00    +0.044 A 
ATOM      6  C   UNL     1       2.214   0.077   1.055  0.00  0.00    +0.106 A 
ATOM      7  C   UNL     1       1.011  -0.590   1.210  0.00  0.00    +0.029 A 
ATOM      8  C   UNL     1      -0.178   0.115   1.246  0.00  0.00    +0.018 A 
ATOM      9  C   UNL     1      -0.173   1.491   1.126  0.00  0.00    +0.032 A 
ATOM     10 BR   UNL     1      -1.801   2.452   1.167  0.00  0.00    -0.049 Br
BRANCH   6  11
ATOM     11  S   UNL     1       3.723  -0.832   1.012  0.00  0.00    +0.056 S 
ATOM     12  O   UNL     1       4.750   0.068   1.406  0.00  0.00    -0.153 OA
ATOM     13  O   UNL     1       3.480  -2.055   1.692  0.00  0.00    -0.153 OA
BRANCH  11  14
ATOM     14  N   UNL     1       4.015  -1.220  -0.572  0.00  0.00    -0.204 NA
ATOM     15  H   UNL     1       4.953  -1.790  -0.642  0.00  0.00    +0.144 HD
ATOM     16  H   UNL     1       4.102  -0.297  -1.165  0.00  0.00    +0.144 HD
ENDBRANCH  11  14
ENDBRANCH   6  11
ENDBRANCH   2   4
ENDBRANCH   1   2
BRANCH   1  17
ATOM     17  C   UNL     1       2.160   5.738   0.572  0.00  0.00    +0.328 C 
BRANCH  17  19
ATOM     18  N   UNL     1       3.743   7.617   0.283  0.00  0.00    -0.282 N 
ATOM     19  C   UNL     1       3.554   6.289   0.412  0.00  0.00    +0.255 C 
ATOM     20  O   UNL     1       4.506   5.537   0.400  0.00  0.00    -0.272 OA
ATOM     21  H   UNL     1       2.877   8.290   0.195  0.00  0.00    +0.155 HD
BRANCH  18  27
ATOM     22  C   UNL     1       5.237   9.514   0.241  0.00  0.00    -0.021 A 
ATOM     23  C   UNL     1       6.519  10.027   0.218  0.00  0.00    +0.006 A 
ATOM     24  C   UNL     1       7.607   9.174   0.216  0.00  0.00    +0.000 A 
ATOM     25  C   UNL     1       7.415   7.804   0.235  0.00  0.00    +0.002 A 
ATOM     26  C   UNL     1       6.136   7.285   0.263  0.00  0.00    +0.023 A 
ATOM     27  C   UNL     1       5.041   8.140   0.260  0.00  0.00    +0.037 A 
BRANCH  22  29
ATOM     28  C   UNL     1       4.542  11.895   0.258  0.00  0.00    +0.015 C 
ATOM     29  C   UNL     1       4.052  10.445   0.244  0.00  0.00    -0.011 C 
ATOM     30  C   UNL     1       3.209  10.203  -1.009  0.00  0.00    +0.015 C 
ATOM     31  C   UNL     1       3.201  10.183   1.489  0.00  0.00    +0.015 C 
ENDBRANCH  22  29
ENDBRANCH  18  27
ENDBRANCH  17  19
ENDBRANCH   1  17
TORSDOF 8
