REMARK  Name = ZINC23593141
REMARK  8 active torsions:
REMARK  status: ('A' for Active; 'I' for Inactive)
REMARK    1  A    between atoms: C_1  and  C_2
REMARK    2  A    between atoms: C_2  and  C_4
REMARK    3  A    between atoms: C_2  and  O_15
REMARK    4  A    between atoms: N_6  and  C_7
REMARK    5  A    between atoms: O_15  and  C_16
REMARK    6  A    between atoms: C_16  and  C_18
REMARK    7  A    between atoms: C_20  and  S_25
REMARK    8  A    between atoms: S_25  and  N_28
REMARK                            x       y       z     vdW  Elec       q    Type
REMARK                         _______ _______ _______ _____ _____    ______ ____
ROOT
ATOM      1  O   UNL     1       2.390   5.294  -0.007  0.00  0.00    -0.449 OA
ENDROOT
BRANCH   1   3
ATOM      2  C   UNL     1       4.104   6.235  -1.458  0.00  0.00    +0.062 C 
ATOM      3  C   UNL     1       3.672   5.976  -0.014  0.00  0.00    +0.259 C 
BRANCH   3   4
ATOM      4  C   UNL     1       3.546   7.289   0.716  0.00  0.00    +0.258 C 
ATOM      5  O   UNL     1       2.480   7.617   1.194  0.00  0.00    -0.271 OA
ATOM      6  N   UNL     1       4.616   8.098   0.836  0.00  0.00    -0.281 N 
ATOM      7  H   UNL     1       5.603   7.762   0.484  0.00  0.00    +0.155 HD
BRANCH   6   8
ATOM      8  C   UNL     1       4.474   9.367   1.411  0.00  0.00    +0.052 A 
ATOM      9  C   UNL     1       3.242  10.007   1.386  0.00  0.00    +0.026 A 
ATOM     10  C   UNL     1       3.103  11.259   1.954  0.00  0.00    +0.022 A 
ATOM     11  C   UNL     1       4.191  11.876   2.546  0.00  0.00    +0.042 A 
ATOM     12  C   UNL     1       5.421  11.241   2.572  0.00  0.00    +0.041 A 
ATOM     13  C   UNL     1       5.563   9.986   2.011  0.00  0.00    +0.064 A 
ATOM     14 CL   UNL     1       7.104   9.187   2.051  0.00  0.00    -0.082 Cl
ATOM     15 CL   UNL     1       4.013  13.449   3.258  0.00  0.00    -0.083 Cl
ENDBRANCH   6   8
ENDBRANCH   3   4
ENDBRANCH   1   3
BRANCH   1  16
ATOM     16  C   UNL     1       2.414   3.947  -0.025  0.00  0.00    +0.341 C 
ATOM     17  O   UNL     1       3.477   3.359  -0.045  0.00  0.00    -0.245 OA
BRANCH  16  18
ATOM     18  C   UNL     1       1.149   3.186  -0.020  0.00  0.00    +0.075 A 
ATOM     19  C   UNL     1      -0.075   3.859   0.004  0.00  0.00    +0.044 A 
ATOM     20  C   UNL     1      -1.253   3.142   0.009  0.00  0.00    +0.106 A 
ATOM     21  C   UNL     1      -1.225   1.758  -0.015  0.00  0.00    +0.029 A 
ATOM     22  C   UNL     1      -0.018   1.084  -0.033  0.00  0.00    +0.018 A 
ATOM     23  C   UNL     1       1.170   1.789  -0.038  0.00  0.00    +0.032 A 
ATOM     24 BR   UNL     1       2.820   0.866  -0.070  0.00  0.00    -0.049 Br
BRANCH  20  25
ATOM     25  S   UNL     1      -2.797   3.990   0.039  0.00  0.00    +0.056 S 
ATOM     26  O   UNL     1      -3.746   3.086   0.590  0.00  0.00    -0.153 OA
ATOM     27  O   UNL     1      -2.547   5.270   0.603  0.00  0.00    -0.153 OA
BRANCH  25  28
ATOM     28  N   UNL     1      -3.246   4.245  -1.535  0.00  0.00    -0.204 NA
ATOM     29  H   UNL     1      -4.210   4.775  -1.560  0.00  0.00    +0.144 HD
ATOM     30  H   UNL     1      -3.345   3.278  -2.049  0.00  0.00    +0.144 HD
ENDBRANCH  25  28
ENDBRANCH  20  25
ENDBRANCH  16  18
ENDBRANCH   1  16
TORSDOF 7
