REMARK  Name = ZINC33931027
REMARK  7 active torsions:
REMARK  status: ('A' for Active; 'I' for Inactive)
REMARK    1  A    between atoms: C_4  and  C_7
REMARK    2  A    between atoms: C_7  and  N_8
REMARK    3  A    between atoms: N_8  and  C_9
REMARK    4  A    between atoms: C_9  and  C_10
REMARK    5  A    between atoms: C_10  and  N_11
REMARK    6  A    between atoms: C_16  and  C_28
REMARK    7  A    between atoms: CA_19  and  C_25
REMARK                            x       y       z     vdW  Elec       q    Type
REMARK                         _______ _______ _______ _____ _____    ______ ____
ROOT
ATOM      1  N   UNL     1       7.320  -2.520   2.670  0.00  0.00    -0.244 N 
ATOM      2  C   UNL     1       7.355  -3.892   2.664  0.00  0.00    +0.224 C 
ATOM      3  O   UNL     1       6.445  -4.656   2.426  0.00  0.00    -0.275 OA
ATOM      4  C   UNL     1       8.720  -4.223   3.004  0.00  0.00    +0.077 C 
ATOM      5  C   UNL     1       9.662  -5.348   2.922  0.00  0.00    -0.026 C 
ATOM      6  N   UNL     1      11.012  -4.713   3.079  0.00  0.00    +0.394 N 
ATOM      7  CA  UNL     1      10.810  -3.228   3.122  0.00  0.00    +0.057 C 
ATOM      8  C   UNL     1       9.517  -3.055   2.297  0.00  0.00    +0.083 C 
ATOM      9  C   UNL     1       8.565  -1.959   2.689  0.00  0.00    +0.224 C 
ATOM     10  O   UNL     1       8.846  -0.813   2.967  0.00  0.00    -0.275 OA
ATOM     11  H1  UNL     1      11.440  -5.026   3.938  0.00  0.00    -0.084 HD
ATOM     12  H2  UNL     1      11.598  -4.957   2.295  0.00  0.00    -0.084 HD
ENDROOT
BRANCH   5  13
ATOM     13  C   UNL     1       9.550  -6.032   1.584  0.00  0.00    -0.040 A 
ATOM     14  C   UNL     1      10.361  -5.636   0.536  0.00  0.00    +0.023 A 
ATOM     15  C   UNL     1      10.259  -6.264  -0.693  0.00  0.00    +0.043 A 
ATOM     16  C   UNL     1       9.346  -7.287  -0.874  0.00  0.00    +0.041 A 
ATOM     17  C   UNL     1       8.535  -7.683   0.174  0.00  0.00    +0.061 A 
ATOM     18  C   UNL     1       8.641  -7.059   1.406  0.00  0.00    +0.061 A 
ATOM     19 CL   UNL     1       7.628  -7.560   2.724  0.00  0.00    -0.082 Cl
ATOM     20 CL   UNL     1       7.388  -8.967  -0.052  0.00  0.00    -0.082 Cl
ATOM     21 CL   UNL     1      11.276  -5.766  -2.008  0.00  0.00    -0.083 Cl
ENDBRANCH   5  13
BRANCH   7  22
ATOM     22  C   UNL     1      10.639  -2.753   4.542  0.00  0.00    +0.343 C 
ATOM     23  O   UNL     1      10.703  -3.549   5.463  0.00  0.00    -0.248 OA
ATOM     24  OXT UNL     1      10.437  -1.573   4.769  0.00  0.00    -0.248 OA
ENDBRANCH   7  22
BRANCH   1  25
ATOM     25  C   UNL     1       6.079  -1.741   2.651  0.00  0.00    +0.097 C 
BRANCH  25  26
ATOM     26  C   UNL     1       5.670  -1.469   1.202  0.00  0.00    -0.062 C 
BRANCH  26  27
ATOM     27  N   UNL     1       4.426  -0.688   1.183  0.00  0.00    +0.383 N 
ATOM     28  H   UNL     1       4.572   0.189   1.662  0.00  0.00    -0.085 HD
ATOM     29  H   UNL     1       3.696  -1.207   1.647  0.00  0.00    -0.085 HD
BRANCH  27  30
ATOM     30  C   UNL     1       4.033  -0.426  -0.208  0.00  0.00    -0.047 C 
BRANCH  30  34
ATOM     31  C   UNL     1       0.416   1.845  -0.265  0.00  0.00    +0.000 A 
ATOM     32  C   UNL     1       1.637   2.492  -0.244  0.00  0.00    +0.000 A 
ATOM     33  C   UNL     1       2.808   1.757  -0.226  0.00  0.00    +0.002 A 
ATOM     34  C   UNL     1       2.757   0.375  -0.227  0.00  0.00    -0.064 A 
ATOM     35  C   UNL     1       1.535  -0.271  -0.247  0.00  0.00    +0.002 A 
ATOM     36  C   UNL     1       0.364   0.464  -0.267  0.00  0.00    +0.000 A 
ENDBRANCH  30  34
ENDBRANCH  27  30
ENDBRANCH  26  27
ENDBRANCH  25  26
ENDBRANCH   1  25
TORSDOF 7
