REMARK  Name = ZINC33918625
REMARK  11 active torsions:
REMARK  status: ('A' for Active; 'I' for Inactive)
REMARK    1  A    between atoms: C_4  and  C_7
REMARK    2  A    between atoms: C_7  and  N_8
REMARK    3  A    between atoms: N_8  and  C_9
REMARK    4  A    between atoms: C_9  and  C_10
REMARK    5  A    between atoms: C_10  and  N_11
REMARK    6  A    between atoms: C_16  and  C_29
REMARK    7  A    between atoms: C_19  and  C_24
REMARK    8  A    between atoms: C_19  and  C_26
REMARK    9  A    between atoms: C_24  and  O_25
REMARK   10  A    between atoms: C_32  and  C_35
REMARK   11  A    between atoms: C_36  and  C_37
REMARK                            x       y       z     vdW  Elec       q    Type
REMARK                         _______ _______ _______ _____ _____    ______ ____
ROOT
ATOM      1  N   UNL     1       7.174  -2.642   2.744  0.00  0.00    -0.244 N 
ATOM      2  C   UNL     1       7.279  -4.010   2.730  0.00  0.00    +0.224 C 
ATOM      3  O   UNL     1       6.402  -4.818   2.511  0.00  0.00    -0.275 OA
ATOM      4  C   UNL     1       8.664  -4.276   3.034  0.00  0.00    +0.077 C 
ATOM      5  C   UNL     1       9.676  -5.337   2.893  0.00  0.00    -0.027 C 
ATOM      6  N   UNL     1      10.939  -4.620   3.282  0.00  0.00    +0.397 N 
ATOM      7  C   UNL     1      10.720  -3.158   3.069  0.00  0.00    +0.071 C 
ATOM      8  C   UNL     1       9.383  -3.066   2.316  0.00  0.00    +0.088 C 
ATOM      9  C   UNL     1       8.389  -2.018   2.735  0.00  0.00    +0.225 C 
ATOM     10  O   UNL     1       8.620  -0.860   3.009  0.00  0.00    -0.275 OA
ATOM     11  H   UNL     1      11.147  -4.796   4.253  0.00  0.00    -0.083 HD
ATOM     12  H   UNL     1      11.704  -4.938   2.705  0.00  0.00    -0.083 HD
ENDROOT
BRANCH   5  13
ATOM     13  C   UNL     1       9.393  -6.479   3.835  0.00  0.00    -0.061 A 
ATOM     14  C   UNL     1       9.752  -6.377   5.168  0.00  0.00    +0.002 A 
ATOM     15  C   UNL     1       9.495  -7.418   6.036  0.00  0.00    +0.008 A 
ATOM     16  C   UNL     1       8.872  -8.577   5.566  0.00  0.00    -0.025 A 
ATOM     17  C   UNL     1       8.512  -8.672   4.220  0.00  0.00    +0.008 A 
ATOM     18  C   UNL     1       8.770  -7.621   3.364  0.00  0.00    +0.002 A 
BRANCH  16  19
ATOM     19  C   UNL     1       8.595  -9.694   6.488  0.00  0.00    +0.008 C 
ATOM     20  C   UNL     1       7.996 -10.806   6.034  0.00  0.00    +0.008 C 
BRANCH  20  21
ATOM     21  C   UNL     1       7.719 -11.922   6.955  0.00  0.00    -0.025 A 
ATOM     22  C   UNL     1       8.074 -11.825   8.303  0.00  0.00    +0.008 A 
ATOM     23  C   UNL     1       7.811 -12.874   9.159  0.00  0.00    +0.001 A 
ATOM     24  C   UNL     1       7.198 -14.021   8.686  0.00  0.00    +0.000 A 
ATOM     25  C   UNL     1       6.844 -14.124   7.353  0.00  0.00    +0.001 A 
ATOM     26  C   UNL     1       7.096 -13.082   6.486  0.00  0.00    +0.008 A 
ENDBRANCH  20  21
ENDBRANCH  16  19
ENDBRANCH   5  13
BRANCH   7  27
ATOM     27  C   UNL     1      11.824  -2.583   2.220  0.00  0.00    +0.348 C 
ATOM     28  O   UNL     1      12.736  -3.297   1.840  0.00  0.00    -0.248 OA
ATOM     29  O   UNL     1      11.805  -1.403   1.913  0.00  0.00    -0.248 OA
ENDBRANCH   7  27
BRANCH   1  30
ATOM     30  C   UNL     1       5.895  -1.926   2.761  0.00  0.00    +0.097 C 
BRANCH  30  31
ATOM     31  C   UNL     1       5.435  -1.670   1.325  0.00  0.00    -0.062 C 
BRANCH  31  32
ATOM     32  N   UNL     1       4.153  -0.953   1.342  0.00  0.00    +0.383 N 
ATOM     33  H   UNL     1       4.267  -0.072   1.821  0.00  0.00    -0.085 HD
ATOM     34  H   UNL     1       3.462  -1.510   1.822  0.00  0.00    -0.085 HD
BRANCH  32  35
ATOM     35  C   UNL     1       3.711  -0.707  -0.038  0.00  0.00    -0.047 C 
BRANCH  35  39
ATOM     36  C   UNL     1      -0.017   1.378   0.010  0.00  0.00    +0.000 A 
ATOM     37  C   UNL     1       1.171   2.086   0.002  0.00  0.00    +0.000 A 
ATOM     38  C   UNL     1       2.377   1.411  -0.013  0.00  0.00    +0.002 A 
ATOM     39  C   UNL     1       2.396   0.029  -0.020  0.00  0.00    -0.064 A 
ATOM     40  C   UNL     1       1.208  -0.679  -0.012  0.00  0.00    +0.002 A 
ATOM     41  C   UNL     1       0.002  -0.004   0.002  0.00  0.00    +0.000 A 
ENDBRANCH  35  39
ENDBRANCH  32  35
ENDBRANCH  31  32
ENDBRANCH  30  31
ENDBRANCH   1  30
BRANCH   7  42
ATOM     42  C   UNL     1      10.650  -2.432   4.413  0.00  0.00    +0.155 C 
BRANCH  42  43
ATOM     43  O   UNL     1      11.889  -2.593   5.106  0.00  0.00    -0.396 OA
ATOM     44  H   UNL     1      11.917  -2.157   5.969  0.00  0.00    +0.209 HD
ENDBRANCH  42  43
ENDBRANCH   7  42
TORSDOF 11
