REMARK  Name = ZINC02570221
REMARK  11 active torsions:
REMARK  status: ('A' for Active; 'I' for Inactive)
REMARK    1  A    between atoms: C_1  and  C_2
REMARK    2  A    between atoms: C_2  and  N_3
REMARK    3  A    between atoms: N_3  and  C_4
REMARK    4  A    between atoms: N_3  and  C_6
REMARK    5  A    between atoms: C_4  and  C_5
REMARK    6  A    between atoms: C_9  and  C_12
REMARK    7  A    between atoms: C_14  and  C_34
REMARK    8  A    between atoms: C_15  and  N_33
REMARK    9  A    between atoms: N_16  and  C_26
REMARK   10  A    between atoms: C_22  and  C_24
REMARK   11  A    between atoms: C_22  and  C_25
REMARK                            x       y       z     vdW  Elec       q    Type
REMARK                         _______ _______ _______ _____ _____    ______ ____
ROOT
ATOM      1  C   UNL     1       2.550   1.013  -0.395  0.00  0.00    +0.097 C 
ATOM      2  C   UNL     1       3.724   1.110  -1.323  0.00  0.00    +0.077 C 
ATOM      3  C   UNL     1       4.719   2.008  -1.104  0.00  0.00    +0.107 C 
ATOM      4  N   UNL     1       4.667   2.844  -0.011  0.00  0.00    -0.260 N 
ATOM      5  C   UNL     1       3.870   2.538   1.061  0.00  0.00    +0.025 C 
ATOM      6  C   UNL     1       2.846   1.670   0.930  0.00  0.00    +0.025 C 
ATOM      7  C   UNL     1       2.022   1.353   2.024  0.00  0.00    +0.162 C 
ATOM      8  O   UNL     1       1.117   0.556   1.878  0.00  0.00    -0.292 OA
ATOM      9  C   UNL     1       2.242   1.982   3.373  0.00  0.00    +0.086 C 
ATOM     10  C   UNL     1       2.877   3.363   3.181  0.00  0.00    -0.023 C 
ATOM     11  C   UNL     1       4.171   3.191   2.388  0.00  0.00    +0.058 C 
ATOM     12  C   UNL     1       1.915   4.270   2.411  0.00  0.00    +0.011 C 
ATOM     13  C   UNL     1       3.185   3.982   4.546  0.00  0.00    +0.011 C 
ENDROOT
BRANCH   4  14
ATOM     14  C   UNL     1       5.434   4.015   0.005  0.00  0.00    +0.040 A 
ATOM     15  C   UNL     1       4.901   5.202  -0.481  0.00  0.00    +0.025 A 
ATOM     16  C   UNL     1       5.657   6.357  -0.459  0.00  0.00    +0.017 A 
ATOM     17  C   UNL     1       6.949   6.330   0.036  0.00  0.00    +0.018 A 
ATOM     18  C   UNL     1       7.484   5.148   0.516  0.00  0.00    +0.017 A 
ATOM     19  C   UNL     1       6.730   3.991   0.502  0.00  0.00    +0.025 A 
ATOM     20 BR   UNL     1       7.985   7.912   0.058  0.00  0.00    -0.050 Br
ENDBRANCH   4  14
BRANCH   1  24
ATOM     21  C   UNL     1      -0.818   2.937  -2.190  0.00  0.00    +0.030 A 
ATOM     22  C   UNL     1      -0.872   1.583  -1.882  0.00  0.00    +0.023 A 
ATOM     23  C   UNL     1       0.216   0.966  -1.297  0.00  0.00    +0.006 A 
ATOM     24  C   UNL     1       1.362   1.691  -1.028  0.00  0.00    -0.035 A 
ATOM     25  C   UNL     1       1.421   3.038  -1.338  0.00  0.00    +0.006 A 
ATOM     26  C   UNL     1       0.335   3.663  -1.918  0.00  0.00    +0.023 A 
BRANCH  21  27
ATOM     27  N   UNL     1      -1.919   3.566  -2.777  0.00  0.00    -0.330 N 
BRANCH  27  29
ATOM     28  C   UNL     1      -4.069   2.856  -1.854  0.00  0.00    +0.024 C 
ATOM     29  C   UNL     1      -3.134   2.799  -3.063  0.00  0.00    +0.102 C 
ENDBRANCH  27  29
BRANCH  27  30
ATOM     30  C   UNL     1      -1.858   4.992  -3.106  0.00  0.00    +0.102 C 
ATOM     31  C   UNL     1      -1.324   5.165  -4.529  0.00  0.00    +0.024 C 
ENDBRANCH  27  30
ENDBRANCH  21  27
ENDBRANCH   1  24
BRANCH   3  32
ATOM     32  N   UNL     1       5.780   2.083  -1.974  0.00  0.00    -0.345 N 
ATOM     33  H   UNL     1       5.861   1.441  -2.697  0.00  0.00    +0.144 HD
ATOM     34  H   UNL     1       6.448   2.778  -1.867  0.00  0.00    +0.144 HD
ENDBRANCH   3  32
BRANCH   2  35
ATOM     35  C   UNL     1       3.797   0.242  -2.459  0.00  0.00    +0.099 C 
ATOM     36  N   UNL     1       3.856  -0.448  -3.360  0.00  0.00    -0.191 NA
ENDBRANCH   2  35
TORSDOF 7
