REMARK  Name = ZINC08856243
REMARK  11 active torsions:
REMARK  status: ('A' for Active; 'I' for Inactive)
REMARK    1  A    between atoms: C_1  and  C_2
REMARK    2  A    between atoms: C_3  and  N_8
REMARK    3  A    between atoms: C_10  and  C_38
REMARK    4  A    between atoms: C_12  and  N_13
REMARK    5  A    between atoms: N_13  and  N_14
REMARK    6  A    between atoms: C_15  and  C_17
REMARK    7  A    between atoms: N_19  and  N_20
REMARK    8  A    between atoms: N_20  and  C_21
REMARK    9  A    between atoms: N_25  and  C_29
REMARK   10  A    between atoms: C_27  and  C_28
REMARK   11  A    between atoms: C_30  and  C_35
REMARK                            x       y       z     vdW  Elec       q    Type
REMARK                         _______ _______ _______ _____ _____    ______ ____
ROOT
ATOM      1  N   UNL     1      -2.520   3.393  -7.258  0.00  0.00    -0.229 N 
ATOM      2  C   UNL     1      -1.853   4.079  -8.208  0.00  0.00    +0.316 C 
ATOM      3  O   UNL     1      -0.823   4.656  -7.929  0.00  0.00    -0.264 OA
ATOM      4  H   UNL     1      -3.343   2.932  -7.481  0.00  0.00    +0.173 HD
ENDROOT
BRANCH   2   5
ATOM      5  C   UNL     1      -2.384   4.129  -9.604  0.00  0.00    +0.316 C 
ATOM      6  O   UNL     1      -3.414   3.552  -9.883  0.00  0.00    -0.264 OA
ATOM      7  N   UNL     1      -1.717   4.815 -10.554  0.00  0.00    -0.229 N 
ATOM      8  H   UNL     1      -0.893   5.276 -10.331  0.00  0.00    +0.173 HD
BRANCH   7   9
ATOM      9  N   UNL     1      -2.214   4.862 -11.863  0.00  0.00    -0.271 N 
ATOM     10  H   UNL     1      -3.038   4.401 -12.086  0.00  0.00    +0.169 HD
BRANCH   9  11
ATOM     11  C   UNL     1      -1.547   5.548 -12.813  0.00  0.00    +0.102 C 
ATOM     12  C   UNL     1      -1.971   5.497 -14.130  0.00  0.00    +0.076 C 
ATOM     13  C   UNL     1      -1.461   6.277 -15.265  0.00  0.00    +0.273 C 
ATOM     14  O   UNL     1      -0.570   7.109 -15.241  0.00  0.00    -0.268 OA
ATOM     15  N   UNL     1      -2.178   5.885 -16.338  0.00  0.00    -0.156 N 
ATOM     16  N   UNL     1      -3.106   4.913 -15.966  0.00  0.00    -0.176 NA
ATOM     17  C   UNL     1      -3.026   4.644 -14.699  0.00  0.00    +0.070 C 
ATOM     18  C   UNL     1      -3.864   3.643 -13.947  0.00  0.00    +0.068 C 
BRANCH  15  19
ATOM     19  C   UNL     1      -2.014   6.383 -17.637  0.00  0.00    +0.063 A 
ATOM     20  C   UNL     1      -3.098   6.924 -18.317  0.00  0.00    -0.027 A 
ATOM     21  C   UNL     1      -2.933   7.414 -19.597  0.00  0.00    +0.005 A 
ATOM     22  C   UNL     1      -1.690   7.367 -20.203  0.00  0.00    +0.000 A 
ATOM     23  C   UNL     1      -0.609   6.829 -19.529  0.00  0.00    +0.002 A 
ATOM     24  C   UNL     1      -0.766   6.343 -18.245  0.00  0.00    +0.026 A 
ATOM     25  C   UNL     1      -4.452   6.975 -17.658  0.00  0.00    +0.046 C 
ENDBRANCH  15  19
ENDBRANCH   9  11
ENDBRANCH   7   9
ENDBRANCH   2   5
BRANCH   1  26
ATOM     26  N   UNL     1      -2.023   3.346  -5.949  0.00  0.00    -0.271 N 
ATOM     27  H   UNL     1      -1.199   3.807  -5.726  0.00  0.00    +0.169 HD
BRANCH  26  32
ATOM     28  N   UNL     1      -1.956   2.160  -1.514  0.00  0.00    -0.156 N 
ATOM     29  N   UNL     1      -0.886   2.953  -1.927  0.00  0.00    -0.176 NA
ATOM     30  C   UNL     1      -0.976   3.246  -3.188  0.00  0.00    +0.070 C 
ATOM     31  C   UNL     1      -2.198   2.613  -3.706  0.00  0.00    +0.076 C 
ATOM     32  C   UNL     1      -2.689   2.659  -4.999  0.00  0.00    +0.102 C 
ATOM     33  C   UNL     1      -2.781   1.916  -2.552  0.00  0.00    +0.273 C 
ATOM     34  O   UNL     1      -3.805   1.254  -2.536  0.00  0.00    -0.268 OA
ATOM     35  C   UNL     1      -0.003   4.083  -3.979  0.00  0.00    +0.068 C 
BRANCH  28  38
ATOM     36  C   UNL     1      -2.008   4.044   0.619  0.00  0.00    +0.046 C 
ATOM     37  C   UNL     1      -2.175   2.566   0.858  0.00  0.00    -0.027 A 
ATOM     38  C   UNL     1      -2.143   1.680  -0.211  0.00  0.00    +0.063 A 
ATOM     39  C   UNL     1      -2.297   0.319   0.014  0.00  0.00    +0.026 A 
ATOM     40  C   UNL     1      -2.482  -0.151   1.299  0.00  0.00    +0.002 A 
ATOM     41  C   UNL     1      -2.514   0.733   2.362  0.00  0.00    +0.000 A 
ATOM     42  C   UNL     1      -2.354   2.090   2.142  0.00  0.00    +0.005 A 
ENDBRANCH  28  38
ENDBRANCH  26  32
ENDBRANCH   1  26
TORSDOF 7
