REMARK  Name = ZINC44163204
REMARK  7 active torsions:
REMARK  status: ('A' for Active; 'I' for Inactive)
REMARK    1  A    between atoms: C_1  and  C_2
REMARK    2  A    between atoms: C_2  and  C_3
REMARK    3  A    between atoms: C_3  and  C_4
REMARK    4  A    between atoms: C_4  and  C_6
REMARK    5  A    between atoms: C_4  and  N_24
REMARK    6  A    between atoms: C_8  and  C_11
REMARK    7  A    between atoms: N_16  and  C_17
REMARK                            x       y       z     vdW  Elec       q    Type
REMARK                         _______ _______ _______ _____ _____    ______ ____
ROOT
ATOM      1  C   UNL     1       1.139  -3.595  -6.031  0.00  0.00    +0.271 A 
ATOM      2  N   UNL     1      -0.033  -4.077  -6.366  0.00  0.00    -0.104 NA
ATOM      3  N   UNL     1       0.071  -4.723  -7.474  0.00  0.00    -0.092 NA
ATOM      4  C   UNL     1       1.314  -4.679  -7.891  0.00  0.00    +0.312 A 
ATOM      5  O   UNL     1       2.016  -3.962  -6.992  0.00  0.00    -0.403 OA
ATOM      6  N   UNL     1       1.812  -5.258  -9.044  0.00  0.00    -0.268 N 
ATOM      7  H   UNL     1       2.765  -5.242  -9.222  0.00  0.00    +0.157 HD
ENDROOT
BRANCH   6   8
ATOM      8  C   UNL     1       0.941  -5.868  -9.952  0.00  0.00    +0.035 A 
ATOM      9  C   UNL     1      -0.368  -5.417 -10.070  0.00  0.00    +0.025 A 
ATOM     10  C   UNL     1      -1.226  -6.021 -10.968  0.00  0.00    +0.022 A 
ATOM     11  C   UNL     1      -0.783  -7.074 -11.750  0.00  0.00    +0.041 A 
ATOM     12  C   UNL     1       0.520  -7.525 -11.633  0.00  0.00    +0.022 A 
ATOM     13  C   UNL     1       1.384  -6.921 -10.742  0.00  0.00    +0.025 A 
ATOM     14 CL   UNL     1      -1.865  -7.831 -12.877  0.00  0.00    -0.084 Cl
ENDBRANCH   6   8
BRANCH   1  17
ATOM     15  C   UNL     1       1.202  -1.729  -2.965  0.00  0.00    +0.182 A 
ATOM     16  N   UNL     1       0.565  -2.424  -3.860  0.00  0.00    -0.210 NA
ATOM     17  C   UNL     1       1.445  -2.794  -4.828  0.00  0.00    +0.165 A 
ATOM     18  C   UNL     1       2.657  -2.290  -4.481  0.00  0.00    +0.230 A 
ATOM     19  O   UNL     1       2.489  -1.625  -3.322  0.00  0.00    -0.449 OA
BRANCH  15  20
ATOM     20  C   UNL     1       0.589  -1.129  -1.726  0.00  0.00    +0.013 C 
BRANCH  20  21
ATOM     21  N   UNL     1       1.465  -1.384  -0.574  0.00  0.00    +0.386 N 
ATOM     22  H   UNL     1       2.368  -0.965  -0.739  0.00  0.00    -0.089 HD
ATOM     23  H   UNL     1       1.054  -0.982   0.256  0.00  0.00    -0.089 HD
ATOM     24  H   UNL     1       1.573  -2.379  -0.448  0.00  0.00    -0.089 HD
ENDBRANCH  20  21
BRANCH  20  25
ATOM     25  C   UNL     1       0.424   0.380  -1.917  0.00  0.00    -0.007 C 
BRANCH  25  27
ATOM     26  C   UNL     1      -0.476   2.479  -0.904  0.00  0.00    +0.004 C 
ATOM     27  C   UNL     1      -0.311   0.970  -0.712  0.00  0.00    -0.005 C 
ENDBRANCH  25  27
ENDBRANCH  20  25
ENDBRANCH  15  20
ENDBRANCH   1  17
TORSDOF 6
