REMARK  Name = ZINC08674204
REMARK  15 active torsions:
REMARK  status: ('A' for Active; 'I' for Inactive)
REMARK    1  A    between atoms: C_1  and  C_2
REMARK    2  A    between atoms: C_4  and  C_35
REMARK    3  A    between atoms: C_7  and  C_13
REMARK    4  A    between atoms: C_8  and  O_12
REMARK    5  A    between atoms: C_13  and  N_66
REMARK    6  A    between atoms: C_14  and  C_15
REMARK    7  A    between atoms: C_14  and  N_66
REMARK    8  A    between atoms: C_15  and  O_16
REMARK    9  A    between atoms: C_17  and  C_19
REMARK   10  A    between atoms: C_17  and  C_32
REMARK   11  A    between atoms: C_17  and  N_66
REMARK   12  A    between atoms: N_23  and  C_24
REMARK   13  A    between atoms: C_24  and  C_25
REMARK   14  A    between atoms: C_32  and  C_33
REMARK   15  A    between atoms: C_32  and  C_34
REMARK                            x       y       z     vdW  Elec       q    Type
REMARK                         _______ _______ _______ _____ _____    ______ ____
ROOT
ATOM      1  N   UNL     1      -1.143   1.255   1.358  0.00  0.00    +0.391 N 
ATOM      2  H   UNL     1      -1.919   0.762   0.901  0.00  0.00    -0.080 HD
ENDROOT
BRANCH   1   3
ATOM      3  C   UNL     1       0.111   0.949   0.639  0.00  0.00    -0.037 C 
BRANCH   3  10
ATOM      4  C   UNL     1      -0.685   2.299  -7.131  0.00  0.00    +0.044 C 
ATOM      5  C   UNL     1      -0.405   2.236  -5.652  0.00  0.00    -0.048 A 
ATOM      6  C   UNL     1       0.383   3.222  -5.061  0.00  0.00    +0.007 A 
ATOM      7  C   UNL     1       0.655   3.192  -3.727  0.00  0.00    -0.041 A 
ATOM      8  C   UNL     1       0.135   2.156  -2.935  0.00  0.00    +0.004 A 
ATOM      9  C   UNL     1       0.395   2.091  -1.552  0.00  0.00    +0.017 A 
ATOM     10  C   UNL     1      -0.141   1.058  -0.842  0.00  0.00    -0.002 A 
ATOM     11  C   UNL     1      -0.921   0.095  -1.494  0.00  0.00    +0.214 A 
ATOM     12  N   UNL     1      -1.164   0.163  -2.785  0.00  0.00    -0.213 NA
ATOM     13  C   UNL     1      -0.666   1.154  -3.534  0.00  0.00    +0.075 A 
ATOM     14  C   UNL     1      -0.925   1.218  -4.913  0.00  0.00    +0.031 A 
ATOM     15  C   UNL     1       1.510   4.266  -3.104  0.00  0.00    +0.044 C 
BRANCH  11  16
ATOM     16  O   UNL     1      -1.443  -0.930  -0.775  0.00  0.00    -0.492 OA
ATOM     17  H   UNL     1      -2.319  -0.747  -0.409  0.00  0.00    +0.294 HD
ENDBRANCH  11  16
ENDBRANCH   3  10
ENDBRANCH   1   3
BRANCH   1  18
ATOM     18  C   UNL     1      -1.408   2.709   1.315  0.00  0.00    -0.049 C 
BRANCH  18  19
ATOM     19  C   UNL     1      -2.130   3.035   0.006  0.00  0.00    +0.137 C 
BRANCH  19  20
ATOM     20  O   UNL     1      -3.392   2.367  -0.021  0.00  0.00    -0.397 OA
ATOM     21  H   UNL     1      -3.906   2.529  -0.824  0.00  0.00    +0.209 HD
ENDBRANCH  19  20
ENDBRANCH  18  19
ENDBRANCH   1  18
BRANCH   1  22
ATOM     22  C   UNL     1      -1.046   0.801   2.761  0.00  0.00    +0.006 C 
BRANCH  22  23
ATOM     23  C   UNL     1      -0.372   1.849   3.608  0.00  0.00    +0.139 A 
ATOM     24  N   UNL     1      -0.601   3.139   3.587  0.00  0.00    -0.115 NA
ATOM     25  N   UNL     1       0.171   3.695   4.455  0.00  0.00    -0.023 NA
ATOM     26  N   UNL     1       0.892   2.794   5.025  0.00  0.00    -0.044 NA
ATOM     27  N   UNL     1       0.587   1.643   4.530  0.00  0.00    -0.226 N 
BRANCH  27  28
ATOM     28  C   UNL     1       1.174   0.353   4.901  0.00  0.00    +0.182 C 
BRANCH  28  29
ATOM     29  C   UNL     1       2.372   0.076   4.029  0.00  0.00    -0.026 A 
ATOM     30  C   UNL     1       2.216  -0.606   2.837  0.00  0.00    +0.008 A 
ATOM     31  C   UNL     1       3.312  -0.855   2.034  0.00  0.00    +0.038 A 
ATOM     32  C   UNL     1       4.570  -0.431   2.429  0.00  0.00    +0.123 A 
ATOM     33  C   UNL     1       4.726   0.247   3.626  0.00  0.00    +0.038 A 
ATOM     34  C   UNL     1       3.627   0.500   4.425  0.00  0.00    +0.008 A 
ATOM     35  F   UNL     1       5.644  -0.679   1.648  0.00  0.00    -0.205 F 
ENDBRANCH  28  29
ENDBRANCH  27  28
ENDBRANCH  22  23
BRANCH  22  36
ATOM     36  C   UNL     1      -2.458   0.548   3.292  0.00  0.00    -0.024 C 
ATOM     37  C   UNL     1      -3.278   1.836   3.197  0.00  0.00    +0.006 C 
ATOM     38  C   UNL     1      -3.129  -0.545   2.457  0.00  0.00    +0.006 C 
ENDBRANCH  22  36
ENDBRANCH   1  22
TORSDOF 11
