REMARK  Name = ZINC41027061
REMARK  4 active torsions:
REMARK  status: ('A' for Active; 'I' for Inactive)
REMARK    1  A    between atoms: C_2  and  C_18
REMARK    2  A    between atoms: C_5  and  S_8
REMARK    3  A    between atoms: S_8  and  C_9
REMARK    4  A    between atoms: C_15  and  N_17
REMARK                            x       y       z     vdW  Elec       q    Type
REMARK                         _______ _______ _______ _____ _____    ______ ____
ROOT
ATOM      1  S   UNL     1       1.255  -2.433  -0.023  0.00  0.00    -0.031 S 
ENDROOT
BRANCH   1   2
ATOM      2  C   UNL     1       2.972  -2.832  -0.042  0.00  0.00    +0.177 A 
ATOM      3  N   UNL     1       3.353  -4.139  -0.058  0.00  0.00    -0.302 N 
ATOM      4  H   UNL     1       2.681  -4.839  -0.059  0.00  0.00    +0.171 HD
ATOM      5  C   UNL     1       4.663  -4.463  -0.073  0.00  0.00    +0.254 A 
ATOM      6  O   UNL     1       5.013  -5.633  -0.088  0.00  0.00    -0.268 OA
ATOM      7  C   UNL     1       5.612  -3.436  -0.071  0.00  0.00    +0.113 A 
ATOM      8  C   UNL     1       5.171  -2.120  -0.054  0.00  0.00    +0.124 A 
ATOM      9  N   UNL     1       3.859  -1.860  -0.045  0.00  0.00    -0.208 NA
BRANCH   8  10
ATOM     10  N   UNL     1       6.084  -1.084  -0.052  0.00  0.00    -0.343 N 
ATOM     11  H   UNL     1       7.035  -1.275  -0.062  0.00  0.00    +0.144 HD
ATOM     12  H   UNL     1       5.774  -0.165  -0.040  0.00  0.00    +0.144 HD
ENDBRANCH   8  10
ENDBRANCH   1   2
BRANCH   1  17
ATOM     13  C   UNL     1      -0.017   1.365   0.009  0.00  0.00    +0.039 A 
ATOM     14  C   UNL     1       1.210   2.051   0.002  0.00  0.00    +0.083 A 
ATOM     15  C   UNL     1       2.398   1.316  -0.014  0.00  0.00    +0.127 A 
ATOM     16  N   UNL     1       2.370   0.001  -0.021  0.00  0.00    -0.246 NA
ATOM     17  C   UNL     1       1.227  -0.672  -0.013  0.00  0.00    +0.123 A 
ATOM     18  C   UNL     1       0.002  -0.004   0.002  0.00  0.00    +0.074 A 
ATOM     19 CL   UNL     1      -1.484  -0.901   0.012  0.00  0.00    -0.081 Cl
BRANCH  14  20
ATOM     20  C   UNL     1       1.242   3.523   0.009  0.00  0.00    +0.388 C 
ATOM     21  O   UNL     1       0.196   4.157   0.022  0.00  0.00    -0.241 OA
ATOM     22  O   UNL     1       2.314   4.111   0.002  0.00  0.00    -0.241 OA
ENDBRANCH  14  20
ENDBRANCH   1  17
TORSDOF 4
