REMARK  Name = ZINC09128239
REMARK  12 active torsions:
REMARK  status: ('A' for Active; 'I' for Inactive)
REMARK    1  A    between atoms: C_1  and  C_2
REMARK    2  A    between atoms: C_7  and  O_8
REMARK    3  A    between atoms: O_8  and  C_9
REMARK    4  A    between atoms: C_9  and  C_10
REMARK    5  A    between atoms: N_12  and  N_13
REMARK    6  A    between atoms: C_14  and  C_16
REMARK    7  A    between atoms: C_17  and  C_18
REMARK    8  A    between atoms: C_21  and  S_24
REMARK    9  A    between atoms: S_24  and  N_27
REMARK   10  A    between atoms: N_27  and  C_28
REMARK   11  A    between atoms: C_31  and  O_34
REMARK   12  A    between atoms: O_34  and  C_35
REMARK                            x       y       z     vdW  Elec       q    Type
REMARK                         _______ _______ _______ _____ _____    ______ ____
ROOT
ATOM      1  C   UNL     1      -3.882   2.930   0.535  0.00  0.00    +0.069 C 
ATOM      2  C   UNL     1      -2.845   2.072   0.463  0.00  0.00    +0.013 C 
ENDROOT
BRANCH   2   3
ATOM      3  C   UNL     1      -1.470   2.587   0.360  0.00  0.00    -0.025 A 
ATOM      4  C   UNL     1      -0.391   1.700   0.284  0.00  0.00    +0.010 A 
ATOM      5  C   UNL     1       0.894   2.191   0.182  0.00  0.00    +0.029 A 
ATOM      6  C   UNL     1       1.117   3.556   0.160  0.00  0.00    +0.109 A 
ATOM      7  C   UNL     1       0.056   4.440   0.239  0.00  0.00    +0.029 A 
ATOM      8  C   UNL     1      -1.235   3.966   0.342  0.00  0.00    +0.010 A 
BRANCH   6   9
ATOM      9  S   UNL     1       2.763   4.173   0.030  0.00  0.00    +0.072 S 
ATOM     10  O   UNL     1       2.725   5.526   0.462  0.00  0.00    -0.150 OA
ATOM     11  O   UNL     1       3.609   3.203   0.633  0.00  0.00    -0.150 OA
BRANCH   9  12
ATOM     12  N   UNL     1       3.149   4.201  -1.580  0.00  0.00    -0.216 N 
ATOM     13  H   UNL     1       3.869   3.644  -1.916  0.00  0.00    +0.174 HD
BRANCH  12  14
ATOM     14  C   UNL     1       2.437   5.028  -2.456  0.00  0.00    +0.048 A 
ATOM     15  C   UNL     1       1.519   4.476  -3.341  0.00  0.00    +0.028 A 
ATOM     16  C   UNL     1       0.812   5.294  -4.200  0.00  0.00    +0.047 A 
ATOM     17  C   UNL     1       1.028   6.664  -4.189  0.00  0.00    +0.120 A 
ATOM     18  C   UNL     1       1.948   7.215  -3.310  0.00  0.00    +0.047 A 
ATOM     19  C   UNL     1       2.651   6.400  -2.445  0.00  0.00    +0.028 A 
BRANCH  17  20
ATOM     20  O   UNL     1       0.336   7.468  -5.041  0.00  0.00    -0.495 OA
ATOM     21  C   UNL     1      -0.596   6.833  -5.919  0.00  0.00    +0.277 C 
ENDBRANCH  17  20
ENDBRANCH  12  14
ENDBRANCH   9  12
ENDBRANCH   6   9
ENDBRANCH   2   3
BRANCH   1  23
ATOM     22  N   UNL     1      -6.287   3.275   0.710  0.00  0.00    -0.231 N 
ATOM     23  C   UNL     1      -5.250   2.418   0.638  0.00  0.00    +0.253 C 
ATOM     24  O   UNL     1      -5.451   1.218   0.658  0.00  0.00    -0.269 OA
ATOM     25  H   UNL     1      -6.128   4.232   0.694  0.00  0.00    +0.173 HD
BRANCH  22  28
ATOM     26  C   UNL     1      -8.633   3.643   0.880  0.00  0.00    +0.267 C 
ATOM     27  O   UNL     1      -8.434   4.839   0.860  0.00  0.00    -0.271 OA
ATOM     28  N   UNL     1      -7.596   2.785   0.808  0.00  0.00    -0.231 N 
ATOM     29  H   UNL     1      -7.756   1.829   0.824  0.00  0.00    +0.173 HD
BRANCH  26  30
ATOM     30  C   UNL     1     -10.041   3.116   0.986  0.00  0.00    +0.326 C 
BRANCH  30  31
ATOM     31  O   UNL     1     -10.957   4.211   1.048  0.00  0.00    -0.482 OA
BRANCH  31  38
ATOM     32  C   UNL     1     -12.783   6.362   1.172  0.00  0.00    +0.047 C 
ATOM     33  C   UNL     1     -13.221   4.921   1.211  0.00  0.00    -0.009 A 
ATOM     34  C   UNL     1     -14.564   4.609   1.311  0.00  0.00    +0.007 A 
ATOM     35  C   UNL     1     -14.966   3.287   1.347  0.00  0.00    +0.000 A 
ATOM     36  C   UNL     1     -14.027   2.274   1.282  0.00  0.00    +0.004 A 
ATOM     37  C   UNL     1     -12.684   2.580   1.177  0.00  0.00    +0.046 A 
ATOM     38  C   UNL     1     -12.277   3.907   1.147  0.00  0.00    +0.124 A 
ENDBRANCH  31  38
ENDBRANCH  30  31
ENDBRANCH  26  30
ENDBRANCH  22  28
ENDBRANCH   1  23
TORSDOF 10
