REMARK  Name = ZINC39617997
REMARK  11 active torsions:
REMARK  status: ('A' for Active; 'I' for Inactive)
REMARK    1  A    between atoms: C_1  and  C_2
REMARK    2  A    between atoms: C_2  and  O_3
REMARK    3  A    between atoms: O_3  and  C_4
REMARK    4  A    between atoms: C_4  and  C_6
REMARK    5  A    between atoms: C_8  and  N_24
REMARK    6  A    between atoms: N_15  and  C_17
REMARK    7  A    between atoms: C_17  and  C_18
REMARK    8  A    between atoms: C_25  and  C_27
REMARK    9  A    between atoms: C_27  and  C_29
REMARK   10  A    between atoms: C_27  and  S_30
REMARK   11  A    between atoms: S_30  and  C_31
REMARK                            x       y       z     vdW  Elec       q    Type
REMARK                         _______ _______ _______ _____ _____    ______ ____
ROOT
ATOM      1  C   UNL     1      -2.881  -2.427   0.017  0.00  0.00    +0.155 C 
ATOM      2  C   UNL     1      -3.649  -1.942  -1.238  0.00  0.00    +0.153 C 
ATOM      3  S   UNL     1      -4.634  -3.463  -1.571  0.00  0.00    -0.108 S 
ATOM      4  C   UNL     1      -3.611  -4.627  -0.704  0.00  0.00    -0.029 C 
ATOM      5  C   UNL     1      -2.771  -3.927   0.049  0.00  0.00    -0.047 C 
ATOM      6  C   UNL     1      -1.742  -4.652   0.914  0.00  0.00    +0.014 C 
ATOM      7  C   UNL     1      -2.179  -6.112   1.061  0.00  0.00    -0.073 C 
ATOM      8  N   UNL     1      -2.433  -6.691  -0.265  0.00  0.00    +0.386 N 
ATOM      9  C   UNL     1      -3.676  -6.124  -0.805  0.00  0.00    -0.035 C 
ATOM     10  H   UNL     1      -1.664  -6.473  -0.881  0.00  0.00    -0.081 HD
ENDROOT
BRANCH   2  11
ATOM     11  N   UNL     1      -4.512  -0.798  -0.930  0.00  0.00    -0.301 N 
ATOM     12  C   UNL     1      -4.538   0.267  -1.756  0.00  0.00    +0.227 C 
ATOM     13  O   UNL     1      -3.847   0.279  -2.753  0.00  0.00    -0.275 OA
ATOM     14  H   UNL     1      -5.064  -0.807  -0.133  0.00  0.00    +0.150 HD
BRANCH  12  15
ATOM     15  C   UNL     1      -5.425   1.444  -1.440  0.00  0.00    +0.137 C 
ATOM     16  C   UNL     1      -4.697   2.389  -0.482  0.00  0.00    +0.029 C 
BRANCH  15  17
ATOM     17  S   UNL     1      -5.826   2.327  -2.973  0.00  0.00    -0.072 S 
BRANCH  17  18
ATOM     18  C   UNL     1      -6.971   3.566  -2.464  0.00  0.00    +0.211 A 
ATOM     19  N   UNL     1      -7.392   3.756  -1.236  0.00  0.00    -0.144 NA
ATOM     20  H   UNL     1      -8.768   5.220  -0.523  0.00  0.00    +0.192 HD
ATOM     21  N   UNL     1      -8.288   4.837  -1.274  0.00  0.00    -0.246 N 
ATOM     22  C   UNL     1      -8.349   5.238  -2.561  0.00  0.00    +0.209 A 
ATOM     23  N   UNL     1      -7.548   4.468  -3.266  0.00  0.00    -0.188 NA
ATOM     24  N   UNL     1      -9.116   6.280  -3.052  0.00  0.00    -0.328 N 
ATOM     25  H   UNL     1      -9.675   6.796  -2.450  0.00  0.00    +0.145 HD
ATOM     26  H   UNL     1      -9.094   6.494  -3.998  0.00  0.00    +0.145 HD
ENDBRANCH  17  18
ENDBRANCH  15  17
ENDBRANCH  12  15
ENDBRANCH   2  11
BRANCH   1  27
ATOM     27  C   UNL     1      -1.496  -1.832   0.006  0.00  0.00    +0.317 C 
ATOM     28  O   UNL     1      -0.528  -2.555  -0.007  0.00  0.00    -0.250 OA
BRANCH  27  29
ATOM     29  O   UNL     1      -1.339  -0.499   0.012  0.00  0.00    -0.464 OA
BRANCH  29  31
ATOM     30  C   UNL     1      -0.019   1.526   0.010  0.00  0.00    +0.048 C 
ATOM     31  C   UNL     1       0.002  -0.004   0.002  0.00  0.00    +0.229 C 
ENDBRANCH  29  31
ENDBRANCH  27  29
ENDBRANCH   1  27
BRANCH   8  32
ATOM     32  C   UNL     1      -2.570  -8.148  -0.146  0.00  0.00    -0.043 C 
BRANCH  32  33
ATOM     33  C   UNL     1      -2.708  -8.754  -1.519  0.00  0.00    -0.064 A 
ATOM     34  C   UNL     1      -3.960  -8.909  -2.083  0.00  0.00    +0.002 A 
ATOM     35  C   UNL     1      -4.087  -9.464  -3.343  0.00  0.00    +0.000 A 
ATOM     36  C   UNL     1      -2.961  -9.864  -4.039  0.00  0.00    +0.000 A 
ATOM     37  C   UNL     1      -1.709  -9.708  -3.475  0.00  0.00    +0.000 A 
ATOM     38  C   UNL     1      -1.582  -9.148  -2.217  0.00  0.00    +0.002 A 
ENDBRANCH  32  33
ENDBRANCH   8  32
TORSDOF 9
