REMARK  Name = ZINC00814131
REMARK  7 active torsions:
REMARK  status: ('A' for Active; 'I' for Inactive)
REMARK    1  A    between atoms: C_1  and  C_2
REMARK    2  A    between atoms: C_2  and  O_3
REMARK    3  A    between atoms: O_3  and  C_4
REMARK    4  A    between atoms: C_6  and  C_16
REMARK    5  A    between atoms: C_9  and  O_10
REMARK    6  A    between atoms: O_10  and  C_11
REMARK    7  A    between atoms: C_11  and  C_12
REMARK                            x       y       z     vdW  Elec       q    Type
REMARK                         _______ _______ _______ _____ _____    ______ ____
ROOT
ATOM      1  C   UNL     1      -0.148   1.182   2.381  0.00  0.00    +0.162 A 
ATOM      2  C   UNL     1       0.990   0.393   2.422  0.00  0.00    +0.055 A 
ATOM      3  C   UNL     1       1.534   0.027   3.639  0.00  0.00    -0.017 A 
ATOM      4  C   UNL     1       0.938   0.438   4.818  0.00  0.00    +0.048 A 
ATOM      5  C   UNL     1      -0.202   1.221   4.783  0.00  0.00    +0.069 A 
ATOM      6  C   UNL     1      -0.748   1.595   3.566  0.00  0.00    +0.164 A 
ATOM      7 CL   UNL     1       1.622  -0.029   6.343  0.00  0.00    -0.083 Cl
ENDROOT
BRANCH   3   8
ATOM      8  C   UNL     1       2.775  -0.827   3.681  0.00  0.00    +0.062 C 
ATOM      9  C   UNL     1       3.919  -0.097   2.976  0.00  0.00    +0.109 C 
ATOM     10  C   UNL     1       3.675  -0.090   1.490  0.00  0.00    +0.218 C 
ATOM     11  O   UNL     1       3.977   0.885   0.836  0.00  0.00    -0.275 OA
ATOM     12  N   UNL     1       3.127  -1.156   0.883  0.00  0.00    -0.285 N 
ATOM     13  C   UNL     1       2.667  -2.248   1.626  0.00  0.00    +0.038 A 
ATOM     14  C   UNL     1       2.506  -2.137   2.988  0.00  0.00    -0.011 A 
ATOM     15  C   UNL     1       2.088  -3.252   3.732  0.00  0.00    -0.012 A 
ATOM     16  C   UNL     1       1.932  -3.180   5.128  0.00  0.00    +0.009 A 
ATOM     17  C   UNL     1       1.525  -4.280   5.817  0.00  0.00    +0.001 A 
ATOM     18  C   UNL     1       1.260  -5.481   5.161  0.00  0.00    +0.001 A 
ATOM     19  C   UNL     1       1.400  -5.588   3.812  0.00  0.00    +0.008 A 
ATOM     20  C   UNL     1       1.819  -4.473   3.065  0.00  0.00    -0.017 A 
ATOM     21  C   UNL     1       1.976  -4.549   1.670  0.00  0.00    +0.010 A 
ATOM     22  C   UNL     1       2.392  -3.458   0.975  0.00  0.00    +0.024 A 
ATOM     23  H   UNL     1       3.048  -1.168  -0.084  0.00  0.00    +0.155 HD
ENDBRANCH   3   8
BRANCH   1  24
ATOM     24  O   UNL     1      -0.682   1.547   1.184  0.00  0.00    -0.489 OA
BRANCH  24  26
ATOM     25  C   UNL     1      -0.753   1.593  -1.232  0.00  0.00    +0.048 C 
ATOM     26  C   UNL     1      -0.013   1.086   0.008  0.00  0.00    +0.226 C 
ENDBRANCH  24  26
ENDBRANCH   1  24
BRANCH   6  27
ATOM     27  O   UNL     1      -1.869   2.365   3.530  0.00  0.00    -0.479 OA
BRANCH  27  28
ATOM     28  C   UNL     1      -2.430   2.753   4.786  0.00  0.00    +0.324 C 
BRANCH  28  29
ATOM     29  C   UNL     1      -3.657   3.595   4.549  0.00  0.00    +0.248 C 
ATOM     30  O   UNL     1      -4.015   3.840   3.416  0.00  0.00    -0.272 OA
ATOM     31  N   UNL     1      -4.356   4.077   5.596  0.00  0.00    -0.327 N 
ATOM     32  H   UNL     1      -4.070   3.881   6.502  0.00  0.00    +0.145 HD
ATOM     33  H   UNL     1      -5.146   4.620   5.443  0.00  0.00    +0.145 HD
ENDBRANCH  28  29
ENDBRANCH  27  28
ENDBRANCH   6  27
TORSDOF 6
