REMARK  Name = ZINC00877288
REMARK  10 active torsions:
REMARK  status: ('A' for Active; 'I' for Inactive)
REMARK    1  A    between atoms: C_1  and  C_2
REMARK    2  A    between atoms: C_6  and  O_36
REMARK    3  A    between atoms: C_14  and  S_15
REMARK    4  A    between atoms: S_15  and  C_16
REMARK    5  A    between atoms: C_16  and  C_17
REMARK    6  A    between atoms: N_19  and  C_20
REMARK    7  A    between atoms: C_23  and  S_26
REMARK    8  A    between atoms: S_26  and  N_29
REMARK    9  A    between atoms: N_29  and  C_30
REMARK   10  A    between atoms: O_36  and  C_37
REMARK                            x       y       z     vdW  Elec       q    Type
REMARK                         _______ _______ _______ _____ _____    ______ ____
ROOT
ATOM      1  C   UNL     1       0.338  -4.441  -0.027  0.00  0.00    +0.227 C 
ATOM      2  O   UNL     1       1.458  -4.906  -0.050  0.00  0.00    -0.275 OA
ATOM      3  N   UNL     1      -0.732  -5.262  -0.020  0.00  0.00    -0.285 N 
ATOM      4  H   UNL     1      -1.625  -4.893   0.066  0.00  0.00    +0.155 HD
ENDROOT
BRANCH   3   5
ATOM      5  C   UNL     1      -0.553  -6.645  -0.135  0.00  0.00    +0.034 A 
ATOM      6  C   UNL     1      -1.486  -7.412  -0.821  0.00  0.00    +0.025 A 
ATOM      7  C   UNL     1      -1.304  -8.776  -0.938  0.00  0.00    +0.030 A 
ATOM      8  C   UNL     1      -0.201  -9.380  -0.363  0.00  0.00    +0.105 A 
ATOM      9  C   UNL     1       0.726  -8.620   0.327  0.00  0.00    +0.030 A 
ATOM     10  C   UNL     1       0.553  -7.254   0.442  0.00  0.00    +0.025 A 
BRANCH   8  11
ATOM     11  S   UNL     1       0.024 -11.121  -0.508  0.00  0.00    +0.059 S 
ATOM     12  O   UNL     1      -0.695 -11.528  -1.665  0.00  0.00    -0.153 OA
ATOM     13  O   UNL     1       1.414 -11.366  -0.350  0.00  0.00    -0.153 OA
BRANCH  11  14
ATOM     14  N   UNL     1      -0.731 -11.822   0.788  0.00  0.00    -0.187 NA
ATOM     15  H   UNL     1      -0.210 -12.299   1.454  0.00  0.00    +0.148 HD
BRANCH  14  16
ATOM     16  C   UNL     1      -2.186 -11.723   0.931  0.00  0.00    +0.077 C 
ATOM     17  C   UNL     1      -2.529 -10.538   1.837  0.00  0.00    +0.020 C 
ATOM     18  C   UNL     1      -4.048 -10.434   1.986  0.00  0.00    +0.002 C 
ATOM     19  C   UNL     1      -4.589 -11.723   2.606  0.00  0.00    +0.000 C 
ATOM     20  C   UNL     1      -4.246 -12.908   1.701  0.00  0.00    +0.002 C 
ATOM     21  C   UNL     1      -2.727 -13.012   1.552  0.00  0.00    +0.020 C 
ENDBRANCH  14  16
ENDBRANCH  11  14
ENDBRANCH   8  11
ENDBRANCH   3   5
BRANCH   1  22
ATOM     22  C   UNL     1       0.142  -2.947  -0.009  0.00  0.00    +0.173 C 
BRANCH  22  23
ATOM     23  S   UNL     1       1.755  -2.127  -0.025  0.00  0.00    -0.076 S 
BRANCH  23  37
ATOM     24  C   UNL     1       0.807   4.240   0.056  0.00  0.00    +0.047 C 
ATOM     25  C   UNL     1       1.744   3.060   0.030  0.00  0.00    -0.005 A 
ATOM     26  C   UNL     1       3.081   3.264   0.013  0.00  0.00    +0.017 A 
ATOM     27  C   UNL     1       3.980   2.106  -0.013  0.00  0.00    +0.003 A 
ATOM     28  C   UNL     1       5.367   2.275  -0.032  0.00  0.00    +0.055 A 
ATOM     29  C   UNL     1       6.191   1.166  -0.057  0.00  0.00    +0.121 A 
ATOM     30  C   UNL     1       5.644  -0.114  -0.063  0.00  0.00    +0.048 A 
ATOM     31  C   UNL     1       4.277  -0.292  -0.044  0.00  0.00    +0.030 A 
ATOM     32  C   UNL     1       3.432   0.811  -0.019  0.00  0.00    +0.058 A 
ATOM     33  N   UNL     1       2.056   0.652   0.000  0.00  0.00    -0.270 N 
ATOM     34  C   UNL     1       1.220   1.746   0.024  0.00  0.00    +0.165 A 
ATOM     35  N   UNL     1      -0.016   1.281   0.038  0.00  0.00    -0.128 NA
ATOM     36  N   UNL     1       0.002  -0.004   0.024  0.00  0.00    -0.122 NA
ATOM     37  C   UNL     1       1.242  -0.442   0.001  0.00  0.00    +0.197 A 
BRANCH  29  38
ATOM     38  O   UNL     1       7.541   1.325  -0.076  0.00  0.00    -0.495 OA
ATOM     39  C   UNL     1       8.334   0.137  -0.101  0.00  0.00    +0.277 C 
ENDBRANCH  29  38
ENDBRANCH  23  37
ENDBRANCH  22  23
ENDBRANCH   1  22
TORSDOF 8
