REMARK  Name = ZINC12190059
REMARK  10 active torsions:
REMARK  status: ('A' for Active; 'I' for Inactive)
REMARK    1  A    between atoms: C_1  and  O_2
REMARK    2  A    between atoms: O_2  and  C_3
REMARK    3  A    between atoms: C_6  and  C_9
REMARK    4  A    between atoms: C_10  and  C_11
REMARK    5  A    between atoms: C_11  and  N_70
REMARK    6  A    between atoms: C_14  and  C_17
REMARK    7  A    between atoms: C_14  and  O_36
REMARK    8  A    between atoms: C_24  and  C_26
REMARK    9  A    between atoms: N_28  and  C_29
REMARK   10  A    between atoms: C_29  and  C_30
REMARK                            x       y       z     vdW  Elec       q    Type
REMARK                         _______ _______ _______ _____ _____    ______ ____
ROOT
ATOM      1  C   UNL     1      -2.506  13.955  -2.605  0.00  0.00    -0.075 C 
ATOM      2  C   UNL     1      -2.208  12.573  -2.018  0.00  0.00    +0.021 C 
ATOM      3  C   UNL     1      -2.016  11.570  -3.159  0.00  0.00    +0.088 C 
ATOM      4  C   UNL     1      -0.882  12.053  -4.067  0.00  0.00    +0.021 C 
ATOM      5  C   UNL     1      -1.218  13.450  -4.595  0.00  0.00    -0.075 C 
ATOM      6  N   UNL     1      -1.366  14.373  -3.449  0.00  0.00    +0.382 N 
ATOM      7  H   UNL     1      -0.508  14.346  -2.887  0.00  0.00    -0.081 HD
ENDROOT
BRANCH   3   8
ATOM      8  C   UNL     1      -1.664  10.220  -2.588  0.00  0.00    -0.015 A 
ATOM      9  C   UNL     1      -0.970  10.139  -1.388  0.00  0.00    +0.010 A 
ATOM     10  C   UNL     1      -0.638   8.915  -0.849  0.00  0.00    +0.047 A 
ATOM     11  C   UNL     1      -0.999   7.746  -1.510  0.00  0.00    +0.136 A 
ATOM     12  C   UNL     1      -1.702   7.835  -2.725  0.00  0.00    +0.021 A 
ATOM     13  C   UNL     1      -2.030   9.086  -3.255  0.00  0.00    +0.018 A 
ATOM     14  C   UNL     1      -1.922   6.455  -3.158  0.00  0.00    +0.063 A 
ATOM     15  C   UNL     1      -1.364   5.668  -2.202  0.00  0.00    +0.190 A 
ATOM     16  O   UNL     1      -0.820   6.439  -1.237  0.00  0.00    -0.450 OA
BRANCH  15  17
ATOM     17  C   UNL     1      -1.349   4.199  -2.219  0.00  0.00    +0.279 C 
ATOM     18  O   UNL     1      -1.869   3.596  -3.139  0.00  0.00    -0.267 OA
ATOM     19  N   UNL     1      -0.759   3.519  -1.216  0.00  0.00    -0.306 N 
ATOM     20  H   UNL     1      -0.344   4.000  -0.483  0.00  0.00    +0.149 HD
BRANCH  19  21
ATOM     21  C   UNL     1      -0.745   2.054  -1.233  0.00  0.00    +0.136 C 
BRANCH  21  22
ATOM     22  C   UNL     1      -0.019   1.537   0.011  0.00  0.00    +0.135 C 
ATOM     23  C   UNL     1       0.002  -0.004   0.002  0.00  0.00    +0.035 C 
ATOM     24  C   UNL     1       1.508  -0.363   0.039  0.00  0.00    +0.031 C 
ATOM     25  C   UNL     1       2.138   0.935   0.603  0.00  0.00    +0.160 C 
ATOM     26  O   UNL     1       1.348   1.983  -0.000  0.00  0.00    -0.375 OA
ENDBRANCH  21  22
ENDBRANCH  19  21
ENDBRANCH  15  17
ENDBRANCH   3   8
BRANCH   3  27
ATOM     27  O   UNL     1      -3.225  11.469  -3.914  0.00  0.00    -0.384 OA
ATOM     28  H   UNL     1      -3.175  10.850  -4.655  0.00  0.00    +0.211 HD
ENDBRANCH   3  27
BRANCH   6  29
ATOM     29  C   UNL     1      -1.578  15.752  -3.936  0.00  0.00    -0.051 C 
BRANCH  29  31
ATOM     30  C   UNL     1      -0.952  16.500  -6.189  0.00  0.00    +0.002 C 
ATOM     31  C   UNL     1      -0.558  16.061  -5.001  0.00  0.00    -0.045 C 
BRANCH  30  35
ATOM     32  C   UNL     1       1.923  17.372  -9.192  0.00  0.00    +0.120 A 
ATOM     33  C   UNL     1       0.571  17.547  -9.457  0.00  0.00    +0.046 A 
ATOM     34  C   UNL     1      -0.365  17.265  -8.485  0.00  0.00    +0.011 A 
ATOM     35  C   UNL     1       0.048  16.803  -7.234  0.00  0.00    -0.025 A 
ATOM     36  C   UNL     1       1.408  16.635  -6.970  0.00  0.00    +0.011 A 
ATOM     37  C   UNL     1       2.338  16.913  -7.949  0.00  0.00    +0.046 A 
BRANCH  32  39
ATOM     38  C   UNL     1       4.217  17.450  -9.814  0.00  0.00    +0.277 C 
ATOM     39  O   UNL     1       2.843  17.651 -10.153  0.00  0.00    -0.495 OA
ENDBRANCH  32  39
ENDBRANCH  30  35
ENDBRANCH  29  31
ENDBRANCH   6  29
TORSDOF 9
