REMARK  Name = ZINC06161782
REMARK  9 active torsions:
REMARK  status: ('A' for Active; 'I' for Inactive)
REMARK    1  A    between atoms: C_1  and  C_2
REMARK    2  A    between atoms: C_2  and  C_3
REMARK    3  A    between atoms: C_2  and  C_4
REMARK    4  A    between atoms: C_2  and  C_5
REMARK    5  A    between atoms: C_8  and  C_11
REMARK    6  A    between atoms: C_11  and  N_12
REMARK    7  A    between atoms: C_17  and  C_19
REMARK    8  A    between atoms: N_22  and  S_25
REMARK    9  A    between atoms: S_25  and  C_28
REMARK                            x       y       z     vdW  Elec       q    Type
REMARK                         _______ _______ _______ _____ _____    ______ ____
ROOT
ATOM      1  N   UNL     1      -1.022   6.852   8.692  0.00  0.00    -0.224 N 
ATOM      2  C   UNL     1      -0.919   6.279   7.455  0.00  0.00    +0.164 A 
ATOM      3  C   UNL     1       0.370   5.718   7.393  0.00  0.00    +0.195 A 
ATOM      4  C   UNL     1       0.743   5.051   6.212  0.00  0.00    +0.303 A 
ATOM      5  N   UNL     1      -0.132   4.987   5.217  0.00  0.00    -0.194 NA
ATOM      6  C   UNL     1      -1.330   5.534   5.321  0.00  0.00    +0.116 A 
ATOM      7  N   UNL     1      -1.727   6.163   6.406  0.00  0.00    -0.326 N 
ATOM      8  O   UNL     1       1.970   4.490   6.091  0.00  0.00    -0.263 OA
ATOM      9  N   UNL     1       0.984   5.966   8.563  0.00  0.00    -0.122 NA
ATOM     10  N   UNL     1       0.200   6.625   9.343  0.00  0.00    -0.063 NA
ATOM     11  H   UNL     1      -2.645   6.559   6.441  0.00  0.00    +0.169 HD
ENDROOT
BRANCH   6  12
ATOM     12  C   UNL     1      -2.277   5.433   4.153  0.00  0.00    +0.058 C 
ATOM     13  C   UNL     1      -1.653   6.109   2.931  0.00  0.00    +0.028 C 
ATOM     14  C   UNL     1      -2.633   6.035   1.755  0.00  0.00    +0.110 C 
ATOM     15  N   UNL     1      -3.010   4.631   1.542  0.00  0.00    -0.177 NA
ATOM     16  C   UNL     1      -3.542   3.862   2.675  0.00  0.00    +0.110 C 
ATOM     17  C   UNL     1      -2.547   3.959   3.841  0.00  0.00    +0.028 C 
BRANCH  15  18
ATOM     18  S   UNL     1      -2.845   3.931   0.050  0.00  0.00    +0.061 S 
ATOM     19  O   UNL     1      -3.018   4.967  -0.907  0.00  0.00    -0.153 OA
ATOM     20  O   UNL     1      -3.650   2.760   0.060  0.00  0.00    -0.153 OA
BRANCH  18  21
ATOM     21  C   UNL     1      -1.173   3.391  -0.090  0.00  0.00    +0.113 A 
ATOM     22  C   UNL     1      -0.382   3.322   1.016  0.00  0.00    +0.029 A 
ATOM     23  C   UNL     1       0.944   2.903   0.924  0.00  0.00    +0.003 A 
ATOM     24  C   UNL     1       1.482   2.538  -0.272  0.00  0.00    +0.008 A 
ATOM     25  C   UNL     1       0.694   2.590  -1.434  0.00  0.00    -0.016 A 
ATOM     26  C   UNL     1      -0.653   3.022  -1.342  0.00  0.00    +0.008 A 
ATOM     27  C   UNL     1      -1.441   3.074  -2.504  0.00  0.00    +0.010 A 
ATOM     28  C   UNL     1      -0.903   2.709  -3.699  0.00  0.00    +0.001 A 
ATOM     29  C   UNL     1       0.421   2.284  -3.790  0.00  0.00    +0.001 A 
ATOM     30  C   UNL     1       1.215   2.221  -2.686  0.00  0.00    +0.008 A 
ENDBRANCH  18  21
ENDBRANCH  15  18
ENDBRANCH   6  12
BRANCH   1  31
ATOM     31  C   UNL     1      -2.183   7.564   9.232  0.00  0.00    +0.182 C 
BRANCH  31  35
ATOM     32  C   UNL     1      -4.744   4.798  11.242  0.00  0.00    -0.042 A 
ATOM     33  C   UNL     1      -3.735   5.438  11.938  0.00  0.00    +0.004 A 
ATOM     34  C   UNL     1      -2.907   6.333  11.288  0.00  0.00    +0.006 A 
ATOM     35  C   UNL     1      -3.086   6.588   9.941  0.00  0.00    -0.026 A 
ATOM     36  C   UNL     1      -4.098   5.953   9.246  0.00  0.00    +0.006 A 
ATOM     37  C   UNL     1      -4.923   5.054   9.895  0.00  0.00    +0.004 A 
BRANCH  32  39
ATOM     38  C   UNL     1      -6.379   4.536  13.087  0.00  0.00    +0.015 C 
ATOM     39  C   UNL     1      -5.646   3.821  11.950  0.00  0.00    -0.013 C 
ATOM     40  C   UNL     1      -6.668   3.260  10.959  0.00  0.00    +0.015 C 
ATOM     41  C   UNL     1      -4.809   2.676  12.523  0.00  0.00    +0.015 C 
ENDBRANCH  32  39
ENDBRANCH  31  35
ENDBRANCH   1  31
TORSDOF 6
