REMARK  Name = ZINC39687271
REMARK  7 active torsions:
REMARK  status: ('A' for Active; 'I' for Inactive)
REMARK    1  A    between atoms: C_1  and  C_2
REMARK    2  A    between atoms: C_2  and  C_8
REMARK    3  A    between atoms: C_12  and  C_21
REMARK    4  A    between atoms: N_23  and  C_24
REMARK    5  A    between atoms: C_24  and  C_26
REMARK    6  A    between atoms: C_24  and  C_33
REMARK    7  A    between atoms: C_26  and  C_27
REMARK                            x       y       z     vdW  Elec       q    Type
REMARK                         _______ _______ _______ _____ _____    ______ ____
ROOT
ATOM      1  C   UNL     1      -2.597  -1.870   0.217  0.00  0.00    +0.222 C 
ATOM      2  O   UNL     1      -1.449  -1.671   0.554  0.00  0.00    -0.275 OA
ATOM      3  N   UNL     1      -3.117  -1.202  -0.832  0.00  0.00    -0.300 N 
ATOM      4  C   UNL     1      -2.419  -0.278  -1.756  0.00  0.00    +0.121 C 
ATOM      5  C   UNL     1      -3.011  -0.596  -3.147  0.00  0.00    +0.100 C 
ATOM      6  C   UNL     1      -4.387  -1.217  -2.856  0.00  0.00    -0.004 C 
ATOM      7  C   UNL     1      -4.514  -1.232  -1.326  0.00  0.00    +0.115 C 
ATOM      8  C   UNL     1      -4.450  -2.641  -3.398  0.00  0.00    -0.010 C 
ATOM      9  C   UNL     1      -5.846  -3.217  -3.147  0.00  0.00    -0.082 C 
ATOM     10  N   UNL     1      -6.851  -2.376  -3.809  0.00  0.00    +0.379 N 
ATOM     11  C   UNL     1      -6.847  -1.032  -3.217  0.00  0.00    -0.082 C 
ATOM     12  C   UNL     1      -5.493  -0.364  -3.471  0.00  0.00    -0.010 C 
ATOM     13  H   UNL     1      -6.636  -2.309  -4.793  0.00  0.00    -0.086 HD
ATOM     14  H   UNL     1      -7.763  -2.790  -3.693  0.00  0.00    -0.086 HD
ENDROOT
BRANCH   1  16
ATOM     15  C   UNL     1      -3.799  -4.033   0.050  0.00  0.00    +0.021 C 
ATOM     16  C   UNL     1      -3.442  -2.865   0.971  0.00  0.00    +0.044 C 
ATOM     17  C   UNL     1      -4.726  -2.183   1.450  0.00  0.00    +0.016 C 
ATOM     18  C   UNL     1      -4.369  -1.015   2.371  0.00  0.00    +0.001 C 
ATOM     19  C   UNL     1      -3.588  -1.537   3.579  0.00  0.00    +0.000 C 
ATOM     20  C   UNL     1      -2.304  -2.218   3.099  0.00  0.00    +0.001 C 
ATOM     21  C   UNL     1      -2.661  -3.387   2.178  0.00  0.00    +0.016 C 
ENDBRANCH   1  16
BRANCH   5  22
ATOM     22  C   UNL     1      -2.133  -1.579  -3.878  0.00  0.00    +0.219 C 
ATOM     23  O   UNL     1      -1.449  -2.362  -3.254  0.00  0.00    -0.275 OA
ATOM     24  N   UNL     1      -2.108  -1.588  -5.226  0.00  0.00    -0.303 N 
ATOM     25  H   UNL     1      -2.598  -0.916  -5.724  0.00  0.00    +0.149 HD
BRANCH  24  26
ATOM     26  C   UNL     1      -1.340  -2.613  -5.937  0.00  0.00    +0.163 C 
BRANCH  26  27
ATOM     27  C   UNL     1       0.117  -2.228  -5.955  0.00  0.00    +0.236 C 
ATOM     28  O   UNL     1       0.439  -1.068  -5.808  0.00  0.00    -0.274 OA
ATOM     29  N   UNL     1       1.061  -3.172  -6.135  0.00  0.00    -0.300 N 
ATOM     30  C   UNL     1       0.685  -4.559  -6.440  0.00  0.00    +0.108 C 
ATOM     31  C   UNL     1       1.416  -5.000  -7.712  0.00  0.00    +0.019 C 
ATOM     32  C   UNL     1       2.920  -4.782  -7.532  0.00  0.00    +0.003 C 
ATOM     33  C   UNL     1       3.198  -3.294  -7.307  0.00  0.00    +0.019 C 
ATOM     34  C   UNL     1       2.487  -2.832  -6.037  0.00  0.00    +0.108 C 
ENDBRANCH  26  27
BRANCH  26  35
ATOM     35  C   UNL     1      -1.855  -2.730  -7.373  0.00  0.00    +0.067 C 
BRANCH  35  36
ATOM     36  C   UNL     1      -3.272  -3.243  -7.359  0.00  0.00    -0.045 A 
ATOM     37  C   UNL     1      -3.515  -4.603  -7.401  0.00  0.00    +0.004 A 
ATOM     38  C   UNL     1      -4.814  -5.074  -7.388  0.00  0.00    +0.000 A 
ATOM     39  C   UNL     1      -5.871  -4.184  -7.333  0.00  0.00    +0.000 A 
ATOM     40  C   UNL     1      -5.628  -2.824  -7.290  0.00  0.00    +0.000 A 
ATOM     41  C   UNL     1      -4.328  -2.354  -7.299  0.00  0.00    +0.004 A 
ENDBRANCH  35  36
ENDBRANCH  26  35
ENDBRANCH  24  26
ENDBRANCH   5  22
TORSDOF 6
