REMARK  Name = ZINC09671893
REMARK  9 active torsions:
REMARK  status: ('A' for Active; 'I' for Inactive)
REMARK    1  A    between atoms: C_1  and  C_2
REMARK    2  A    between atoms: C_2  and  N_3
REMARK    3  A    between atoms: N_3  and  C_4
REMARK    4  A    between atoms: C_5  and  N_20
REMARK    5  A    between atoms: N_6  and  C_13
REMARK    6  A    between atoms: C_13  and  C_14
REMARK    7  A    between atoms: C_21  and  C_23
REMARK    8  A    between atoms: C_23  and  N_59
REMARK    9  A    between atoms: C_27  and  C_29
REMARK                            x       y       z     vdW  Elec       q    Type
REMARK                         _______ _______ _______ _____ _____    ______ ____
ROOT
ATOM      1  C   UNL     1       3.855   5.987  -5.385  0.00  0.00    +0.140 A 
ATOM      2  C   UNL     1       5.080   6.510  -5.024  0.00  0.00    +0.128 A 
ATOM      3  N   UNL     1       6.173   6.278  -5.826  0.00  0.00    -0.276 N 
ATOM      4  C   UNL     1       6.049   5.549  -6.950  0.00  0.00    +0.331 A 
ATOM      5  O   UNL     1       7.027   5.355  -7.646  0.00  0.00    -0.246 OA
ATOM      6  N   UNL     1       4.864   5.030  -7.318  0.00  0.00    -0.273 N 
ATOM      7  H   UNL     1       4.799   4.495  -8.160  0.00  0.00    +0.173 HD
ATOM      8  C   UNL     1       3.764   5.224  -6.564  0.00  0.00    +0.277 A 
ATOM      9  O   UNL     1       2.695   4.745  -6.905  0.00  0.00    -0.266 OA
ENDROOT
BRANCH   1  10
ATOM     10  N   UNL     1       2.716   6.207  -4.583  0.00  0.00    -0.266 N 
ATOM     11  C   UNL     1       2.666   5.708  -3.330  0.00  0.00    +0.203 C 
ATOM     12  O   UNL     1       3.563   5.000  -2.923  0.00  0.00    -0.277 OA
BRANCH  10  14
ATOM     13  C   UNL     1       1.782   8.459  -4.779  0.00  0.00    +0.025 C 
ATOM     14  C   UNL     1       1.587   6.978  -5.110  0.00  0.00    +0.110 C 
ENDBRANCH  10  14
BRANCH  11  15
ATOM     15  C   UNL     1       1.495   6.030  -2.437  0.00  0.00    +0.020 C 
BRANCH  15  20
ATOM     16  C   UNL     1       2.787   5.986  -0.384  0.00  0.00    -0.077 C 
ATOM     17  C   UNL     1       2.216   6.456   0.970  0.00  0.00    -0.020 C 
ATOM     18  C   UNL     1       0.948   5.578   1.142  0.00  0.00    -0.012 C 
ATOM     19  C   UNL     1       0.447   5.465  -0.320  0.00  0.00    -0.030 C 
ATOM     20  N   UNL     1       1.680   5.358  -1.125  0.00  0.00    +0.390 N 
ATOM     21  H   UNL     1       1.897   4.367  -1.284  0.00  0.00    -0.080 HD
BRANCH  19  22
ATOM     22  C   UNL     1      -0.392   4.225  -0.493  0.00  0.00    -0.024 A 
ATOM     23  C   UNL     1      -1.740   4.111  -0.572  0.00  0.00    +0.009 A 
ATOM     24  C   UNL     1      -2.298   2.858  -0.738  0.00  0.00    +0.008 A 
ATOM     25  C   UNL     1      -1.482   1.778  -0.807  0.00  0.00    +0.045 A 
ATOM     26  S   UNL     1       0.132   2.525  -0.647  0.00  0.00    -0.103 S 
ENDBRANCH  19  22
ENDBRANCH  15  20
ENDBRANCH  11  15
ENDBRANCH   1  10
BRANCH   2  27
ATOM     27  N   UNL     1       5.206   7.255  -3.876  0.00  0.00    -0.343 N 
ATOM     28  H   UNL     1       4.438   7.393  -3.300  0.00  0.00    +0.144 HD
ATOM     29  H   UNL     1       6.064   7.643  -3.641  0.00  0.00    +0.144 HD
ENDBRANCH   2  27
BRANCH   3  30
ATOM     30  C   UNL     1       7.479   6.827  -5.455  0.00  0.00    +0.163 C 
BRANCH  30  31
ATOM     31  C   UNL     1       8.215   5.835  -4.592  0.00  0.00    -0.028 A 
ATOM     32  C   UNL     1       8.072   5.874  -3.218  0.00  0.00    +0.005 A 
ATOM     33  C   UNL     1       8.743   4.960  -2.427  0.00  0.00    +0.000 A 
ATOM     34  C   UNL     1       9.566   4.014  -3.010  0.00  0.00    +0.000 A 
ATOM     35  C   UNL     1       9.713   3.979  -4.384  0.00  0.00    +0.000 A 
ATOM     36  C   UNL     1       9.037   4.889  -5.175  0.00  0.00    +0.005 A 
ENDBRANCH  30  31
ENDBRANCH   3  30
TORSDOF 8
