REMARK  Name = ZINC40658162
REMARK  9 active torsions:
REMARK  status: ('A' for Active; 'I' for Inactive)
REMARK    1  A    between atoms: C_3  and  N_29
REMARK    2  A    between atoms: C_6  and  C_7
REMARK    3  A    between atoms: N_9  and  N_10
REMARK    4  A    between atoms: C_12  and  N_26
REMARK    5  A    between atoms: C_13  and  N_17
REMARK    6  A    between atoms: N_17  and  C_18
REMARK    7  A    between atoms: C_18  and  C_19
REMARK    8  A    between atoms: C_19  and  C_20
REMARK    9  A    between atoms: C_20  and  N_21
REMARK                            x       y       z     vdW  Elec       q    Type
REMARK                         _______ _______ _______ _____ _____    ______ ____
ROOT
ATOM      1  N   UNL     1      -2.446  -2.831   0.011  0.00  0.00    -0.246 N 
ATOM      2  C   UNL     1      -2.424  -4.218   0.004  0.00  0.00    +0.171 A 
ATOM      3  C   UNL     1      -3.612  -4.943   0.006  0.00  0.00    +0.206 A 
ATOM      4  C   UNL     1      -3.536  -6.332  -0.003  0.00  0.00    +0.154 A 
ATOM      5  N   UNL     1      -2.337  -6.913  -0.013  0.00  0.00    -0.218 NA
ATOM      6  C   UNL     1      -1.236  -6.192  -0.014  0.00  0.00    +0.225 A 
ATOM      7  N   UNL     1      -1.266  -4.874  -0.011  0.00  0.00    -0.217 NA
ATOM      8  H   UNL     1      -3.294  -2.360   0.022  0.00  0.00    +0.172 HD
ENDROOT
BRANCH   1  11
ATOM      9  C   UNL     1      -1.266  -0.764   0.011  0.00  0.00    +0.260 C 
ATOM     10  O   UNL     1      -2.329  -0.173   0.024  0.00  0.00    -0.269 OA
ATOM     11  N   UNL     1      -1.244  -2.111   0.003  0.00  0.00    -0.231 N 
ATOM     12  H   UNL     1      -0.397  -2.583  -0.008  0.00  0.00    +0.173 HD
BRANCH   9  18
ATOM     13  C   UNL     1      -0.017   1.391   0.010  0.00  0.00    +0.015 A 
ATOM     14  C   UNL     1       1.170   2.095   0.002  0.00  0.00    +0.033 A 
ATOM     15  C   UNL     1       2.378   1.419  -0.013  0.00  0.00    +0.126 A 
ATOM     16  C   UNL     1       2.403   0.036  -0.021  0.00  0.00    +0.033 A 
ATOM     17  C   UNL     1       1.224  -0.679  -0.014  0.00  0.00    +0.015 A 
ATOM     18  C   UNL     1       0.002  -0.004   0.002  0.00  0.00    +0.038 A 
BRANCH  15  19
ATOM     19  N   UNL     1       3.647   2.180  -0.021  0.00  0.00    +0.056 N 
ATOM     20  O   UNL     1       3.628   3.389  -0.014  0.00  0.00    -0.126 OA
ATOM     21  O   UNL     1       4.704   1.592  -0.034  0.00  0.00    -0.126 OA
ENDBRANCH  15  19
ENDBRANCH   9  18
ENDBRANCH   1  11
BRANCH   3  22
ATOM     22  N   UNL     1      -4.922  -4.254   0.017  0.00  0.00    +0.063 N 
ATOM     23  O   UNL     1      -5.463  -3.966  -1.025  0.00  0.00    -0.126 OA
ATOM     24  O   UNL     1      -5.452  -3.979   1.069  0.00  0.00    -0.126 OA
ENDBRANCH   3  22
BRANCH   4  25
ATOM     25  N   UNL     1      -4.690  -7.099  -0.001  0.00  0.00    -0.327 N 
ATOM     26  H   UNL     1      -5.559  -6.669   0.007  0.00  0.00    +0.148 HD
BRANCH  25  27
ATOM     27  C   UNL     1      -4.598  -8.562  -0.010  0.00  0.00    +0.105 C 
BRANCH  27  28
ATOM     28  C   UNL     1      -6.005  -9.162  -0.005  0.00  0.00    +0.040 C 
BRANCH  28  29
ATOM     29  C   UNL     1      -5.908 -10.689  -0.015  0.00  0.00    +0.124 C 
BRANCH  29  30
ATOM     30  N   UNL     1      -7.256 -11.263  -0.010  0.00  0.00    -0.338 N 
ATOM     31  C   UNL     1      -7.999 -11.583   1.094  0.00  0.00    +0.104 A 
ATOM     32  C   UNL     1      -9.168 -12.079   0.646  0.00  0.00    +0.101 A 
ATOM     33  N   UNL     1      -9.139 -12.063  -0.695  0.00  0.00    -0.352 N 
ATOM     34  C   UNL     1      -7.999 -11.571  -1.095  0.00  0.00    +0.173 A 
ATOM     35  H   UNL     1      -9.855 -12.367  -1.275  0.00  0.00    +0.166 HD
ENDBRANCH  29  30
ENDBRANCH  28  29
ENDBRANCH  27  28
ENDBRANCH  25  27
ENDBRANCH   4  25
TORSDOF 9
