REMARK  Name = ZINC12498114
REMARK  12 active torsions:
REMARK  status: ('A' for Active; 'I' for Inactive)
REMARK    1  A    between atoms: C_1  and  C_2
REMARK    2  A    between atoms: C_2  and  C_3
REMARK    3  A    between atoms: C_3  and  C_4
REMARK    4  A    between atoms: C_4  and  C_32
REMARK    5  A    between atoms: C_9  and  C_11
REMARK    6  A    between atoms: C_14  and  O_17
REMARK    7  A    between atoms: N_20  and  C_23
REMARK    8  A    between atoms: C_27  and  C_29
REMARK    9  A    between atoms: C_29  and  C_31
REMARK   10  A    between atoms: C_32  and  O_34
REMARK   11  A    between atoms: O_34  and  C_35
REMARK   12  A    between atoms: C_35  and  C_36
REMARK                            x       y       z     vdW  Elec       q    Type
REMARK                         _______ _______ _______ _____ _____    ______ ____
ROOT
ATOM      1  C   UNL     1      -1.338   4.533   0.050  0.00  0.00    +0.044 C 
ATOM      2  C   UNL     1      -0.808   3.994   1.357  0.00  0.00    +0.086 C 
ATOM      3  C   UNL     1      -1.621   2.639   1.378  0.00  0.00    +0.077 C 
ATOM      4  C   UNL     1      -1.333   2.113   0.020  0.00  0.00    -0.027 C 
ATOM      5  C   UNL     1      -1.308   2.194   2.737  0.00  0.00    +0.229 C 
ATOM      6  O   UNL     1      -1.139   1.054   3.112  0.00  0.00    -0.275 OA
ATOM      7  N   UNL     1      -1.233   3.342   3.486  0.00  0.00    -0.210 N 
ATOM      8  C   UNL     1      -1.162   4.471   2.713  0.00  0.00    +0.229 C 
ATOM      9  O   UNL     1      -1.349   5.616   3.065  0.00  0.00    -0.275 OA
ATOM     10  N   UNL     1      -1.259   3.332  -0.836  0.00  0.00    +0.395 N 
ATOM     11  H   UNL     1      -0.372   3.340  -1.353  0.00  0.00    -0.083 HD
ATOM     12  H   UNL     1      -2.042   3.338  -1.499  0.00  0.00    -0.083 HD
ENDROOT
BRANCH   4  13
ATOM     13  C   UNL     1      -0.017   1.378   0.010  0.00  0.00    -0.060 A 
ATOM     14  C   UNL     1       1.170   2.088   0.002  0.00  0.00    +0.005 A 
ATOM     15  C   UNL     1       2.377   1.417  -0.013  0.00  0.00    +0.045 A 
ATOM     16  C   UNL     1       2.399   0.030  -0.021  0.00  0.00    +0.117 A 
ATOM     17  C   UNL     1       1.207  -0.680  -0.014  0.00  0.00    +0.045 A 
ATOM     18  C   UNL     1       0.002  -0.004   0.002  0.00  0.00    +0.005 A 
BRANCH  16  19
ATOM     19  O   UNL     1       3.586  -0.632  -0.037  0.00  0.00    -0.507 OA
ATOM     20  H   UNL     1       3.920  -0.818  -0.925  0.00  0.00    +0.292 HD
ENDBRANCH  16  19
ENDBRANCH   4  13
BRANCH   7  21
ATOM     21  C   UNL     1      -1.231   3.357   4.888  0.00  0.00    +0.045 A 
ATOM     22  C   UNL     1      -1.153   4.566   5.570  0.00  0.00    +0.024 A 
ATOM     23  C   UNL     1      -1.151   4.588   6.952  0.00  0.00    +0.003 A 
ATOM     24  C   UNL     1      -1.226   3.410   7.666  0.00  0.00    +0.011 A 
ATOM     25  C   UNL     1      -1.304   2.188   6.991  0.00  0.00    +0.019 A 
ATOM     26  C   UNL     1      -1.312   2.168   5.593  0.00  0.00    +0.035 A 
BRANCH  25  27
ATOM     27  C   UNL     1      -1.384   0.929   7.749  0.00  0.00    +0.160 C 
ATOM     28  O   UNL     1      -1.453  -0.129   7.161  0.00  0.00    -0.292 OA
ATOM     29  C   UNL     1      -1.382   0.955   9.256  0.00  0.00    +0.091 C 
ENDBRANCH  25  27
ENDBRANCH   7  21
BRANCH   1  30
ATOM     30  C   UNL     1      -2.763   4.999   0.196  0.00  0.00    +0.297 C 
ATOM     31  O   UNL     1      -3.152   5.434   1.254  0.00  0.00    -0.252 OA
BRANCH  30  32
ATOM     32  O   UNL     1      -3.602   4.932  -0.851  0.00  0.00    -0.466 OA
BRANCH  32  33
ATOM     33  C   UNL     1      -4.960   5.399  -0.638  0.00  0.00    +0.228 C 
ATOM     34  C   UNL     1      -5.761   5.246  -1.933  0.00  0.00    +0.048 C 
ENDBRANCH  32  33
ENDBRANCH  30  32
ENDBRANCH   1  30
BRANCH   1  35
ATOM     35  C   UNL     1      -0.449   5.664  -0.472  0.00  0.00    -0.001 C 
BRANCH  35  37
ATOM     36  C   UNL     1      -0.041   7.222  -2.382  0.00  0.00    +0.004 C 
ATOM     37  C   UNL     1      -0.930   6.092  -1.860  0.00  0.00    -0.004 C 
ENDBRANCH  35  37
ENDBRANCH   1  35
TORSDOF 9
