REMARK  Name = ZINC64198047
REMARK  6 active torsions:
REMARK  status: ('A' for Active; 'I' for Inactive)
REMARK    1  A    between atoms: C_1  and  O_2
REMARK    2  A    between atoms: O_2  and  C_3
REMARK    3  A    between atoms: C_10  and  C_18
REMARK    4  A    between atoms: C_20  and  O_36
REMARK    5  A    between atoms: C_23  and  O_35
REMARK    6  A    between atoms: N_25  and  C_28
REMARK                            x       y       z     vdW  Elec       q    Type
REMARK                         _______ _______ _______ _____ _____    ______ ____
ROOT
ATOM      1  C   UNL     1      -4.603  -4.206   2.414  0.00  0.00    +0.138 C 
ATOM      2  C   UNL     1      -5.215  -5.022   3.556  0.00  0.00    +0.199 C 
ATOM      3  N   UNL     1      -5.191  -4.203   4.779  0.00  0.00    -0.250 NA
ATOM      4  C   UNL     1      -6.133  -3.083   4.664  0.00  0.00    +0.287 C 
ATOM      5  N   UNL     1      -5.895  -2.337   3.434  0.00  0.00    -0.230 N 
ATOM      6  C   UNL     1      -5.218  -2.834   2.393  0.00  0.00    +0.231 C 
ATOM      7  O   UNL     1      -5.096  -2.154   1.397  0.00  0.00    -0.275 OA
ATOM      8  H   UNL     1      -5.393  -4.763   5.594  0.00  0.00    +0.128 HD
ENDROOT
BRANCH   1  15
ATOM      9  C   UNL     1       0.444  -2.781   0.803  0.00  0.00    +0.121 A 
ATOM     10  C   UNL     1      -0.240  -1.592   0.494  0.00  0.00    +0.047 A 
ATOM     11  C   UNL     1      -1.560  -1.568   0.211  0.00  0.00    +0.029 A 
ATOM     12  C   UNL     1      -2.332  -2.813   0.221  0.00  0.00    +0.043 A 
ATOM     13  N   UNL     1      -3.605  -3.057   0.009  0.00  0.00    -0.376 N 
ATOM     14  C   UNL     1      -3.813  -4.500   0.058  0.00  0.00    +0.124 C 
ATOM     15  C   UNL     1      -4.875  -4.908   1.083  0.00  0.00    +0.096 C 
ATOM     16  N   UNL     1      -4.805  -6.367   1.266  0.00  0.00    -0.310 NA
ATOM     17  C   UNL     1      -3.559  -6.810   1.900  0.00  0.00    +0.085 C 
ATOM     18  C   UNL     1      -2.364  -6.521   0.974  0.00  0.00    +0.048 C 
ATOM     19  C   UNL     1      -2.489  -5.081   0.528  0.00  0.00    -0.036 C 
ATOM     20  C   UNL     1      -1.614  -4.069   0.557  0.00  0.00    +0.003 A 
ATOM     21  C   UNL     1      -0.176  -3.984   0.839  0.00  0.00    +0.055 A 
ATOM     22  H   UNL     1      -5.609  -6.707   1.772  0.00  0.00    +0.122 HD
ATOM     23  H   UNL     1      -4.291  -2.390  -0.152  0.00  0.00    +0.160 HD
BRANCH   9  25
ATOM     24  C   UNL     1       2.389  -1.432   1.023  0.00  0.00    +0.277 C 
ATOM     25  O   UNL     1       1.775  -2.721   1.071  0.00  0.00    -0.495 OA
ENDBRANCH   9  25
ENDBRANCH   1  15
BRANCH   5  26
ATOM     26  C   UNL     1      -6.402  -1.036   3.337  0.00  0.00    +0.058 A 
ATOM     27  C   UNL     1      -5.629   0.044   3.744  0.00  0.00    +0.025 A 
ATOM     28  C   UNL     1      -6.131   1.327   3.647  0.00  0.00    +0.002 A 
ATOM     29  C   UNL     1      -7.403   1.537   3.146  0.00  0.00    +0.002 A 
ATOM     30  C   UNL     1      -8.176   0.465   2.740  0.00  0.00    +0.022 A 
ATOM     31  C   UNL     1      -7.677  -0.821   2.829  0.00  0.00    +0.062 A 
ATOM     32 CL   UNL     1      -8.646  -2.166   2.314  0.00  0.00    -0.082 Cl
ENDBRANCH   5  26
BRANCH   4  33
ATOM     33  O   UNL     1      -7.469  -3.591   4.656  0.00  0.00    -0.361 OA
ATOM     34  H   UNL     1      -7.706  -4.085   5.452  0.00  0.00    +0.213 HD
ENDBRANCH   4  33
BRANCH   2  35
ATOM     35  O   UNL     1      -6.563  -5.368   3.231  0.00  0.00    -0.376 OA
ATOM     36  H   UNL     1      -7.011  -5.887   3.913  0.00  0.00    +0.211 HD
ENDBRANCH   2  35
TORSDOF 5
