REMARK  Name = ZINC32625339
REMARK  9 active torsions:
REMARK  status: ('A' for Active; 'I' for Inactive)
REMARK    1  A    between atoms: C_3  and  C_22
REMARK    2  A    between atoms: C_5  and  C_7
REMARK    3  A    between atoms: N_9  and  C_10
REMARK    4  A    between atoms: C_10  and  C_11
REMARK    5  A    between atoms: C_11  and  C_12
REMARK    6  A    between atoms: C_15  and  S_18
REMARK    7  A    between atoms: S_18  and  N_21
REMARK    8  A    between atoms: C_23  and  C_24
REMARK    9  A    between atoms: C_24  and  O_30
REMARK                            x       y       z     vdW  Elec       q    Type
REMARK                         _______ _______ _______ _____ _____    ______ ____
ROOT
ATOM      1  C   UNL     1       6.643   0.945  -4.992  0.00  0.00    +0.244 C 
ATOM      2  O   UNL     1       7.181   1.692  -4.199  0.00  0.00    -0.270 OA
ATOM      3  N   UNL     1       7.298   0.557  -6.104  0.00  0.00    -0.311 N 
ATOM      4  H   UNL     1       6.810  -0.119  -6.822  0.00  0.00    +0.149 HD
ENDROOT
BRANCH   1   9
ATOM      5  C   UNL     1       3.364  -0.846  -5.413  0.00  0.00    +0.002 A 
ATOM      6  C   UNL     1       2.688  -0.458  -4.273  0.00  0.00    +0.017 A 
ATOM      7  C   UNL     1       3.294   0.404  -3.357  0.00  0.00    +0.026 A 
ATOM      8  C   UNL     1       4.589   0.863  -3.589  0.00  0.00    +0.030 A 
ATOM      9  C   UNL     1       5.268   0.463  -4.738  0.00  0.00    +0.038 A 
ATOM     10  C   UNL     1       4.647  -0.395  -5.649  0.00  0.00    +0.013 A 
BRANCH   7  11
ATOM     11  C   UNL     1       2.589   0.811  -2.179  0.00  0.00    -0.063 C 
ATOM     12  C   UNL     1       2.011   1.144  -1.213  0.00  0.00    -0.062 C 
BRANCH  12  13
ATOM     13  C   UNL     1       1.286   1.562  -0.002  0.00  0.00    +0.127 C 
ATOM     14  C   UNL     1       2.064   1.114   1.238  0.00  0.00    +0.048 C 
ATOM     15  C   UNL     1       3.453   1.755   1.228  0.00  0.00    +0.004 C 
ATOM     16  C   UNL     1       3.311   3.279   1.237  0.00  0.00    +0.000 C 
ATOM     17  C   UNL     1       2.534   3.726  -0.002  0.00  0.00    +0.004 C 
ATOM     18  C   UNL     1       1.145   3.085   0.008  0.00  0.00    +0.048 C 
BRANCH  13  19
ATOM     19  O   UNL     1      -0.011   0.963   0.007  0.00  0.00    -0.377 OA
ATOM     20  H   UNL     1      -0.702   1.160   0.840  0.00  0.00    +0.211 HD
ENDBRANCH  13  19
ENDBRANCH  12  13
ENDBRANCH   7  11
ENDBRANCH   1   9
BRANCH   3  21
ATOM     21  C   UNL     1       8.660   1.035  -6.356  0.00  0.00    +0.109 C 
BRANCH  21  22
ATOM     22  C   UNL     1       9.170   0.450  -7.675  0.00  0.00    +0.054 C 
BRANCH  22  23
ATOM     23  C   UNL     1      10.570   0.941  -7.934  0.00  0.00    -0.046 A 
ATOM     24  C   UNL     1      10.772   2.108  -8.647  0.00  0.00    +0.005 A 
ATOM     25  C   UNL     1      12.057   2.561  -8.881  0.00  0.00    +0.029 A 
ATOM     26  C   UNL     1      13.140   1.843  -8.410  0.00  0.00    +0.105 A 
ATOM     27  C   UNL     1      12.938   0.673  -7.701  0.00  0.00    +0.029 A 
ATOM     28  C   UNL     1      11.653   0.222  -7.463  0.00  0.00    +0.005 A 
BRANCH  26  29
ATOM     29  S   UNL     1      14.778   2.418  -8.712  0.00  0.00    +0.056 S 
ATOM     30  O   UNL     1      14.683   3.820  -8.926  0.00  0.00    -0.153 OA
ATOM     31  O   UNL     1      15.599   1.856  -7.698  0.00  0.00    -0.153 OA
BRANCH  29  32
ATOM     32  N   UNL     1      15.274   1.754 -10.146  0.00  0.00    -0.204 NA
ATOM     33  H   UNL     1      16.297   2.090 -10.371  0.00  0.00    +0.144 HD
ATOM     34  H   UNL     1      14.597   2.073 -10.951  0.00  0.00    +0.144 HD
ENDBRANCH  29  32
ENDBRANCH  26  29
ENDBRANCH  22  23
ENDBRANCH  21  22
ENDBRANCH   3  21
TORSDOF 9
