REMARK  Name = ZINC07375731
REMARK  7 active torsions:
REMARK  status: ('A' for Active; 'I' for Inactive)
REMARK    1  A    between atoms: C_3  and  S_24
REMARK    2  A    between atoms: C_6  and  C_7
REMARK    3  A    between atoms: C_7  and  N_8
REMARK    4  A    between atoms: N_8  and  S_9
REMARK    5  A    between atoms: S_9  and  C_12
REMARK    6  A    between atoms: C_15  and  C_18
REMARK    7  A    between atoms: S_24  and  N_27
REMARK                            x       y       z     vdW  Elec       q    Type
REMARK                         _______ _______ _______ _____ _____    ______ ____
ROOT
ATOM      1  N   UNL     1       1.157   4.074   1.394  0.00  0.00    -0.186 NA
ATOM      2  H   UNL     1       0.954   3.464   2.120  0.00  0.00    +0.148 HD
ENDROOT
BRANCH   1   3
ATOM      3  S   UNL     1       1.510   5.659   1.717  0.00  0.00    +0.059 S 
ATOM      4  O   UNL     1       1.409   5.818   3.126  0.00  0.00    -0.153 OA
ATOM      5  O   UNL     1       2.696   5.966   0.999  0.00  0.00    -0.153 OA
BRANCH   3   6
ATOM      6  C   UNL     1       0.225   6.634   1.008  0.00  0.00    +0.105 A 
ATOM      7  C   UNL     1       0.342   7.092  -0.291  0.00  0.00    +0.029 A 
ATOM      8  C   UNL     1      -0.668   7.853  -0.850  0.00  0.00    +0.006 A 
ATOM      9  C   UNL     1      -1.791   8.164  -0.106  0.00  0.00    -0.044 A 
ATOM     10  C   UNL     1      -1.906   7.710   1.195  0.00  0.00    +0.006 A 
ATOM     11  C   UNL     1      -0.898   6.945   1.752  0.00  0.00    +0.029 A 
BRANCH   9  12
ATOM     12  C   UNL     1      -2.889   8.998  -0.713  0.00  0.00    +0.019 C 
ATOM     13  C   UNL     1      -3.449   8.286  -1.946  0.00  0.00    +0.008 C 
ATOM     14  C   UNL     1      -4.564   9.133  -2.562  0.00  0.00    +0.001 C 
ATOM     15  C   UNL     1      -4.003  10.496  -2.971  0.00  0.00    +0.000 C 
ATOM     16  C   UNL     1      -3.443  11.208  -1.738  0.00  0.00    +0.001 C 
ATOM     17  C   UNL     1      -2.328  10.361  -1.122  0.00  0.00    +0.008 C 
ENDBRANCH   9  12
ENDBRANCH   3   6
ENDBRANCH   1   3
BRANCH   1  18
ATOM     18  C   UNL     1       1.151   3.592   0.010  0.00  0.00    +0.141 C 
BRANCH  18  24
ATOM     19  C   UNL     1      -0.017   1.378   0.010  0.00  0.00    +0.007 A 
ATOM     20  C   UNL     1       0.002  -0.004   0.002  0.00  0.00    +0.029 A 
ATOM     21  C   UNL     1       1.208  -0.679  -0.013  0.00  0.00    +0.105 A 
ATOM     22  C   UNL     1       2.396   0.029  -0.021  0.00  0.00    +0.029 A 
ATOM     23  C   UNL     1       2.377   1.411  -0.015  0.00  0.00    +0.007 A 
ATOM     24  C   UNL     1       1.171   2.086   0.002  0.00  0.00    -0.032 A 
BRANCH  21  25
ATOM     25  S   UNL     1       1.232  -2.441  -0.022  0.00  0.00    +0.056 S 
ATOM     26  O   UNL     1       2.489  -2.832   0.515  0.00  0.00    -0.153 OA
ATOM     27  O   UNL     1      -0.002  -2.866   0.539  0.00  0.00    -0.153 OA
BRANCH  25  28
ATOM     28  N   UNL     1       1.223  -2.923  -1.606  0.00  0.00    -0.204 NA
ATOM     29  H   UNL     1       1.207  -2.260  -2.314  0.00  0.00    +0.144 HD
ATOM     30  H   UNL     1       1.234  -3.868  -1.825  0.00  0.00    +0.144 HD
ENDBRANCH  25  28
ENDBRANCH  21  25
ENDBRANCH  18  24
ENDBRANCH   1  18
TORSDOF 7
