REMARK  Name = ZINC33171884
REMARK  10 active torsions:
REMARK  status: ('A' for Active; 'I' for Inactive)
REMARK    1  A    between atoms: C_1  and  C_2
REMARK    2  A    between atoms: C_2  and  C_4
REMARK    3  A    between atoms: C_2  and  N_12
REMARK    4  A    between atoms: C_4  and  C_5
REMARK    5  A    between atoms: C_5  and  C_6
REMARK    6  A    between atoms: C_13  and  C_15
REMARK    7  A    between atoms: C_16  and  N_31
REMARK    8  A    between atoms: C_17  and  C_20
REMARK    9  A    between atoms: N_22  and  C_23
REMARK   10  A    between atoms: C_23  and  C_24
REMARK                            x       y       z     vdW  Elec       q    Type
REMARK                         _______ _______ _______ _____ _____    ______ ____
ROOT
ATOM      1  C   UNL     1       8.658  -0.551   0.204  0.00  0.00    +0.115 A 
ATOM      2  C   UNL     1       9.858  -0.916   0.818  0.00  0.00    +0.076 A 
ATOM      3  C   UNL     1      10.595   0.188   1.246  0.00  0.00    +0.156 A 
ATOM      4  N   UNL     1      10.121   1.397   1.043  0.00  0.00    -0.203 NA
ATOM      5  S   UNL     1       8.739   1.225   0.304  0.00  0.00    +0.019 S 
ENDROOT
BRANCH   1   7
ATOM      6  N   UNL     1       6.520  -0.844  -0.926  0.00  0.00    -0.308 N 
ATOM      7  C   UNL     1       7.615  -1.402  -0.374  0.00  0.00    +0.254 C 
ATOM      8  O   UNL     1       7.738  -2.613  -0.355  0.00  0.00    -0.270 OA
ATOM      9  H   UNL     1       6.409   0.250  -0.944  0.00  0.00    +0.149 HD
BRANCH   6  11
ATOM     10  C   UNL     1       5.846  -2.046  -2.947  0.00  0.00    +0.028 C 
ATOM     11  C   UNL     1       5.477  -1.695  -1.504  0.00  0.00    +0.070 C 
BRANCH  11  12
ATOM     12  C   UNL     1       4.142  -0.948  -1.487  0.00  0.00    +0.026 C 
BRANCH  12  13
ATOM     13  C   UNL     1       3.711  -0.707  -0.039  0.00  0.00    +0.037 C 
BRANCH  13  14
ATOM     14  C   UNL     1       2.396   0.029  -0.022  0.00  0.00    -0.047 A 
ATOM     15  C   UNL     1       1.208  -0.679  -0.014  0.00  0.00    +0.003 A 
ATOM     16  C   UNL     1       0.002  -0.004   0.002  0.00  0.00    +0.000 A 
ATOM     17  C   UNL     1      -0.017   1.378   0.010  0.00  0.00    +0.000 A 
ATOM     18  C   UNL     1       1.171   2.086   0.002  0.00  0.00    +0.000 A 
ATOM     19  C   UNL     1       2.377   1.411  -0.014  0.00  0.00    +0.003 A 
ENDBRANCH  13  14
ENDBRANCH  12  13
ENDBRANCH  11  12
ENDBRANCH   6  11
ENDBRANCH   1   7
BRANCH   3  20
ATOM     20  C   UNL     1      11.894   0.001   1.919  0.00  0.00    +0.265 C 
ATOM     21  O   UNL     1      12.326  -1.120   2.104  0.00  0.00    -0.268 OA
ATOM     22  N   UNL     1      12.601   1.073   2.329  0.00  0.00    -0.306 N 
ATOM     23  H   UNL     1      12.209   2.087   2.162  0.00  0.00    +0.149 HD
BRANCH  22  24
ATOM     24  C   UNL     1      13.891   0.887   2.998  0.00  0.00    +0.141 C 
BRANCH  24  25
ATOM     25  C   UNL     1      14.471   2.232   3.353  0.00  0.00    -0.012 A 
ATOM     26  C   UNL     1      15.454   2.791   2.558  0.00  0.00    +0.006 A 
ATOM     27  C   UNL     1      15.984   4.027   2.880  0.00  0.00    +0.000 A 
ATOM     28  C   UNL     1      15.537   4.699   4.003  0.00  0.00    +0.001 A 
ATOM     29  C   UNL     1      14.559   4.139   4.801  0.00  0.00    +0.020 A 
ATOM     30  C   UNL     1      14.024   2.904   4.476  0.00  0.00    +0.046 A 
ATOM     31 CL   UNL     1      12.795   2.199   5.479  0.00  0.00    -0.083 Cl
ENDBRANCH  24  25
ENDBRANCH  22  24
ENDBRANCH   3  20
BRANCH   2  32
ATOM     32  N   UNL     1      10.270  -2.231   0.986  0.00  0.00    -0.355 N 
ATOM     33  H   UNL     1      11.229  -2.448   1.480  0.00  0.00    +0.142 HD
ATOM     34  H   UNL     1       9.638  -3.056   0.625  0.00  0.00    +0.142 HD
ENDBRANCH   2  32
TORSDOF 9
