REMARK  Name = ZINC57348301
REMARK  2 active torsions:
REMARK  status: ('A' for Active; 'I' for Inactive)
REMARK    1  A    between atoms: C_5  and  N_8
REMARK    2  A    between atoms: C_11  and  C_14
REMARK                            x       y       z     vdW  Elec       q    Type
REMARK                         _______ _______ _______ _____ _____    ______ ____
ROOT
ATOM      1  C   UNL     1      -0.017   1.378   0.010  0.00  0.00    +0.037 A 
ATOM      2  C   UNL     1       1.171   2.087   0.002  0.00  0.00    +0.021 A 
ATOM      3  C   UNL     1       2.381   1.417  -0.013  0.00  0.00    +0.037 A 
ATOM      4  C   UNL     1       2.407   0.035  -0.021  0.00  0.00    +0.065 A 
ATOM      5  C   UNL     1       1.216  -0.681  -0.014  0.00  0.00    +0.073 A 
ATOM      6  C   UNL     1       0.002  -0.004   0.002  0.00  0.00    +0.065 A 
ATOM      7 CL   UNL     1      -1.489  -0.893   0.012  0.00  0.00    -0.082 Cl
ATOM      8 CL   UNL     1       3.925  -0.806  -0.041  0.00  0.00    -0.082 Cl
ATOM      9 BR   UNL     1       1.141   3.978   0.012  0.00  0.00    -0.050 Br
ENDROOT
BRANCH   5  10
ATOM     10  N   UNL     1       1.238  -2.080  -0.022  0.00  0.00    -0.265 N 
ATOM     11  C   UNL     1       1.245  -2.914  -1.231  0.00  0.00    +0.119 C 
ATOM     12  C   UNL     1       1.271  -4.362  -0.707  0.00  0.00    +0.067 C 
ATOM     13  C   UNL     1       1.276  -4.205   0.798  0.00  0.00    +0.104 C 
ATOM     14  C   UNL     1       1.262  -2.865   1.087  0.00  0.00    +0.254 C 
ATOM     15  O   UNL     1       1.268  -2.376   2.344  0.00  0.00    -0.270 OA
BRANCH  13  16
ATOM     16  C   UNL     1       1.297  -5.244   1.731  0.00  0.00    +0.388 C 
ATOM     17  O   UNL     1       1.299  -4.969   3.037  0.00  0.00    -0.241 OA
ATOM     18  O   UNL     1       1.315  -6.513   1.317  0.00  0.00    -0.241 OA
ENDBRANCH  13  16
ENDBRANCH   5  10
TORSDOF 2
