REMARK  Name = ZINC14624236
REMARK  11 active torsions:
REMARK  status: ('A' for Active; 'I' for Inactive)
REMARK    1  A    between atoms: C_1  and  C_2
REMARK    2  A    between atoms: C_2  and  C_3
REMARK    3  A    between atoms: C_3  and  C_4
REMARK    4  A    between atoms: C_4  and  N_5
REMARK    5  A    between atoms: C_6  and  N_31
REMARK    6  A    between atoms: C_7  and  N_14
REMARK    7  A    between atoms: N_14  and  C_15
REMARK    8  A    between atoms: C_15  and  C_16
REMARK    9  A    between atoms: C_16  and  C_17
REMARK   10  A    between atoms: C_17  and  C_18
REMARK   11  A    between atoms: C_19  and  C_21
REMARK                            x       y       z     vdW  Elec       q    Type
REMARK                         _______ _______ _______ _____ _____    ______ ____
ROOT
ATOM      1  N   UNL     1      -1.177   2.174  -0.003  0.00  0.00    -0.259 N 
ATOM      2  C   UNL     1      -0.094   1.383   0.133  0.00  0.00    +0.271 C 
ATOM      3  O   UNL     1       1.021   1.858   0.045  0.00  0.00    -0.268 OA
ENDROOT
BRANCH   2   4
ATOM      4  C   UNL     1      -0.264  -0.066   0.383  0.00  0.00    +0.147 A 
ATOM      5  C   UNL     1       0.854  -0.900   0.399  0.00  0.00    +0.091 A 
ATOM      6  C   UNL     1       0.679  -2.256   0.640  0.00  0.00    +0.083 A 
ATOM      7  C   UNL     1      -0.608  -2.732   0.846  0.00  0.00    +0.097 A 
ATOM      8  C   UNL     1      -1.675  -1.843   0.809  0.00  0.00    +0.150 A 
ATOM      9  N   UNL     1      -1.480  -0.562   0.584  0.00  0.00    -0.228 NA
ATOM     10 CL   UNL     1      -3.288  -2.432   1.065  0.00  0.00    -0.060 Cl
ATOM     11 CL   UNL     1      -0.882  -4.420   1.144  0.00  0.00    -0.079 Cl
ATOM     12 CL   UNL     1       2.040  -3.333   0.678  0.00  0.00    -0.080 Cl
ATOM     13 CL   UNL     1       2.441  -0.251   0.129  0.00  0.00    -0.080 Cl
ENDBRANCH   2   4
BRANCH   1  16
ATOM     14  N   UNL     1      -0.276   5.728   0.226  0.00  0.00    -0.280 N 
ATOM     15  C   UNL     1      -0.422   4.404   0.570  0.00  0.00    +0.127 A 
ATOM     16  C   UNL     1      -1.017   3.537  -0.324  0.00  0.00    +0.140 A 
ATOM     17  C   UNL     1      -1.467   4.039  -1.560  0.00  0.00    +0.277 A 
ATOM     18  O   UNL     1      -2.000   3.296  -2.367  0.00  0.00    -0.266 OA
ATOM     19  N   UNL     1      -1.304   5.346  -1.845  0.00  0.00    -0.273 N 
ATOM     20  H   UNL     1      -1.624   5.704  -2.723  0.00  0.00    +0.173 HD
ATOM     21  C   UNL     1      -0.718   6.175  -0.964  0.00  0.00    +0.331 A 
ATOM     22  O   UNL     1      -0.583   7.350  -1.248  0.00  0.00    -0.246 OA
BRANCH  15  23
ATOM     23  N   UNL     1       0.024   3.950   1.788  0.00  0.00    -0.343 N 
ATOM     24  H   UNL     1      -0.013   3.003   1.995  0.00  0.00    +0.144 HD
ATOM     25  H   UNL     1       0.375   4.576   2.440  0.00  0.00    +0.144 HD
ENDBRANCH  15  23
BRANCH  14  26
ATOM     26  C   UNL     1       0.358   6.659   1.163  0.00  0.00    +0.128 C 
BRANCH  26  27
ATOM     27  C   UNL     1      -0.708   7.270   2.075  0.00  0.00    +0.021 C 
BRANCH  27  29
ATOM     28  C   UNL     1      -1.112   8.853   3.965  0.00  0.00    +0.004 C 
ATOM     29  C   UNL     1      -0.046   8.242   3.053  0.00  0.00    -0.002 C 
ENDBRANCH  27  29
ENDBRANCH  26  27
ENDBRANCH  14  26
ENDBRANCH   1  16
BRANCH   1  30
ATOM     30  C   UNL     1      -2.519   1.618   0.184  0.00  0.00    +0.114 C 
BRANCH  30  31
ATOM     31  C   UNL     1      -2.855   1.586   1.676  0.00  0.00    +0.019 C 
BRANCH  31  32
ATOM     32  C   UNL     1      -4.257   1.005   1.871  0.00  0.00    -0.002 C 
ATOM     33  C   UNL     1      -4.593   0.974   3.364  0.00  0.00    +0.004 C 
ENDBRANCH  31  32
ENDBRANCH  30  31
ENDBRANCH   1  30
TORSDOF 9
