REMARK  Name = ZINC18208958
REMARK  3 active torsions:
REMARK  status: ('A' for Active; 'I' for Inactive)
REMARK    1  A    between atoms: C_4  and  N_7
REMARK    2  A    between atoms: N_9  and  C_20
REMARK    3  A    between atoms: C_10  and  C_13
REMARK                            x       y       z     vdW  Elec       q    Type
REMARK                         _______ _______ _______ _____ _____    ______ ____
ROOT
ATOM      1  N   UNL     1      -0.985  -0.866  -0.371  0.00  0.00    -0.335 N 
ATOM      2  C   UNL     1       0.003  -0.016  -0.163  0.00  0.00    +0.157 A 
ATOM      3  N   UNL     1      -0.052   1.313   0.191  0.00  0.00    -0.289 N 
ATOM      4  C   UNL     1       1.123   1.998   0.352  0.00  0.00    +0.063 A 
ATOM      5  C   UNL     1       2.297   1.362   0.161  0.00  0.00    +0.075 A 
ATOM      6  S   UNL     1       1.765  -0.288  -0.267  0.00  0.00    -0.059 S 
ATOM      7  H   UNL     1      -2.027  -0.514  -0.346  0.00  0.00    +0.168 HD
ENDROOT
BRANCH   4   8
ATOM      8  C   UNL     1       1.105   3.427   0.731  0.00  0.00    -0.001 A 
ATOM      9  C   UNL     1       0.218   4.306   0.107  0.00  0.00    +0.011 A 
ATOM     10  C   UNL     1       0.202   5.637   0.469  0.00  0.00    +0.016 A 
ATOM     11  C   UNL     1       1.071   6.104   1.441  0.00  0.00    +0.018 A 
ATOM     12  C   UNL     1       1.957   5.238   2.059  0.00  0.00    +0.016 A 
ATOM     13  C   UNL     1       1.978   3.903   1.710  0.00  0.00    +0.011 A 
ATOM     14 BR   UNL     1       1.047   7.931   1.927  0.00  0.00    -0.050 Br
ENDBRANCH   4   8
BRANCH   1  18
ATOM     15  C   UNL     1      -0.164  -4.850  -1.120  0.00  0.00    +0.000 A 
ATOM     16  C   UNL     1      -0.446  -4.436   0.170  0.00  0.00    +0.002 A 
ATOM     17  C   UNL     1      -0.721  -3.109   0.427  0.00  0.00    +0.025 A 
ATOM     18  C   UNL     1      -0.714  -2.182  -0.619  0.00  0.00    +0.041 A 
ATOM     19  C   UNL     1      -0.434  -2.609  -1.920  0.00  0.00    +0.025 A 
ATOM     20  C   UNL     1      -0.155  -3.938  -2.161  0.00  0.00    +0.002 A 
ENDBRANCH   1  18
BRANCH   3  21
ATOM     21  C   UNL     1      -1.283   1.953   0.377  0.00  0.00    +0.049 A 
ATOM     22  C   UNL     1      -1.506   2.716   1.516  0.00  0.00    +0.026 A 
ATOM     23  C   UNL     1      -2.719   3.352   1.693  0.00  0.00    +0.002 A 
ATOM     24  C   UNL     1      -3.717   3.217   0.745  0.00  0.00    +0.000 A 
ATOM     25  C   UNL     1      -3.501   2.452  -0.387  0.00  0.00    +0.002 A 
ATOM     26  C   UNL     1      -2.287   1.820  -0.574  0.00  0.00    +0.026 A 
ENDBRANCH   3  21
TORSDOF 3
