REMARK  Name = ZINC16194484
REMARK  9 active torsions:
REMARK  status: ('A' for Active; 'I' for Inactive)
REMARK    1  A    between atoms: C_1  and  O_2
REMARK    2  A    between atoms: O_2  and  C_3
REMARK    3  A    between atoms: C_4  and  C_11
REMARK    4  A    between atoms: C_11  and  N_40
REMARK    5  A    between atoms: C_12  and  C_13
REMARK    6  A    between atoms: C_12  and  N_40
REMARK    7  A    between atoms: C_13  and  N_14
REMARK    8  A    between atoms: N_14  and  C_15
REMARK    9  A    between atoms: C_18  and  N_22
REMARK                            x       y       z     vdW  Elec       q    Type
REMARK                         _______ _______ _______ _____ _____    ______ ____
ROOT
ATOM      1  C   UNL     1      -3.670   2.300   0.032  0.00  0.00    -0.063 C 
ENDROOT
BRANCH   1   2
ATOM      2  N   UNL     1      -4.934   1.540   0.034  0.00  0.00    +0.383 N 
ATOM      3  H   UNL     1      -4.977   0.953  -0.807  0.00  0.00    -0.085 HD
ATOM      4  H   UNL     1      -4.969   0.944   0.869  0.00  0.00    -0.085 HD
BRANCH   2   5
ATOM      5  C   UNL     1      -6.086   2.461   0.044  0.00  0.00    -0.043 C 
BRANCH   5   7
ATOM      6  C   UNL     1      -7.828   1.099   1.227  0.00  0.00    +0.135 A 
ATOM      7  C   UNL     1      -7.361   1.657   0.046  0.00  0.00    -0.021 A 
ATOM      8  C   UNL     1      -8.062   1.471  -1.130  0.00  0.00    +0.020 A 
ATOM      9  C   UNL     1      -9.232   0.733  -1.129  0.00  0.00    +0.019 A 
ATOM     10  C   UNL     1      -9.703   0.180   0.048  0.00  0.00    +0.034 A 
ATOM     11  C   UNL     1      -9.006   0.365   1.227  0.00  0.00    +0.061 A 
ATOM     12 BR   UNL     1      -9.651  -0.389   2.837  0.00  0.00    -0.046 Br
ATOM     13 BR   UNL     1     -10.188   0.478  -2.741  0.00  0.00    -0.050 Br
BRANCH   6  15
ATOM     14  C   UNL     1      -7.474   2.421   3.172  0.00  0.00    +0.277 C 
ATOM     15  O   UNL     1      -7.137   1.277   2.384  0.00  0.00    -0.494 OA
ENDBRANCH   6  15
ENDBRANCH   5   7
ENDBRANCH   2   5
ENDBRANCH   1   2
BRANCH   1  16
ATOM     16  C   UNL     1      -2.495   1.321   0.021  0.00  0.00    +0.082 C 
BRANCH  16  17
ATOM     17  N   UNL     1      -1.236   2.068   0.019  0.00  0.00    -0.345 N 
ATOM     18  H   UNL     1      -1.247   3.038   0.025  0.00  0.00    +0.146 HD
BRANCH  17  19
ATOM     19  C   UNL     1      -0.017   1.385   0.010  0.00  0.00    +0.046 A 
ATOM     20  C   UNL     1       0.002  -0.004   0.002  0.00  0.00    +0.026 A 
ATOM     21  C   UNL     1       1.208  -0.677  -0.013  0.00  0.00    +0.034 A 
ATOM     22  C   UNL     1       2.397   0.030  -0.021  0.00  0.00    +0.128 A 
ATOM     23  C   UNL     1       2.382   1.413  -0.014  0.00  0.00    +0.054 A 
ATOM     24  C   UNL     1       1.179   2.093   0.002  0.00  0.00    +0.064 A 
ATOM     25 CL   UNL     1       1.162   3.829   0.011  0.00  0.00    -0.082 Cl
BRANCH  22  26
ATOM     26  N   UNL     1       3.687  -0.695  -0.038  0.00  0.00    +0.056 N 
ATOM     27  O   UNL     1       3.701  -1.913  -0.045  0.00  0.00    -0.126 OA
ATOM     28  O   UNL     1       4.734  -0.074  -0.045  0.00  0.00    -0.126 OA
ENDBRANCH  22  26
ENDBRANCH  17  19
ENDBRANCH  16  17
ENDBRANCH   1  16
TORSDOF 8
