REMARK  Name = ZINC36610076
REMARK  12 active torsions:
REMARK  status: ('A' for Active; 'I' for Inactive)
REMARK    1  A    between atoms: C_1  and  C_2
REMARK    2  A    between atoms: C_2  and  C_3
REMARK    3  A    between atoms: C_2  and  C_4
REMARK    4  A    between atoms: C_2  and  N_5
REMARK    5  A    between atoms: C_6  and  C_8
REMARK    6  A    between atoms: C_8  and  C_10
REMARK    7  A    between atoms: C_8  and  N_17
REMARK    8  A    between atoms: C_15  and  O_16
REMARK    9  A    between atoms: N_17  and  C_18
REMARK   10  A    between atoms: C_24  and  C_26
REMARK   11  A    between atoms: C_27  and  O_33
REMARK   12  A    between atoms: C_31  and  O_32
REMARK                            x       y       z     vdW  Elec       q    Type
REMARK                         _______ _______ _______ _____ _____    ______ ____
ROOT
ATOM      1  N   UNL     1       4.040  -0.376  -3.042  0.00  0.00    -0.251 N 
ATOM      2  C   UNL     1       4.839  -1.427  -3.314  0.00  0.00    +0.259 C 
ATOM      3  O   UNL     1       4.496  -2.550  -2.998  0.00  0.00    -0.269 OA
ENDROOT
BRANCH   1   4
ATOM      4  C   UNL     1       4.385   0.901  -3.494  0.00  0.00    +0.038 A 
ATOM      5  C   UNL     1       5.429   1.593  -2.895  0.00  0.00    +0.023 A 
ATOM      6  C   UNL     1       5.768   2.854  -3.344  0.00  0.00    +0.002 A 
ATOM      7  C   UNL     1       5.068   3.429  -4.389  0.00  0.00    +0.000 A 
ATOM      8  C   UNL     1       4.027   2.743  -4.988  0.00  0.00    +0.002 A 
ATOM      9  C   UNL     1       3.687   1.479  -4.548  0.00  0.00    +0.023 A 
ENDBRANCH   1   4
BRANCH   2  10
ATOM     10  C   UNL     1       6.127  -1.214  -3.995  0.00  0.00    +0.120 A 
ATOM     11  C   UNL     1       7.303  -1.054  -3.247  0.00  0.00    +0.133 A 
ATOM     12  C   UNL     1       8.510  -0.855  -3.897  0.00  0.00    +0.046 A 
ATOM     13  C   UNL     1       8.558  -0.814  -5.278  0.00  0.00    +0.007 A 
ATOM     14  C   UNL     1       7.405  -0.970  -6.025  0.00  0.00    +0.046 A 
ATOM     15  C   UNL     1       6.189  -1.176  -5.395  0.00  0.00    +0.133 A 
BRANCH  15  16
ATOM     16  O   UNL     1       5.060  -1.335  -6.131  0.00  0.00    -0.506 OA
ATOM     17  H   UNL     1       4.598  -0.507  -6.326  0.00  0.00    +0.292 HD
ENDBRANCH  15  16
BRANCH  11  18
ATOM     18  O   UNL     1       7.258  -1.093  -1.891  0.00  0.00    -0.506 OA
ATOM     19  H   UNL     1       7.377  -1.978  -1.519  0.00  0.00    +0.292 HD
ENDBRANCH  11  18
ENDBRANCH   2  10
BRANCH   1  20
ATOM     20  C   UNL     1       2.809  -0.573  -2.272  0.00  0.00    +0.201 C 
BRANCH  20  21
ATOM     21  C   UNL     1       1.634  -0.056  -3.062  0.00  0.00    +0.024 A 
ATOM     22  C   UNL     1       1.073   1.167  -2.747  0.00  0.00    +0.009 A 
ATOM     23  C   UNL     1      -0.005   1.641  -3.470  0.00  0.00    +0.001 A 
ATOM     24  C   UNL     1      -0.524   0.894  -4.511  0.00  0.00    +0.004 A 
ATOM     25  C   UNL     1       0.033  -0.329  -4.831  0.00  0.00    +0.046 A 
ATOM     26  C   UNL     1       1.118  -0.805  -4.109  0.00  0.00    +0.122 A 
BRANCH  26  27
ATOM     27  O   UNL     1       1.672  -2.005  -4.425  0.00  0.00    -0.506 OA
ATOM     28  H   UNL     1       1.230  -2.762  -4.016  0.00  0.00    +0.292 HD
ENDBRANCH  26  27
ENDBRANCH  20  21
BRANCH  20  30
ATOM     29  N   UNL     1       1.990  -0.029  -0.002  0.00  0.00    -0.309 N 
ATOM     30  C   UNL     1       2.907   0.177  -0.968  0.00  0.00    +0.239 C 
ATOM     31  O   UNL     1       3.810   0.966  -0.789  0.00  0.00    -0.273 OA
ATOM     32  H   UNL     1       1.230  -0.607  -0.170  0.00  0.00    +0.149 HD
BRANCH  29  34
ATOM     33  C   UNL     1       2.151   2.139   1.119  0.00  0.00    +0.031 C 
ATOM     34  C   UNL     1       2.143   0.620   1.303  0.00  0.00    +0.026 C 
ATOM     35  C   UNL     1       3.460   0.177   1.942  0.00  0.00    +0.031 C 
ATOM     36  C   UNL     1       0.977   0.222   2.210  0.00  0.00    +0.031 C 
ENDBRANCH  29  34
ENDBRANCH  20  30
ENDBRANCH   1  20
TORSDOF 9
