REMARK  Name = ZINC39654368
REMARK  11 active torsions:
REMARK  status: ('A' for Active; 'I' for Inactive)
REMARK    1  A    between atoms: C_1  and  C_2
REMARK    2  A    between atoms: C_2  and  C_3
REMARK    3  A    between atoms: C_6  and  C_9
REMARK    4  A    between atoms: C_9  and  C_10
REMARK    5  A    between atoms: C_10  and  N_11
REMARK    6  A    between atoms: C_12  and  C_14
REMARK    7  A    between atoms: C_25  and  C_27
REMARK    8  A    between atoms: C_27  and  C_28
REMARK    9  A    between atoms: C_27  and  C_30
REMARK   10  A    between atoms: C_28  and  C_29
REMARK   11  A    between atoms: C_30  and  C_31
REMARK                            x       y       z     vdW  Elec       q    Type
REMARK                         _______ _______ _______ _____ _____    ______ ____
ROOT
ATOM      1  C   UNL     1     -10.863  -1.840   0.118  0.00  0.00    +0.100 C 
ATOM      2  C   UNL     1     -10.959  -2.442   1.538  0.00  0.00    +0.121 C 
ATOM      3  N   UNL     1     -11.277  -1.288   2.413  0.00  0.00    -0.300 N 
ATOM      4  C   UNL     1     -12.236  -0.479   1.622  0.00  0.00    +0.115 C 
ATOM      5  C   UNL     1     -11.705  -0.554   0.176  0.00  0.00    -0.004 C 
ATOM      6  C   UNL     1     -12.867  -0.639  -0.809  0.00  0.00    -0.010 C 
ATOM      7  C   UNL     1     -13.655   0.673  -0.775  0.00  0.00    -0.082 C 
ATOM      8  N   UNL     1     -12.768   1.788  -1.128  0.00  0.00    +0.379 N 
ATOM      9  C   UNL     1     -11.706   1.921  -0.124  0.00  0.00    -0.082 C 
ATOM     10  C   UNL     1     -10.835   0.661  -0.130  0.00  0.00    -0.010 C 
ATOM     11  C   UNL     1     -10.803  -1.033   3.648  0.00  0.00    +0.219 C 
ATOM     12  O   UNL     1     -11.232  -0.090   4.279  0.00  0.00    -0.275 OA
ATOM     13  H   UNL     1     -12.355   1.614  -2.032  0.00  0.00    -0.086 HD
ATOM     14  H   UNL     1     -13.303   2.643  -1.165  0.00  0.00    -0.086 HD
ENDROOT
BRANCH   1  16
ATOM     15  N   UNL     1      -8.991  -1.636  -1.486  0.00  0.00    -0.315 N 
ATOM     16  C   UNL     1      -9.430  -1.514  -0.218  0.00  0.00    +0.218 C 
ATOM     17  O   UNL     1      -8.673  -1.142   0.653  0.00  0.00    -0.275 OA
ATOM     18  H   UNL     1      -9.597  -1.934  -2.183  0.00  0.00    +0.149 HD
BRANCH  15  19
ATOM     19  C   UNL     1      -7.599  -1.319  -1.813  0.00  0.00    +0.109 C 
BRANCH  19  20
ATOM     20  C   UNL     1      -7.363  -1.540  -3.308  0.00  0.00    +0.054 C 
BRANCH  20  24
ATOM     21  C   UNL     1      -3.303  -0.617  -4.263  0.00  0.00    -0.048 A 
ATOM     22  C   UNL     1      -3.650  -1.902  -3.891  0.00  0.00    +0.004 A 
ATOM     23  C   UNL     1      -4.964  -2.200  -3.582  0.00  0.00    +0.004 A 
ATOM     24  C   UNL     1      -5.930  -1.214  -3.645  0.00  0.00    -0.046 A 
ATOM     25  C   UNL     1      -5.583   0.071  -4.016  0.00  0.00    +0.004 A 
ATOM     26  C   UNL     1      -4.268   0.371  -4.321  0.00  0.00    +0.004 A 
BRANCH  21  28
ATOM     27  C   UNL     1      -1.135   0.145  -3.332  0.00  0.00    +0.009 C 
ATOM     28  C   UNL     1      -1.871  -0.291  -4.601  0.00  0.00    +0.032 C 
ENDBRANCH  21  28
ENDBRANCH  20  24
ENDBRANCH  19  20
ENDBRANCH  15  19
ENDBRANCH   1  16
BRANCH  11  29
ATOM     29  C   UNL     1      -9.740  -1.918   4.245  0.00  0.00    +0.075 C 
BRANCH  29  30
ATOM     30  C   UNL     1      -8.364  -1.467   3.752  0.00  0.00    +0.009 C 
ATOM     31  C   UNL     1      -8.175   0.020   4.056  0.00  0.00    +0.004 C 
ENDBRANCH  29  30
BRANCH  29  32
ATOM     32  C   UNL     1      -9.792  -1.819   5.771  0.00  0.00    +0.009 C 
ATOM     33  C   UNL     1      -8.745  -2.755   6.379  0.00  0.00    +0.004 C 
ENDBRANCH  29  32
ENDBRANCH  11  29
TORSDOF 8
