REMARK  Name = ZINC22697549
REMARK  8 active torsions:
REMARK  status: ('A' for Active; 'I' for Inactive)
REMARK    1  A    between atoms: C_1  and  C_2
REMARK    2  A    between atoms: C_2  and  C_3
REMARK    3  A    between atoms: C_2  and  C_4
REMARK    4  A    between atoms: C_4  and  C_6
REMARK    5  A    between atoms: C_4  and  N_23
REMARK    6  A    between atoms: N_11  and  C_14
REMARK    7  A    between atoms: C_14  and  C_15
REMARK    8  A    between atoms: C_24  and  C_26
REMARK                            x       y       z     vdW  Elec       q    Type
REMARK                         _______ _______ _______ _____ _____    ______ ____
ROOT
ATOM      1  C   UNL     1      -1.720   1.458   3.422  0.00  0.00    +0.162 C 
ENDROOT
BRANCH   1   2
ATOM      2  C   UNL     1      -0.921   0.953   2.248  0.00  0.00    +0.236 C 
ATOM      3  O   UNL     1      -0.049   0.127   2.418  0.00  0.00    -0.274 OA
ATOM      4  N   UNL     1      -1.175   1.419   1.009  0.00  0.00    -0.303 N 
ATOM      5  C   UNL     1      -0.493   0.854  -0.165  0.00  0.00    +0.089 C 
ATOM      6  C   UNL     1      -1.547   0.483  -1.214  0.00  0.00    -0.059 C 
ATOM      7  N   UNL     1      -2.392   1.653  -1.490  0.00  0.00    +0.387 N 
ATOM      8  C   UNL     1      -3.136   2.067  -0.293  0.00  0.00    -0.059 C 
ATOM      9  C   UNL     1      -2.147   2.503   0.794  0.00  0.00    +0.089 C 
ATOM     10  H   UNL     1      -1.730   2.483  -1.776  0.00  0.00    -0.081 HD
BRANCH   7  11
ATOM     11  C   UNL     1      -3.303   1.391  -2.612  0.00  0.00    +0.019 C 
BRANCH  11  12
ATOM     12  C   UNL     1      -4.247   0.276  -2.243  0.00  0.00    +0.199 C 
ATOM     13  O   UNL     1      -4.214  -0.203  -1.129  0.00  0.00    -0.278 OA
ATOM     14  N   UNL     1      -5.128  -0.190  -3.151  0.00  0.00    -0.303 N 
ATOM     15  C   UNL     1      -5.184   0.384  -4.502  0.00  0.00    +0.107 C 
ATOM     16  C   UNL     1      -5.048  -0.755  -5.523  0.00  0.00    +0.019 C 
ATOM     17  C   UNL     1      -6.119  -1.812  -5.244  0.00  0.00    +0.003 C 
ATOM     18  C   UNL     1      -5.912  -2.394  -3.844  0.00  0.00    +0.019 C 
ATOM     19  C   UNL     1      -6.055  -1.276  -2.805  0.00  0.00    +0.107 C 
ENDBRANCH  11  12
ENDBRANCH   7  11
ENDBRANCH   1   2
BRANCH   1  20
ATOM     20  N   UNL     1      -1.794   0.414   4.447  0.00  0.00    -0.303 N 
ATOM     21  C   UNL     1      -2.817   0.403   5.324  0.00  0.00    +0.220 C 
ATOM     22  O   UNL     1      -3.676   1.258   5.265  0.00  0.00    -0.275 OA
ATOM     23  H   UNL     1      -1.015  -0.361   4.501  0.00  0.00    +0.149 HD
BRANCH  21  24
ATOM     24  C   UNL     1      -2.894  -0.670   6.379  0.00  0.00    +0.048 C 
ATOM     25  C   UNL     1      -1.648  -0.605   7.265  0.00  0.00    +0.019 C 
ATOM     26  C   UNL     1      -1.726  -1.696   8.335  0.00  0.00    -0.009 C 
ATOM     27  C   UNL     1      -2.974  -1.479   9.194  0.00  0.00    +0.007 C 
ATOM     28  C   UNL     1      -4.220  -1.544   8.308  0.00  0.00    -0.009 C 
ATOM     29  C   UNL     1      -4.142  -0.454   7.237  0.00  0.00    +0.019 C 
ATOM     30  C   UNL     1      -4.296  -2.916   7.635  0.00  0.00    +0.007 C 
ATOM     31  C   UNL     1      -3.048  -3.132   6.776  0.00  0.00    -0.009 C 
ATOM     32  C   UNL     1      -1.802  -3.067   7.662  0.00  0.00    +0.007 C 
ATOM     33  C   UNL     1      -2.970  -2.042   5.706  0.00  0.00    +0.019 C 
ENDBRANCH  21  24
ENDBRANCH   1  20
BRANCH   1  35
ATOM     34  C   UNL     1      -0.843   3.739   2.901  0.00  0.00    +0.009 C 
ATOM     35  C   UNL     1      -1.040   2.698   4.005  0.00  0.00    +0.012 C 
ATOM     36  C   UNL     1      -1.917   3.288   5.111  0.00  0.00    +0.009 C 
ENDBRANCH   1  35
TORSDOF 6
