REMARK  Name = ZINC58848052
REMARK  9 active torsions:
REMARK  status: ('A' for Active; 'I' for Inactive)
REMARK    1  A    between atoms: C_1  and  C_2
REMARK    2  A    between atoms: C_7  and  N_8
REMARK    3  A    between atoms: N_8  and  S_9
REMARK    4  A    between atoms: S_9  and  C_12
REMARK    5  A    between atoms: C_25  and  C_28
REMARK    6  A    between atoms: C_32  and  O_36
REMARK    7  A    between atoms: C_33  and  O_34
REMARK    8  A    between atoms: O_34  and  C_35
REMARK    9  A    between atoms: O_36  and  C_37
REMARK                            x       y       z     vdW  Elec       q    Type
REMARK                         _______ _______ _______ _____ _____    ______ ____
ROOT
ATOM      1  C   UNL     1       2.798  -0.876   5.706  0.00  0.00    +0.109 A 
ATOM      2  C   UNL     1       3.222  -2.007   5.031  0.00  0.00    +0.030 A 
ATOM      3  C   UNL     1       4.460  -2.017   4.422  0.00  0.00    +0.025 A 
ATOM      4  C   UNL     1       5.278  -0.894   4.483  0.00  0.00    +0.031 A 
ATOM      5  C   UNL     1       4.849   0.245   5.148  0.00  0.00    -0.018 A 
ATOM      6  C   UNL     1       3.604   0.243   5.759  0.00  0.00    +0.034 A 
ATOM      7  C   UNL     1       5.681   1.482   5.201  0.00  0.00    +0.049 C 
ATOM      8  C   UNL     1       6.342   1.664   6.543  0.00  0.00    -0.023 C 
ATOM      9  C   UNL     1       7.534   2.185   6.394  0.00  0.00    -0.030 C 
ATOM     10  C   UNL     1       7.842   2.419   4.931  0.00  0.00    +0.033 C 
ATOM     11  C   UNL     1       6.826   1.520   4.190  0.00  0.00    +0.029 C 
ATOM     12  C   UNL     1       7.473   0.172   3.952  0.00  0.00    +0.109 C 
ATOM     13  N   UNL     1       6.530  -0.925   3.881  0.00  0.00    -0.336 N 
ATOM     14  H   UNL     1       6.795  -1.731   3.410  0.00  0.00    +0.147 HD
ENDROOT
BRANCH  12  15
ATOM     15  C   UNL     1       8.467  -0.085   5.055  0.00  0.00    +0.018 A 
ATOM     16  C   UNL     1       8.023  -0.401   6.326  0.00  0.00    +0.009 A 
ATOM     17  C   UNL     1       8.932  -0.637   7.340  0.00  0.00    +0.004 A 
ATOM     18  C   UNL     1      10.289  -0.556   7.089  0.00  0.00    +0.049 A 
ATOM     19  C   UNL     1      10.741  -0.239   5.819  0.00  0.00    +0.162 A 
ATOM     20  C   UNL     1       9.826  -0.008   4.796  0.00  0.00    +0.166 A 
BRANCH  20  21
ATOM     21  O   UNL     1      10.264   0.298   3.545  0.00  0.00    -0.491 OA
ATOM     22  C   UNL     1      10.596   1.665   3.291  0.00  0.00    +0.277 C 
ENDBRANCH  20  21
BRANCH  19  23
ATOM     23  O   UNL     1      12.075  -0.159   5.570  0.00  0.00    -0.491 OA
ATOM     24  C   UNL     1      12.956  -0.414   6.667  0.00  0.00    +0.277 C 
ENDBRANCH  19  23
ENDBRANCH  12  15
BRANCH   1  25
ATOM     25  S   UNL     1       1.222  -0.862   6.492  0.00  0.00    +0.072 S 
ATOM     26  O   UNL     1       1.286   0.124   7.513  0.00  0.00    -0.150 OA
ATOM     27  O   UNL     1       0.890  -2.217   6.762  0.00  0.00    -0.150 OA
BRANCH  25  28
ATOM     28  N   UNL     1       0.123  -0.320   5.378  0.00  0.00    -0.216 N 
ATOM     29  H   UNL     1      -0.375   0.496   5.546  0.00  0.00    +0.174 HD
BRANCH  28  36
ATOM     30  C   UNL     1      -0.430   1.143   3.002  0.00  0.00    +0.046 C 
ATOM     31  C   UNL     1      -0.359  -0.362   3.014  0.00  0.00    -0.027 A 
ATOM     32  C   UNL     1      -0.559  -1.072   1.846  0.00  0.00    +0.025 A 
ATOM     33  C   UNL     1      -0.494  -2.454   1.856  0.00  0.00    +0.041 A 
ATOM     34  C   UNL     1      -0.228  -3.129   3.035  0.00  0.00    +0.022 A 
ATOM     35  C   UNL     1      -0.027  -2.424   4.205  0.00  0.00    +0.026 A 
ATOM     36  C   UNL     1      -0.086  -1.036   4.197  0.00  0.00    +0.051 A 
ATOM     37 CL   UNL     1      -0.746  -3.344   0.387  0.00  0.00    -0.084 Cl
ENDBRANCH  28  36
ENDBRANCH  25  28
ENDBRANCH   1  25
TORSDOF 6
