REMARK  Name = ZINC39662326
REMARK  6 active torsions:
REMARK  status: ('A' for Active; 'I' for Inactive)
REMARK    1  A    between atoms: C_4  and  C_7
REMARK    2  A    between atoms: C_7  and  C_9
REMARK    3  A    between atoms: C_7  and  N_11
REMARK    4  A    between atoms: C_12  and  C_14
REMARK    5  A    between atoms: C_25  and  C_27
REMARK    6  A    between atoms: C_29  and  C_34
REMARK                            x       y       z     vdW  Elec       q    Type
REMARK                         _______ _______ _______ _____ _____    ______ ____
ROOT
ATOM      1  C   UNL     1       4.849  -3.643  -1.780  0.00  0.00    +0.100 C 
ATOM      2  C   UNL     1       4.250  -4.976  -1.277  0.00  0.00    +0.121 C 
ATOM      3  N   UNL     1       5.024  -6.024  -1.981  0.00  0.00    -0.296 N 
ATOM      4  C   UNL     1       6.416  -5.514  -1.987  0.00  0.00    +0.115 C 
ATOM      5  C   UNL     1       6.271  -4.001  -2.244  0.00  0.00    -0.004 C 
ATOM      6  C   UNL     1       7.303  -3.227  -1.430  0.00  0.00    -0.010 C 
ATOM      7  C   UNL     1       8.706  -3.554  -1.949  0.00  0.00    -0.082 C 
ATOM      8  N   UNL     1       8.802  -3.192  -3.369  0.00  0.00    +0.379 N 
ATOM      9  C   UNL     1       7.870  -4.008  -4.157  0.00  0.00    -0.082 C 
ATOM     10  C   UNL     1       6.432  -3.700  -3.731  0.00  0.00    -0.010 C 
ATOM     11  C   UNL     1       4.566  -7.181  -2.500  0.00  0.00    +0.247 C 
ATOM     12  O   UNL     1       3.372  -7.403  -2.530  0.00  0.00    -0.270 OA
ATOM     13  H   UNL     1       8.570  -2.216  -3.482  0.00  0.00    -0.086 HD
ATOM     14  H   UNL     1       9.744  -3.352  -3.692  0.00  0.00    -0.086 HD
ENDROOT
BRANCH  11  15
ATOM     15  C   UNL     1       5.517  -8.180  -3.032  0.00  0.00    +0.040 A 
ATOM     16  C   UNL     1       5.083  -9.146  -3.941  0.00  0.00    +0.025 A 
ATOM     17  C   UNL     1       5.975 -10.076  -4.435  0.00  0.00    +0.058 A 
ATOM     18  C   UNL     1       7.298 -10.053  -4.032  0.00  0.00    +0.050 A 
ATOM     19  C   UNL     1       7.736  -9.098  -3.129  0.00  0.00    +0.125 A 
ATOM     20  C   UNL     1       6.854  -8.158  -2.632  0.00  0.00    +0.051 A 
ATOM     21  F   UNL     1       9.030  -9.082  -2.739  0.00  0.00    -0.205 F 
BRANCH  17  22
ATOM     22  C   UNL     1       5.506 -11.119  -5.417  0.00  0.00    +0.418 C 
ATOM     23  F   UNL     1       5.652 -10.632  -6.720  0.00  0.00    -0.166 F 
ATOM     24  F   UNL     1       6.272 -12.280  -5.264  0.00  0.00    -0.166 F 
ATOM     25  F   UNL     1       4.160 -11.414  -5.176  0.00  0.00    -0.166 F 
ENDBRANCH  17  22
ENDBRANCH  11  15
BRANCH   1  27
ATOM     26  N   UNL     1       4.795  -1.320  -0.934  0.00  0.00    -0.296 N 
ATOM     27  C   UNL     1       4.900  -2.635  -0.661  0.00  0.00    +0.219 C 
ATOM     28  O   UNL     1       5.037  -3.008   0.485  0.00  0.00    -0.275 OA
ATOM     29  H   UNL     1       4.686  -1.022  -1.850  0.00  0.00    +0.150 HD
BRANCH  26  30
ATOM     30  C   UNL     1       4.845  -0.340   0.154  0.00  0.00    +0.207 C 
BRANCH  30  34
ATOM     31  C   UNL     1       6.185   3.417  -1.376  0.00  0.00    +0.000 A 
ATOM     32  C   UNL     1       6.627   2.975  -0.143  0.00  0.00    +0.000 A 
ATOM     33  C   UNL     1       6.194   1.760   0.352  0.00  0.00    +0.006 A 
ATOM     34  C   UNL     1       5.317   0.986  -0.385  0.00  0.00    -0.013 A 
ATOM     35  C   UNL     1       4.874   1.428  -1.618  0.00  0.00    +0.006 A 
ATOM     36  C   UNL     1       5.309   2.643  -2.113  0.00  0.00    +0.000 A 
ENDBRANCH  30  34
BRANCH  30  37
ATOM     37  C   UNL     1       3.502  -0.183   0.735  0.00  0.00    +0.090 C 
ATOM     38  N   UNL     1       2.465  -0.062   1.184  0.00  0.00    -0.194 NA
ENDBRANCH  30  37
ENDBRANCH  26  30
ENDBRANCH   1  27
TORSDOF 6
