REMARK  Name = ZINC09191102
REMARK  7 active torsions:
REMARK  status: ('A' for Active; 'I' for Inactive)
REMARK    1  A    between atoms: C_4  and  C_7
REMARK    2  A    between atoms: C_7  and  C_8
REMARK    3  A    between atoms: C_8  and  N_9
REMARK    4  A    between atoms: C_18  and  C_28
REMARK    5  A    between atoms: C_18  and  C_32
REMARK    6  A    between atoms: C_19  and  C_21
REMARK    7  A    between atoms: C_21  and  C_22
REMARK                            x       y       z     vdW  Elec       q    Type
REMARK                         _______ _______ _______ _____ _____    ______ ____
ROOT
ATOM      1  N   UNL     1       5.008  -1.860  -1.154  0.00  0.00    -0.281 N 
ATOM      2  C   UNL     1       5.188  -3.209  -1.329  0.00  0.00    +0.119 A 
ATOM      3  C   UNL     1       6.450  -3.726  -1.353  0.00  0.00    +0.098 A 
ATOM      4  C   UNL     1       7.544  -2.860  -1.191  0.00  0.00    +0.262 A 
ATOM      5  O   UNL     1       8.682  -3.298  -1.204  0.00  0.00    -0.267 OA
ATOM      6  N   UNL     1       7.325  -1.541  -1.020  0.00  0.00    -0.275 N 
ATOM      7  H   UNL     1       8.102  -0.922  -0.900  0.00  0.00    +0.173 HD
ATOM      8  C   UNL     1       6.073  -1.049  -1.008  0.00  0.00    +0.331 A 
ATOM      9  O   UNL     1       5.900   0.145  -0.860  0.00  0.00    -0.246 OA
ATOM     10  C   UNL     1       6.667  -5.198  -1.557  0.00  0.00    +0.264 C 
ATOM     11  C   UNL     1       4.277  -5.401  -1.305  0.00  0.00    +0.079 C 
ATOM     12  N   UNL     1       4.109  -4.049  -1.474  0.00  0.00    -0.290 N 
ATOM     13  H   UNL     1       3.235  -3.689  -1.693  0.00  0.00    +0.155 HD
ATOM     14  N   UNL     1       5.440  -6.040  -1.323  0.00  0.00    -0.352 N 
ATOM     15  H   UNL     1       5.501  -7.055  -1.185  0.00  0.00    +0.162 HD
ENDROOT
BRANCH  10  16
ATOM     16  C   UNL     1       7.152  -5.440  -2.988  0.00  0.00    +0.426 C 
ATOM     17  F   UNL     1       8.354  -4.755  -3.195  0.00  0.00    -0.167 F 
ATOM     18  F   UNL     1       7.357  -6.810  -3.185  0.00  0.00    -0.167 F 
ATOM     19  F   UNL     1       6.189  -4.978  -3.891  0.00  0.00    -0.167 F 
ENDBRANCH  10  16
BRANCH  10  20
ATOM     20  C   UNL     1       7.736  -5.688  -0.577  0.00  0.00    +0.426 C 
ATOM     21  F   UNL     1       7.486  -5.151   0.691  0.00  0.00    -0.167 F 
ATOM     22  F   UNL     1       7.700  -7.084  -0.508  0.00  0.00    -0.167 F 
ATOM     23  F   UNL     1       8.997  -5.274  -1.018  0.00  0.00    -0.167 F 
ENDBRANCH  10  20
BRANCH   1  24
ATOM     24  C   UNL     1       3.655  -1.300  -1.133  0.00  0.00    +0.133 C 
BRANCH  24  25
ATOM     25  C   UNL     1       3.127  -1.297   0.303  0.00  0.00    +0.057 C 
BRANCH  25  29
ATOM     26  C   UNL     1      -0.820   0.336   0.365  0.00  0.00    +0.000 A 
ATOM     27  C   UNL     1       0.274   1.166   0.521  0.00  0.00    +0.000 A 
ATOM     28  C   UNL     1       1.552   0.638   0.500  0.00  0.00    +0.004 A 
ATOM     29  C   UNL     1       1.734  -0.721   0.325  0.00  0.00    -0.046 A 
ATOM     30  C   UNL     1       0.640  -1.552   0.170  0.00  0.00    +0.004 A 
ATOM     31  C   UNL     1      -0.637  -1.023   0.190  0.00  0.00    +0.000 A 
ENDBRANCH  25  29
ENDBRANCH  24  25
ENDBRANCH   1  24
BRANCH  11  32
ATOM     32  C   UNL     1       3.064  -6.268  -1.078  0.00  0.00    +0.104 C 
BRANCH  32  33
ATOM     33  C   UNL     1       3.495  -7.703  -0.922  0.00  0.00    -0.040 A 
ATOM     34  C   UNL     1       3.580  -8.524  -2.031  0.00  0.00    +0.004 A 
ATOM     35  C   UNL     1       3.980  -9.839  -1.889  0.00  0.00    +0.000 A 
ATOM     36  C   UNL     1       4.285 -10.337  -0.636  0.00  0.00    +0.000 A 
ATOM     37  C   UNL     1       4.194  -9.518   0.474  0.00  0.00    +0.000 A 
ATOM     38  C   UNL     1       3.800  -8.201   0.331  0.00  0.00    +0.004 A 
ENDBRANCH  32  33
ENDBRANCH  11  32
TORSDOF 7
