REMARK  Name = ZINC19848421
REMARK  9 active torsions:
REMARK  status: ('A' for Active; 'I' for Inactive)
REMARK    1  A    between atoms: C_1  and  C_2
REMARK    2  A    between atoms: C_2  and  C_3
REMARK    3  A    between atoms: C_2  and  C_4
REMARK    4  A    between atoms: C_4  and  C_5
REMARK    5  A    between atoms: C_5  and  C_33
REMARK    6  A    between atoms: C_10  and  C_13
REMARK    7  A    between atoms: C_18  and  O_19
REMARK    8  A    between atoms: N_23  and  C_26
REMARK    9  A    between atoms: C_26  and  C_27
REMARK                            x       y       z     vdW  Elec       q    Type
REMARK                         _______ _______ _______ _____ _____    ______ ____
ROOT
ATOM      1  C   UNL     1      -1.572  -1.720   0.448  0.00  0.00    +0.048 C 
ATOM      2  C   UNL     1      -3.096  -1.770   0.486  0.00  0.00    +0.086 C 
ATOM      3  C   UNL     1      -3.228  -3.164   1.209  0.00  0.00    +0.077 C 
ATOM      4  C   UNL     1      -2.302  -3.050   2.343  0.00  0.00    -0.023 C 
ATOM      5  N   UNL     1      -1.183  -2.183   1.820  0.00  0.00    +0.396 N 
ATOM      6  C   UNL     1      -4.600  -3.517   0.932  0.00  0.00    +0.225 C 
ATOM      7  O   UNL     1      -5.361  -4.135   1.645  0.00  0.00    -0.275 OA
ATOM      8  N   UNL     1      -4.854  -3.000  -0.314  0.00  0.00    -0.237 N 
ATOM      9  C   UNL     1      -3.888  -2.110  -0.737  0.00  0.00    +0.225 C 
ATOM     10  O   UNL     1      -3.709  -1.692  -1.861  0.00  0.00    -0.275 OA
ATOM     11  H   UNL     1      -0.325  -2.711   1.773  0.00  0.00    -0.083 HD
ATOM     12  H   UNL     1      -1.065  -1.387   2.429  0.00  0.00    -0.083 HD
ENDROOT
BRANCH   4  13
ATOM     13  C   UNL     1      -2.989  -2.410   3.521  0.00  0.00    -0.018 A 
ATOM     14  C   UNL     1      -2.921  -1.042   3.702  0.00  0.00    +0.020 A 
ATOM     15  C   UNL     1      -3.552  -0.454   4.784  0.00  0.00    +0.018 A 
ATOM     16  C   UNL     1      -4.253  -1.235   5.686  0.00  0.00    +0.019 A 
ATOM     17  C   UNL     1      -4.323  -2.603   5.509  0.00  0.00    +0.047 A 
ATOM     18  C   UNL     1      -3.696  -3.193   4.422  0.00  0.00    +0.119 A 
ATOM     19 BR   UNL     1      -3.457   1.418   5.029  0.00  0.00    -0.050 Br
BRANCH  18  20
ATOM     20  O   UNL     1      -3.768  -4.539   4.243  0.00  0.00    -0.507 OA
ATOM     21  H   UNL     1      -3.057  -5.032   4.675  0.00  0.00    +0.292 HD
ENDBRANCH  18  20
ENDBRANCH   4  13
BRANCH   1  22
ATOM     22  C   UNL     1      -1.031  -2.654  -0.603  0.00  0.00    +0.346 C 
ATOM     23  O   UNL     1      -0.318  -3.588  -0.279  0.00  0.00    -0.248 OA
ATOM     24  O   UNL     1      -1.305  -2.475  -1.777  0.00  0.00    -0.248 OA
ENDBRANCH   1  22
BRANCH   1  25
ATOM     25  C   UNL     1      -1.085  -0.290   0.202  0.00  0.00    +0.002 C 
BRANCH  25  27
ATOM     26  C   UNL     1       0.933   1.117  -0.233  0.00  0.00    +0.007 C 
ATOM     27  C   UNL     1       0.445  -0.266   0.203  0.00  0.00    -0.018 C 
ATOM     28  C   UNL     1       0.959  -0.568   1.612  0.00  0.00    +0.007 C 
ENDBRANCH  25  27
ENDBRANCH   1  25
BRANCH   8  29
ATOM     29  C   UNL     1      -6.035  -3.344  -1.109  0.00  0.00    +0.151 C 
BRANCH  29  30
ATOM     30  C   UNL     1      -7.153  -2.386  -0.790  0.00  0.00    -0.030 A 
ATOM     31  C   UNL     1      -8.038  -2.672   0.233  0.00  0.00    +0.005 A 
ATOM     32  C   UNL     1      -9.064  -1.792   0.526  0.00  0.00    +0.000 A 
ATOM     33  C   UNL     1      -9.204  -0.627  -0.203  0.00  0.00    +0.000 A 
ATOM     34  C   UNL     1      -8.319  -0.340  -1.226  0.00  0.00    +0.000 A 
ATOM     35  C   UNL     1      -7.291  -1.218  -1.516  0.00  0.00    +0.005 A 
ENDBRANCH  29  30
ENDBRANCH   8  29
TORSDOF 7
