REMARK  Name = ZINC20575052
REMARK  5 active torsions:
REMARK  status: ('A' for Active; 'I' for Inactive)
REMARK    1  A    between atoms: C_3  and  N_29
REMARK    2  A    between atoms: C_6  and  N_7
REMARK    3  A    between atoms: C_8  and  C_23
REMARK    4  A    between atoms: C_9  and  C_12
REMARK    5  A    between atoms: N_14  and  C_15
REMARK                            x       y       z     vdW  Elec       q    Type
REMARK                         _______ _______ _______ _____ _____    ______ ____
ROOT
ATOM      1  N   UNL     1       0.582   1.756   3.313  0.00  0.00    -0.236 N 
ATOM      2  C   UNL     1      -0.162   1.020   2.467  0.00  0.00    +0.060 A 
ATOM      3  C   UNL     1      -0.028  -0.302   2.842  0.00  0.00    +0.078 A 
ATOM      4  C   UNL     1       0.842  -0.333   3.956  0.00  0.00    +0.148 A 
ATOM      5  N   UNL     1       1.195   0.893   4.228  0.00  0.00    -0.174 NA
ENDROOT
BRANCH   2   6
ATOM      6  C   UNL     1      -0.993   1.543   1.323  0.00  0.00    +0.035 C 
ATOM      7  C   UNL     1      -0.455   0.984   0.003  0.00  0.00    -0.010 C 
ATOM      8  C   UNL     1      -1.339   1.470  -1.149  0.00  0.00    -0.082 C 
ATOM      9  N   UNL     1      -2.719   1.019  -0.932  0.00  0.00    +0.379 N 
ATOM     10  C   UNL     1      -3.273   1.582   0.306  0.00  0.00    -0.082 C 
ATOM     11  C   UNL     1      -2.448   1.099   1.501  0.00  0.00    -0.010 C 
ATOM     12  H   UNL     1      -3.347   1.342  -1.776  0.00  0.00    -0.086 HD
ATOM     13  H   UNL     1      -2.740  -0.078  -0.859  0.00  0.00    -0.086 HD
ENDBRANCH   2   6
BRANCH   1  19
ATOM     14  C   UNL     1       0.787   3.817   2.068  0.00  0.00    +0.030 A 
ATOM     15  C   UNL     1       0.917   5.192   2.042  0.00  0.00    +0.035 A 
ATOM     16  C   UNL     1       0.988   5.903   3.226  0.00  0.00    +0.126 A 
ATOM     17  C   UNL     1       0.925   5.242   4.438  0.00  0.00    +0.035 A 
ATOM     18  C   UNL     1       0.790   3.867   4.470  0.00  0.00    +0.030 A 
ATOM     19  C   UNL     1       0.718   3.150   3.284  0.00  0.00    +0.066 A 
BRANCH  16  20
ATOM     20  N   UNL     1       1.133   7.376   3.195  0.00  0.00    +0.056 N 
ATOM     21  O   UNL     1       1.196   8.004   4.236  0.00  0.00    -0.126 OA
ATOM     22  O   UNL     1       1.189   7.960   2.127  0.00  0.00    -0.126 OA
ENDBRANCH  16  20
ENDBRANCH   1  19
BRANCH   3  23
ATOM     23  C   UNL     1      -0.670  -1.463   2.200  0.00  0.00    +0.252 C 
ATOM     24  O   UNL     1      -1.325  -1.312   1.187  0.00  0.00    -0.270 OA
ATOM     25  N   UNL     1      -0.531  -2.692   2.736  0.00  0.00    -0.280 N 
ATOM     26  H   UNL     1       0.129  -2.842   3.604  0.00  0.00    +0.155 HD
BRANCH  25  27
ATOM     27  C   UNL     1      -1.226  -3.777   2.189  0.00  0.00    +0.052 A 
ATOM     28  C   UNL     1      -1.466  -3.831   0.823  0.00  0.00    +0.026 A 
ATOM     29  C   UNL     1      -2.152  -4.903   0.285  0.00  0.00    +0.022 A 
ATOM     30  C   UNL     1      -2.599  -5.923   1.107  0.00  0.00    +0.042 A 
ATOM     31  C   UNL     1      -2.361  -5.872   2.469  0.00  0.00    +0.041 A 
ATOM     32  C   UNL     1      -1.670  -4.805   3.012  0.00  0.00    +0.064 A 
ATOM     33 CL   UNL     1      -1.365  -4.745   4.720  0.00  0.00    -0.082 Cl
ATOM     34 CL   UNL     1      -3.460  -7.268   0.427  0.00  0.00    -0.083 Cl
ENDBRANCH  25  27
ENDBRANCH   3  23
TORSDOF 5
