REMARK  Name = ZINC16951864
REMARK  10 active torsions:
REMARK  status: ('A' for Active; 'I' for Inactive)
REMARK    1  A    between atoms: C_1  and  C_2
REMARK    2  A    between atoms: C_2  and  N_11
REMARK    3  A    between atoms: N_11  and  N_12
REMARK    4  A    between atoms: C_13  and  C_15
REMARK    5  A    between atoms: C_15  and  N_28
REMARK    6  A    between atoms: C_16  and  C_17
REMARK    7  A    between atoms: C_20  and  O_26
REMARK    8  A    between atoms: C_21  and  N_23
REMARK    9  A    between atoms: O_26  and  C_27
REMARK   10  A    between atoms: C_29  and  C_31
REMARK                            x       y       z     vdW  Elec       q    Type
REMARK                         _______ _______ _______ _____ _____    ______ ____
ROOT
ATOM      1  C   UNL     1      -0.237  -4.221  -2.400  0.00  0.00    +0.098 C 
ATOM      2  C   UNL     1       0.161  -4.813  -3.551  0.00  0.00    +0.036 C 
ENDROOT
BRANCH   2   3
ATOM      3  C   UNL     1       0.121  -6.277  -3.676  0.00  0.00    -0.021 A 
ATOM      4  C   UNL     1      -0.768  -7.025  -2.895  0.00  0.00    +0.012 A 
ATOM      5  C   UNL     1      -0.801  -8.396  -3.015  0.00  0.00    +0.048 A 
ATOM      6  C   UNL     1       0.046  -9.038  -3.911  0.00  0.00    +0.150 A 
ATOM      7  C   UNL     1       0.930  -8.300  -4.689  0.00  0.00    +0.168 A 
ATOM      8  C   UNL     1       0.968  -6.928  -4.581  0.00  0.00    +0.044 A 
BRANCH   7   9
ATOM      9  N   UNL     1       1.830  -8.991  -5.641  0.00  0.00    +0.060 N 
ATOM     10  O   UNL     1       2.600  -8.350  -6.318  0.00  0.00    -0.126 OA
ATOM     11  O   UNL     1       1.794 -10.195  -5.741  0.00  0.00    -0.126 OA
ENDBRANCH   7   9
BRANCH   6  12
ATOM     12  O   UNL     1       0.009 -10.390  -4.027  0.00  0.00    -0.493 OA
ATOM     13  C   UNL     1      -0.923 -11.087  -3.197  0.00  0.00    +0.277 C 
ENDBRANCH   6  12
ENDBRANCH   2   3
BRANCH   1  15
ATOM     14  N   UNL     1      -0.622  -2.161  -1.150  0.00  0.00    -0.232 N 
ATOM     15  C   UNL     1      -0.344  -2.758  -2.326  0.00  0.00    +0.274 C 
ATOM     16  O   UNL     1      -0.180  -2.084  -3.326  0.00  0.00    -0.267 OA
ATOM     17  H   UNL     1      -0.823  -2.700  -0.369  0.00  0.00    +0.173 HD
BRANCH  14  18
ATOM     18  N   UNL     1      -0.623  -0.763  -1.057  0.00  0.00    -0.268 N 
ATOM     19  H   UNL     1      -0.499  -0.224  -1.853  0.00  0.00    +0.170 HD
BRANCH  18  21
ATOM     20  C   UNL     1      -0.860  -1.005   1.388  0.00  0.00    +0.063 C 
ATOM     21  C   UNL     1      -0.793  -0.171   0.135  0.00  0.00    +0.030 C 
ATOM     22  C   UNL     1      -0.910   1.219   0.213  0.00  0.00    +0.041 C 
ATOM     23  C   UNL     1      -1.244   1.847   1.433  0.00  0.00    +0.033 C 
ATOM     24  C   UNL     1      -1.352   3.202   1.490  0.00  0.00    +0.042 C 
ATOM     25  C   UNL     1      -1.140   3.996   0.365  0.00  0.00    +0.024 C 
ATOM     26  C   UNL     1      -0.815   3.452  -0.840  0.00  0.00    +0.053 C 
ATOM     27  C   UNL     1      -0.681   2.059  -0.969  0.00  0.00    +0.188 C 
ATOM     28  O   UNL     1      -0.385   1.557  -2.045  0.00  0.00    -0.287 OA
ATOM     29 CL   UNL     1      -1.763   3.958   2.997  0.00  0.00    -0.084 Cl
ENDBRANCH  18  21
ENDBRANCH  14  18
ENDBRANCH   1  15
BRANCH   1  30
ATOM     30  N   UNL     1      -0.546  -5.002  -1.282  0.00  0.00    -0.277 N 
ATOM     31  C   UNL     1      -1.754  -4.892  -0.696  0.00  0.00    +0.248 C 
ATOM     32  O   UNL     1      -2.602  -4.169  -1.182  0.00  0.00    -0.270 OA
ATOM     33  H   UNL     1       0.110  -5.624  -0.928  0.00  0.00    +0.155 HD
BRANCH  31  34
ATOM     34  C   UNL     1      -2.049  -5.650   0.538  0.00  0.00    +0.037 A 
ATOM     35  C   UNL     1      -1.043  -6.386   1.166  0.00  0.00    +0.013 A 
ATOM     36  C   UNL     1      -1.325  -7.092   2.318  0.00  0.00    +0.001 A 
ATOM     37  C   UNL     1      -2.602  -7.070   2.851  0.00  0.00    +0.000 A 
ATOM     38  C   UNL     1      -3.603  -6.342   2.234  0.00  0.00    +0.001 A 
ATOM     39  C   UNL     1      -3.334  -5.629   1.084  0.00  0.00    +0.013 A 
ENDBRANCH  31  34
ENDBRANCH   1  30
TORSDOF 8
