REMARK  Name = ZINC27806604
REMARK  6 active torsions:
REMARK  status: ('A' for Active; 'I' for Inactive)
REMARK    1  A    between atoms: N_9  and  C_12
REMARK    2  A    between atoms: C_12  and  C_13
REMARK    3  A    between atoms: C_16  and  C_19
REMARK    4  A    between atoms: C_19  and  O_21
REMARK    5  A    between atoms: O_21  and  C_22
REMARK    6  A    between atoms: C_22  and  C_23
REMARK                            x       y       z     vdW  Elec       q    Type
REMARK                         _______ _______ _______ _____ _____    ______ ____
ROOT
ATOM      1  C   UNL     1       0.002  -0.004   0.002  0.00  0.00    -0.030 A 
ATOM      2  C   UNL     1      -0.006  -0.686  -1.202  0.00  0.00    +0.006 A 
ATOM      3  C   UNL     1       0.018  -2.066  -1.217  0.00  0.00    +0.015 A 
ATOM      4  C   UNL     1       0.039  -2.773  -0.013  0.00  0.00    +0.059 A 
ATOM      5  C   UNL     1       0.041  -2.078   1.198  0.00  0.00    +0.015 A 
ATOM      6  C   UNL     1       0.023  -0.699   1.198  0.00  0.00    +0.006 A 
ENDROOT
BRANCH   4   7
ATOM      7  C   UNL     1       0.059  -4.250  -0.021  0.00  0.00    +0.340 C 
ATOM      8  O   UNL     1       0.077  -4.863   1.027  0.00  0.00    -0.245 OA
BRANCH   7   9
ATOM      9  O   UNL     1       0.056  -4.918  -1.192  0.00  0.00    -0.452 OA
BRANCH   9  10
ATOM     10  C   UNL     1       0.077  -6.368  -1.124  0.00  0.00    +0.328 C 
BRANCH  10  11
ATOM     11  C   UNL     1       0.071  -6.936  -2.519  0.00  0.00    +0.258 C 
ATOM     12  O   UNL     1       0.051  -6.193  -3.477  0.00  0.00    -0.272 OA
ATOM     13  N   UNL     1       0.087  -8.271  -2.703  0.00  0.00    -0.238 N 
ATOM     14  C   UNL     1       0.082  -8.780  -3.951  0.00  0.00    +0.303 C 
ATOM     15  O   UNL     1       0.062  -8.034  -4.911  0.00  0.00    -0.253 OA
ATOM     16  N   UNL     1       0.098 -10.115  -4.135  0.00  0.00    -0.313 N 
ATOM     17  H   UNL     1       0.105  -8.946  -1.835  0.00  0.00    +0.159 HD
ATOM     18  H   UNL     1       0.094 -10.530  -5.154  0.00  0.00    +0.146 HD
ATOM     19  H   UNL     1       0.116 -10.789  -3.267  0.00  0.00    +0.146 HD
ENDBRANCH  10  11
ENDBRANCH   9  10
ENDBRANCH   7   9
ENDBRANCH   4   7
BRANCH   1  20
ATOM     20  C   UNL     1      -0.018   1.503   0.010  0.00  0.00    +0.152 C 
BRANCH  20  29
ATOM     21  C   UNL     1       5.645   3.601  -0.724  0.00  0.00    +0.001 A 
ATOM     22  C   UNL     1       5.658   3.594   0.658  0.00  0.00    +0.001 A 
ATOM     23  C   UNL     1       4.544   3.177   1.370  0.00  0.00    +0.014 A 
ATOM     24  C   UNL     1       3.410   2.763   0.689  0.00  0.00    +0.049 A 
ATOM     25  C   UNL     1       3.397   2.770  -0.720  0.00  0.00    +0.049 A 
ATOM     26  C   UNL     1       4.518   3.190  -1.418  0.00  0.00    +0.014 A 
ATOM     27  C   UNL     1       2.060   2.279  -1.115  0.00  0.00    +0.254 C 
ATOM     28  O   UNL     1       1.663   2.142  -2.254  0.00  0.00    -0.270 OA
ATOM     29  N   UNL     1       1.356   2.010  -0.000  0.00  0.00    -0.230 N 
ATOM     30  C   UNL     1       2.079   2.273   1.104  0.00  0.00    +0.254 C 
ATOM     31  O   UNL     1       1.701   2.129   2.249  0.00  0.00    -0.270 OA
ENDBRANCH  20  29
ENDBRANCH   1  20
TORSDOF 6
