REMARK  Name = ZINC36303976
REMARK  19 active torsions:
REMARK  status: ('A' for Active; 'I' for Inactive)
REMARK    1  A    between atoms: C_1  and  C_2
REMARK    2  A    between atoms: C_3  and  C_22
REMARK    3  A    between atoms: C_4  and  O_13
REMARK    4  A    between atoms: N_5  and  C_7
REMARK    5  A    between atoms: O_13  and  C_14
REMARK    6  A    between atoms: C_22  and  N_23
REMARK    7  A    between atoms: N_23  and  C_24
REMARK    8  A    between atoms: N_23  and  C_34
REMARK    9  A    between atoms: C_24  and  C_25
REMARK   10  A    between atoms: C_25  and  C_27
REMARK   11  A    between atoms: C_25  and  O_33
REMARK   12  A    between atoms: C_27  and  O_28
REMARK   13  A    between atoms: O_28  and  C_29
REMARK   14  A    between atoms: C_29  and  C_30
REMARK   15  A    between atoms: C_30  and  C_31
REMARK   16  A    between atoms: C_30  and  C_32
REMARK   17  A    between atoms: C_34  and  C_35
REMARK   18  A    between atoms: C_35  and  C_36
REMARK   19  A    between atoms: C_35  and  C_37
REMARK                            x       y       z     vdW  Elec       q    Type
REMARK                         _______ _______ _______ _____ _____    ______ ____
ROOT
ATOM      1  C   UNL     1      -1.025   2.115   0.034  0.00  0.00    +0.068 C 
ATOM      2  C   UNL     1      -0.355   0.787   0.278  0.00  0.00    +0.065 A 
ATOM      3  C   UNL     1       0.087  -0.099  -0.710  0.00  0.00    +0.021 A 
ATOM      4  C   UNL     1       0.635  -1.177  -0.088  0.00  0.00    +0.225 A 
ATOM      5  N   UNL     1       0.537  -0.969   1.252  0.00  0.00    -0.200 N 
ATOM      6  N   UNL     1      -0.082   0.272   1.449  0.00  0.00    -0.168 NA
ENDROOT
BRANCH   5   7
ATOM      7  C   UNL     1       0.982  -1.839   2.258  0.00  0.00    +0.069 A 
ATOM      8  C   UNL     1       0.757  -3.205   2.145  0.00  0.00    +0.028 A 
ATOM      9  C   UNL     1       1.196  -4.059   3.137  0.00  0.00    +0.002 A 
ATOM     10  C   UNL     1       1.859  -3.556   4.242  0.00  0.00    +0.000 A 
ATOM     11  C   UNL     1       2.084  -2.197   4.356  0.00  0.00    +0.002 A 
ATOM     12  C   UNL     1       1.652  -1.337   3.365  0.00  0.00    +0.028 A 
ENDBRANCH   5   7
BRANCH   4  13
ATOM     13  O   UNL     1       1.179  -2.262  -0.695  0.00  0.00    -0.435 OA
BRANCH  13  14
ATOM     14  C   UNL     1       0.348  -3.277  -1.054  0.00  0.00    +0.166 A 
ATOM     15  C   UNL     1      -1.022  -3.143  -0.888  0.00  0.00    +0.052 A 
ATOM     16  C   UNL     1      -1.865  -4.175  -1.254  0.00  0.00    +0.042 A 
ATOM     17  C   UNL     1      -1.344  -5.343  -1.785  0.00  0.00    +0.126 A 
ATOM     18  C   UNL     1       0.024  -5.479  -1.951  0.00  0.00    +0.080 A 
ATOM     19  C   UNL     1       0.871  -4.446  -1.592  0.00  0.00    +0.168 A 
ATOM     20  F   UNL     1       2.205  -4.577  -1.759  0.00  0.00    -0.202 F 
ATOM     21  F   UNL     1      -2.171  -6.350  -2.140  0.00  0.00    -0.205 F 
ENDBRANCH  13  14
ENDBRANCH   4  13
BRANCH   3  22
ATOM     22  C   UNL     1      -0.024   0.105  -2.199  0.00  0.00    -0.036 C 
BRANCH  22  23
ATOM     23  N   UNL     1       1.177   0.795  -2.689  0.00  0.00    +0.384 N 
ATOM     24  H   UNL     1       1.306   1.653  -2.175  0.00  0.00    -0.081 HD
BRANCH  23  25
ATOM     25  C   UNL     1       1.016   1.101  -4.117  0.00  0.00    -0.044 C 
BRANCH  25  26
ATOM     26  C   UNL     1      -0.117   2.112  -4.299  0.00  0.00    +0.124 C 
BRANCH  26  27
ATOM     27  O   UNL     1       0.206   3.319  -3.605  0.00  0.00    -0.391 OA
ATOM     28  H   UNL     1       0.976   3.783  -3.961  0.00  0.00    +0.210 HD
ENDBRANCH  26  27
BRANCH  26  29
ATOM     29  C   UNL     1      -0.299   2.413  -5.788  0.00  0.00    +0.189 C 
BRANCH  29  30
ATOM     30  O   UNL     1      -1.431   3.267  -5.967  0.00  0.00    -0.377 OA
BRANCH  30  31
ATOM     31  C   UNL     1      -1.690   3.611  -7.329  0.00  0.00    +0.163 C 
BRANCH  31  32
ATOM     32  C   UNL     1      -2.917   4.522  -7.401  0.00  0.00    +0.009 C 
ATOM     33  C   UNL     1      -3.120   4.991  -8.843  0.00  0.00    +0.009 C 
ATOM     34  C   UNL     1      -4.153   3.750  -6.936  0.00  0.00    +0.009 C 
ENDBRANCH  31  32
ENDBRANCH  30  31
ENDBRANCH  29  30
ENDBRANCH  26  29
ENDBRANCH  25  26
ENDBRANCH  23  25
BRANCH  23  35
ATOM     35  C   UNL     1       2.349  -0.069  -2.502  0.00  0.00    -0.075 C 
BRANCH  35  36
ATOM     36  C   UNL     1       3.616   0.701  -2.880  0.00  0.00    -0.034 C 
ATOM     37  C   UNL     1       3.790   1.892  -1.935  0.00  0.00    +0.005 C 
ATOM     38  C   UNL     1       4.829  -0.224  -2.763  0.00  0.00    +0.005 C 
ENDBRANCH  35  36
ENDBRANCH  23  35
ENDBRANCH  22  23
ENDBRANCH   3  22
TORSDOF 14
