REMARK  Name = ZINC21838358
REMARK  11 active torsions:
REMARK  status: ('A' for Active; 'I' for Inactive)
REMARK    1  A    between atoms: C_1  and  C_2
REMARK    2  A    between atoms: C_2  and  C_4
REMARK    3  A    between atoms: C_2  and  S_20
REMARK    4  A    between atoms: C_10  and  C_15
REMARK    5  A    between atoms: S_20  and  C_21
REMARK    6  A    between atoms: C_24  and  C_27
REMARK    7  A    between atoms: N_25  and  N_26
REMARK    8  A    between atoms: C_30  and  C_33
REMARK    9  A    between atoms: C_33  and  C_34
REMARK   10  A    between atoms: C_33  and  C_35
REMARK   11  A    between atoms: C_33  and  C_36
REMARK                            x       y       z     vdW  Elec       q    Type
REMARK                         _______ _______ _______ _____ _____    ______ ____
ROOT
ATOM      1  S   UNL     1       0.851  -0.589  -1.490  0.00  0.00    -0.074 S 
ENDROOT
BRANCH   1   2
ATOM      2  C   UNL     1       2.509  -0.029  -1.285  0.00  0.00    +0.209 A 
ATOM      3  N   UNL     1       2.982   0.650  -0.264  0.00  0.00    -0.121 NA
ATOM      4  N   UNL     1       4.231   0.896  -0.437  0.00  0.00    -0.127 NA
ATOM      5  C   UNL     1       4.633   0.389  -1.579  0.00  0.00    +0.182 A 
ATOM      6  N   UNL     1       3.544  -0.224  -2.155  0.00  0.00    -0.224 N 
BRANCH   5   7
ATOM      7  C   UNL     1       5.999   0.459  -2.139  0.00  0.00    +0.021 A 
ATOM      8  C   UNL     1       6.221   0.165  -3.486  0.00  0.00    +0.012 A 
ATOM      9  C   UNL     1       7.499   0.232  -4.002  0.00  0.00    +0.005 A 
ATOM     10  C   UNL     1       8.559   0.589  -3.188  0.00  0.00    -0.042 A 
ATOM     11  C   UNL     1       8.346   0.881  -1.852  0.00  0.00    +0.005 A 
ATOM     12  C   UNL     1       7.073   0.823  -1.325  0.00  0.00    +0.012 A 
BRANCH  10  13
ATOM     13  C   UNL     1       9.952   0.660  -3.759  0.00  0.00    -0.013 C 
ATOM     14  C   UNL     1       9.988   1.690  -4.889  0.00  0.00    +0.015 C 
ATOM     15  C   UNL     1      10.933   1.074  -2.660  0.00  0.00    +0.015 C 
ATOM     16  C   UNL     1      10.350  -0.712  -4.306  0.00  0.00    +0.015 C 
ENDBRANCH  10  13
ENDBRANCH   5   7
BRANCH   6  17
ATOM     17  N   UNL     1       3.505  -0.886  -3.349  0.00  0.00    -0.295 N 
ATOM     18  H   UNL     1       3.277  -0.257  -4.104  0.00  0.00    +0.163 HD
ATOM     19  H   UNL     1       4.375  -1.364  -3.526  0.00  0.00    +0.163 HD
ENDBRANCH   6  17
ENDBRANCH   1   2
BRANCH   1  21
ATOM     20  C   UNL     1      -0.019   1.526   0.010  0.00  0.00    +0.027 C 
ATOM     21  C   UNL     1       0.002  -0.004   0.002  0.00  0.00    +0.117 C 
BRANCH  21  22
ATOM     22  C   UNL     1      -1.412  -0.526   0.013  0.00  0.00    +0.124 A 
ATOM     23  N   UNL     1      -1.993  -0.855   1.195  0.00  0.00    -0.309 N 
ATOM     24  H   UNL     1      -1.490  -0.749   2.018  0.00  0.00    +0.170 HD
ATOM     25  C   UNL     1      -3.253  -1.323   1.248  0.00  0.00    +0.260 A 
ATOM     26  O   UNL     1      -3.761  -1.613   2.318  0.00  0.00    -0.267 OA
ATOM     27  C   UNL     1      -3.989  -1.476   0.030  0.00  0.00    +0.083 A 
ATOM     28  C   UNL     1      -5.351  -1.957  -0.172  0.00  0.00    +0.039 A 
ATOM     29  C   UNL     1      -5.841  -2.014  -1.436  0.00  0.00    +0.059 A 
ATOM     30  S   UNL     1      -4.487  -1.420  -2.431  0.00  0.00    -0.076 S 
ATOM     31  C   UNL     1      -3.307  -1.111  -1.142  0.00  0.00    +0.116 A 
ATOM     32  N   UNL     1      -2.059  -0.649  -1.115  0.00  0.00    -0.225 NA
BRANCH  28  33
ATOM     33  C   UNL     1      -6.180  -2.374   0.977  0.00  0.00    +0.136 A 
ATOM     34  C   UNL     1      -7.453  -1.968   1.232  0.00  0.00    +0.050 A 
ATOM     35  C   UNL     1      -7.854  -2.609   2.422  0.00  0.00    +0.042 A 
ATOM     36  C   UNL     1      -6.818  -3.366   2.830  0.00  0.00    +0.196 A 
ATOM     37  O   UNL     1      -5.810  -3.227   1.952  0.00  0.00    -0.463 OA
ENDBRANCH  28  33
ENDBRANCH  21  22
ENDBRANCH   1  21
TORSDOF 7
