REMARK  Name = ZINC59170504
REMARK  10 active torsions:
REMARK  status: ('A' for Active; 'I' for Inactive)
REMARK    1  A    between atoms: C_1  and  C_2
REMARK    2  A    between atoms: C_5  and  S_8
REMARK    3  A    between atoms: S_8  and  N_11
REMARK    4  A    between atoms: N_11  and  N_12
REMARK    5  A    between atoms: C_14  and  C_25
REMARK    6  A    between atoms: C_19  and  O_23
REMARK    7  A    between atoms: O_23  and  C_24
REMARK    8  A    between atoms: N_27  and  C_28
REMARK    9  A    between atoms: C_31  and  O_34
REMARK   10  A    between atoms: O_34  and  C_35
REMARK                            x       y       z     vdW  Elec       q    Type
REMARK                         _______ _______ _______ _____ _____    ______ ____
ROOT
ATOM      1  N   UNL     1       3.302  -3.610  -0.173  0.00  0.00    -0.260 N 
ATOM      2  C   UNL     1       4.393  -4.285   0.053  0.00  0.00    +0.225 A 
ATOM      3  C   UNL     1       5.051  -4.252   1.380  0.00  0.00    +0.099 A 
ATOM      4  C   UNL     1       5.809  -5.344   1.734  0.00  0.00    +0.030 A 
ATOM      5  C   UNL     1       5.903  -6.447   0.772  0.00  0.00    +0.018 A 
ATOM      6  C   UNL     1       6.423  -7.688   1.157  0.00  0.00    +0.015 A 
ATOM      7  C   UNL     1       6.500  -8.704   0.248  0.00  0.00    +0.046 A 
ATOM      8  C   UNL     1       6.064  -8.515  -1.060  0.00  0.00    +0.124 A 
ATOM      9  C   UNL     1       5.546  -7.290  -1.459  0.00  0.00    +0.092 A 
ATOM     10  C   UNL     1       5.464  -6.251  -0.551  0.00  0.00    +0.141 A 
ATOM     11  O   UNL     1       4.963  -5.049  -0.924  0.00  0.00    -0.437 OA
ATOM     12  H   UNL     1       2.863  -3.139   0.553  0.00  0.00    +0.189 HD
ENDROOT
BRANCH   3  13
ATOM     13  C   UNL     1       4.900  -3.100   2.282  0.00  0.00    +0.253 C 
ATOM     14  O   UNL     1       4.160  -2.183   1.978  0.00  0.00    -0.270 OA
ATOM     15  N   UNL     1       5.581  -3.060   3.444  0.00  0.00    -0.281 N 
ATOM     16  H   UNL     1       6.239  -3.744   3.644  0.00  0.00    +0.155 HD
BRANCH  15  17
ATOM     17  C   UNL     1       5.338  -2.032   4.363  0.00  0.00    +0.034 A 
ATOM     18  C   UNL     1       4.065  -1.489   4.478  0.00  0.00    +0.027 A 
ATOM     19  C   UNL     1       3.826  -0.475   5.384  0.00  0.00    +0.047 A 
ATOM     20  C   UNL     1       4.858   0.002   6.180  0.00  0.00    +0.120 A 
ATOM     21  C   UNL     1       6.130  -0.540   6.066  0.00  0.00    +0.047 A 
ATOM     22  C   UNL     1       6.369  -1.558   5.164  0.00  0.00    +0.027 A 
BRANCH  20  23
ATOM     23  O   UNL     1       4.622   1.001   7.072  0.00  0.00    -0.495 OA
ATOM     24  C   UNL     1       5.730   1.443   7.858  0.00  0.00    +0.277 C 
ENDBRANCH  20  23
ENDBRANCH  15  17
ENDBRANCH   3  13
BRANCH   1  25
ATOM     25  N   UNL     1       2.761  -3.564  -1.465  0.00  0.00    -0.157 N 
ATOM     26  H   UNL     1       3.157  -4.093  -2.175  0.00  0.00    +0.194 HD
BRANCH  25  27
ATOM     27  S   UNL     1       1.447  -2.606  -1.779  0.00  0.00    +0.085 S 
ATOM     28  O   UNL     1       0.405  -3.054  -0.923  0.00  0.00    -0.149 OA
ATOM     29  O   UNL     1       1.306  -2.561  -3.192  0.00  0.00    -0.149 OA
BRANCH  27  34
ATOM     30  C   UNL     1       2.848   2.989  -0.008  0.00  0.00    +0.044 C 
ATOM     31  C   UNL     1       2.498   1.591  -0.450  0.00  0.00    -0.050 A 
ATOM     32  C   UNL     1       2.868   1.152  -1.708  0.00  0.00    +0.005 A 
ATOM     33  C   UNL     1       2.547  -0.130  -2.113  0.00  0.00    +0.029 A 
ATOM     34  C   UNL     1       1.857  -0.973  -1.261  0.00  0.00    +0.110 A 
ATOM     35  C   UNL     1       1.488  -0.533  -0.004  0.00  0.00    +0.029 A 
ATOM     36  C   UNL     1       1.813   0.748   0.404  0.00  0.00    +0.005 A 
ENDBRANCH  27  34
ENDBRANCH  25  27
ENDBRANCH   1  25
BRANCH   8  37
ATOM     37  O   UNL     1       6.146  -9.535  -1.952  0.00  0.00    -0.495 OA
ATOM     38  C   UNL     1       6.688 -10.769  -1.478  0.00  0.00    +0.277 C 
ENDBRANCH   8  37
TORSDOF 7
