REMARK  Name = ZINC59167531
REMARK  10 active torsions:
REMARK  status: ('A' for Active; 'I' for Inactive)
REMARK    1  A    between atoms: C_1  and  C_2
REMARK    2  A    between atoms: C_5  and  N_8
REMARK    3  A    between atoms: C_9  and  C_11
REMARK    4  A    between atoms: C_11  and  N_12
REMARK    5  A    between atoms: N_20  and  N_21
REMARK    6  A    between atoms: C_22  and  C_24
REMARK    7  A    between atoms: C_24  and  C_26
REMARK    8  A    between atoms: C_24  and  S_27
REMARK    9  A    between atoms: S_27  and  C_28
REMARK   10  A    between atoms: C_28  and  C_29
REMARK                            x       y       z     vdW  Elec       q    Type
REMARK                         _______ _______ _______ _____ _____    ______ ____
ROOT
ATOM      1  N   UNL     1       0.465  -7.292   2.371  0.00  0.00    -0.257 N 
ATOM      2  C   UNL     1       1.649  -7.638   3.012  0.00  0.00    +0.047 A 
ATOM      3  C   UNL     1       2.965  -7.681   2.562  0.00  0.00    +0.024 A 
ATOM      4  C   UNL     1       3.977  -8.068   3.417  0.00  0.00    +0.002 A 
ATOM      5  C   UNL     1       3.699  -8.417   4.728  0.00  0.00    +0.001 A 
ATOM      6  C   UNL     1       2.399  -8.380   5.192  0.00  0.00    +0.012 A 
ATOM      7  C   UNL     1       1.372  -7.992   4.338  0.00  0.00    +0.028 A 
ATOM      8  C   UNL     1      -0.092  -7.849   4.513  0.00  0.00    +0.153 C 
ATOM      9  N   UNL     1      -0.793  -8.074   5.597  0.00  0.00    -0.174 NA
ATOM     10  C   UNL     1      -0.589  -7.390   3.199  0.00  0.00    +0.272 C 
ATOM     11  O   UNL     1      -1.747  -7.146   2.917  0.00  0.00    -0.268 OA
ENDROOT
BRANCH   9  12
ATOM     12  N   UNL     1      -0.142  -8.354   6.806  0.00  0.00    -0.205 N 
ATOM     13  C   UNL     1      -0.860  -8.699   7.893  0.00  0.00    +0.245 C 
ATOM     14  O   UNL     1      -2.069  -8.767   7.825  0.00  0.00    -0.273 OA
ATOM     15  H   UNL     1       0.824  -8.300   6.860  0.00  0.00    +0.177 HD
BRANCH  13  16
ATOM     16  C   UNL     1      -0.161  -8.999   9.194  0.00  0.00    +0.131 C 
ATOM     17  C   UNL     1       0.088  -7.694   9.953  0.00  0.00    +0.029 C 
BRANCH  16  18
ATOM     18  S   UNL     1      -1.199 -10.095  10.200  0.00  0.00    -0.144 S 
BRANCH  18  19
ATOM     19  C   UNL     1      -0.165 -10.479  11.640  0.00  0.00    +0.105 C 
BRANCH  19  20
ATOM     20  C   UNL     1      -0.919 -11.395  12.569  0.00  0.00    -0.038 A 
ATOM     21  C   UNL     1      -1.716 -10.865  13.566  0.00  0.00    +0.004 A 
ATOM     22  C   UNL     1      -2.407 -11.705  14.419  0.00  0.00    +0.000 A 
ATOM     23  C   UNL     1      -2.302 -13.076  14.274  0.00  0.00    +0.000 A 
ATOM     24  C   UNL     1      -1.505 -13.606  13.277  0.00  0.00    +0.000 A 
ATOM     25  C   UNL     1      -0.817 -12.766  12.421  0.00  0.00    +0.004 A 
ENDBRANCH  19  20
ENDBRANCH  18  19
ENDBRANCH  16  18
ENDBRANCH  13  16
ENDBRANCH   9  12
BRANCH   1  26
ATOM     26  C   UNL     1       0.377  -6.868   0.972  0.00  0.00    +0.210 C 
BRANCH  26  28
ATOM     27  N   UNL     1       0.487  -4.753  -0.308  0.00  0.00    -0.284 N 
ATOM     28  C   UNL     1       0.534  -5.371   0.889  0.00  0.00    +0.235 C 
ATOM     29  O   UNL     1       0.702  -4.723   1.900  0.00  0.00    -0.274 OA
ATOM     30  H   UNL     1       0.276  -5.261  -1.107  0.00  0.00    +0.155 HD
BRANCH  27  35
ATOM     31  C   UNL     1       1.521   0.813  -0.671  0.00  0.00    +0.044 C 
ATOM     32  C   UNL     1       1.247  -0.666  -0.574  0.00  0.00    -0.050 A 
ATOM     33  C   UNL     1       1.921  -1.434   0.357  0.00  0.00    +0.005 A 
ATOM     34  C   UNL     1       1.671  -2.789   0.448  0.00  0.00    +0.023 A 
ATOM     35  C   UNL     1       0.742  -3.381  -0.397  0.00  0.00    +0.033 A 
ATOM     36  C   UNL     1       0.066  -2.607  -1.331  0.00  0.00    +0.023 A 
ATOM     37  C   UNL     1       0.316  -1.251  -1.414  0.00  0.00    +0.005 A 
ENDBRANCH  27  35
ENDBRANCH  26  28
ENDBRANCH   1  26
TORSDOF 8
