REMARK  Name = ZINC04150060
REMARK  6 active torsions:
REMARK  status: ('A' for Active; 'I' for Inactive)
REMARK    1  A    between atoms: C_1  and  C_2
REMARK    2  A    between atoms: N_4  and  C_5
REMARK    3  A    between atoms: C_8  and  S_11
REMARK    4  A    between atoms: S_11  and  N_14
REMARK    5  A    between atoms: N_14  and  C_15
REMARK    6  A    between atoms: N_33  and  C_34
REMARK                            x       y       z     vdW  Elec       q    Type
REMARK                         _______ _______ _______ _____ _____    ______ ____
ROOT
ATOM      1  C   UNL     1      -1.316   1.871   0.126  0.00  0.00    +0.112 A 
ATOM      2  C   UNL     1      -1.309   3.236   0.035  0.00  0.00    +0.031 A 
ATOM      3  C   UNL     1      -0.095   3.917   0.179  0.00  0.00    +0.024 A 
ATOM      4  C   UNL     1       1.060   3.236   0.400  0.00  0.00    +0.027 A 
ATOM      5  N   UNL     1       1.068   1.880   0.416  0.00  0.00    -0.310 N 
ATOM      6  C   UNL     1      -0.100   1.196   0.346  0.00  0.00    +0.274 A 
ATOM      7  O   UNL     1      -0.096  -0.019   0.470  0.00  0.00    -0.266 OA
ATOM      8  C   UNL     1       2.298   1.089   0.469  0.00  0.00    +0.130 C 
ATOM      9  C   UNL     1       3.481   1.889   0.982  0.00  0.00    +0.027 C 
ATOM     10  C   UNL     1       3.544   3.240   0.268  0.00  0.00    +0.018 C 
ATOM     11  C   UNL     1       2.306   4.051   0.659  0.00  0.00    +0.054 C 
ATOM     12  C   UNL     1       2.372   4.336   2.170  0.00  0.00    +0.119 C 
ATOM     13  N   UNL     1       2.398   3.037   2.861  0.00  0.00    -0.285 N 
ATOM     14  C   UNL     1       3.438   2.069   2.493  0.00  0.00    +0.114 C 
ATOM     15  C   UNL     1       1.488   2.743   3.810  0.00  0.00    +0.302 C 
ATOM     16  O   UNL     1       0.689   3.587   4.168  0.00  0.00    -0.253 OA
ATOM     17  N   UNL     1       1.464   1.514   4.362  0.00  0.00    -0.296 N 
ATOM     18  H   UNL     1       2.146   0.865   4.131  0.00  0.00    +0.151 HD
ENDROOT
BRANCH  17  19
ATOM     19  C   UNL     1       0.406   1.159   5.312  0.00  0.00    +0.074 C 
ATOM     20  C   UNL     1       0.805   1.621   6.715  0.00  0.00    +0.022 C 
ATOM     21  C   UNL     1      -0.299   1.250   7.707  0.00  0.00    +0.002 C 
ATOM     22  C   UNL     1      -0.496  -0.267   7.707  0.00  0.00    +0.000 C 
ATOM     23  C   UNL     1      -0.895  -0.730   6.304  0.00  0.00    +0.002 C 
ATOM     24  C   UNL     1       0.209  -0.358   5.312  0.00  0.00    +0.022 C 
ENDBRANCH  17  19
BRANCH   1  25
ATOM     25  N   UNL     1      -2.514   1.156   0.007  0.00  0.00    -0.211 N 
ATOM     26  H   UNL     1      -2.501   0.186  -0.008  0.00  0.00    +0.174 HD
BRANCH  25  27
ATOM     27  S   UNL     1      -3.954   1.967  -0.106  0.00  0.00    +0.072 S 
ATOM     28  O   UNL     1      -3.780   2.967  -1.100  0.00  0.00    -0.150 OA
ATOM     29  O   UNL     1      -4.971   0.978  -0.190  0.00  0.00    -0.150 OA
BRANCH  27  33
ATOM     30  C   UNL     1      -4.582   4.138   3.819  0.00  0.00    +0.033 A 
ATOM     31  C   UNL     1      -4.035   4.808   2.732  0.00  0.00    +0.025 A 
ATOM     32  C   UNL     1      -3.845   4.143   1.537  0.00  0.00    +0.030 A 
ATOM     33  C   UNL     1      -4.198   2.811   1.421  0.00  0.00    +0.109 A 
ATOM     34  C   UNL     1      -4.747   2.142   2.499  0.00  0.00    +0.030 A 
ATOM     35  C   UNL     1      -4.936   2.800   3.699  0.00  0.00    +0.025 A 
BRANCH  30  39
ATOM     36  C   UNL     1      -5.171   6.870   6.338  0.00  0.00    +0.109 C 
ATOM     37  C   UNL     1      -5.082   6.120   5.034  0.00  0.00    +0.214 C 
ATOM     38  O   UNL     1      -5.287   6.698   3.987  0.00  0.00    -0.276 OA
ATOM     39  N   UNL     1      -4.775   4.808   5.032  0.00  0.00    -0.286 N 
ATOM     40  H   UNL     1      -4.688   4.329   5.870  0.00  0.00    +0.155 HD
ENDBRANCH  30  39
ENDBRANCH  27  33
ENDBRANCH  25  27
ENDBRANCH   1  25
TORSDOF 5
