REMARK  Name = ZINC28513014
REMARK  8 active torsions:
REMARK  status: ('A' for Active; 'I' for Inactive)
REMARK    1  A    between atoms: C_3  and  C_29
REMARK    2  A    between atoms: C_6  and  C_7
REMARK    3  A    between atoms: C_8  and  C_9
REMARK    4  A    between atoms: N_11  and  C_12
REMARK    5  A    between atoms: C_15  and  N_18
REMARK    6  A    between atoms: N_21  and  C_22
REMARK    7  A    between atoms: C_22  and  C_23
REMARK    8  A    between atoms: N_31  and  C_32
REMARK                            x       y       z     vdW  Elec       q    Type
REMARK                         _______ _______ _______ _____ _____    ______ ____
ROOT
ATOM      1  C   UNL     1      -1.389  -4.741  -0.629  0.00  0.00    +0.241 C 
ATOM      2  O   UNL     1      -1.458  -5.828  -1.171  0.00  0.00    -0.270 OA
ATOM      3  N   UNL     1      -2.473  -4.220  -0.022  0.00  0.00    -0.282 N 
ATOM      4  H   UNL     1      -2.401  -3.386   0.468  0.00  0.00    +0.155 HD
ENDROOT
BRANCH   3   5
ATOM      5  C   UNL     1      -3.704  -4.883  -0.097  0.00  0.00    +0.034 A 
ATOM      6  C   UNL     1      -4.883  -4.153  -0.173  0.00  0.00    +0.025 A 
ATOM      7  C   UNL     1      -6.096  -4.807  -0.247  0.00  0.00    +0.025 A 
ATOM      8  C   UNL     1      -6.138  -6.195  -0.245  0.00  0.00    +0.035 A 
ATOM      9  C   UNL     1      -4.959  -6.925  -0.169  0.00  0.00    +0.025 A 
ATOM     10  C   UNL     1      -3.745  -6.272  -0.101  0.00  0.00    +0.025 A 
BRANCH   8  11
ATOM     11  N   UNL     1      -7.370  -6.859  -0.320  0.00  0.00    -0.269 N 
ATOM     12  C   UNL     1      -7.552  -8.017   0.345  0.00  0.00    +0.304 C 
ATOM     13  O   UNL     1      -6.624  -8.529   0.941  0.00  0.00    -0.253 OA
ATOM     14  N   UNL     1      -8.764  -8.607   0.350  0.00  0.00    -0.297 N 
ATOM     15  H   UNL     1      -8.091  -6.485  -0.850  0.00  0.00    +0.156 HD
ATOM     16  H   UNL     1      -9.504  -8.199  -0.125  0.00  0.00    +0.150 HD
BRANCH  14  17
ATOM     17  C   UNL     1      -8.963  -9.866   1.073  0.00  0.00    +0.137 C 
BRANCH  17  18
ATOM     18  C   UNL     1     -10.416 -10.318   0.919  0.00  0.00    +0.135 C 
ATOM     19  C   UNL     1     -10.657 -11.631   1.706  0.00  0.00    +0.035 C 
ATOM     20  C   UNL     1     -12.186 -11.546   1.962  0.00  0.00    +0.031 C 
ATOM     21  C   UNL     1     -12.405 -10.027   2.137  0.00  0.00    +0.160 C 
ATOM     22  O   UNL     1     -11.303  -9.356   1.512  0.00  0.00    -0.375 OA
ENDBRANCH  17  18
ENDBRANCH  14  17
ENDBRANCH   8  11
ENDBRANCH   3   5
BRANCH   1  24
ATOM     23  C   UNL     1       0.959  -4.519  -1.244  0.00  0.00    +0.013 C 
ATOM     24  C   UNL     1      -0.125  -3.998  -0.637  0.00  0.00    +0.068 C 
BRANCH  23  30
ATOM     25  C   UNL     1       3.354  -4.313  -1.882  0.00  0.00    +0.008 A 
ATOM     26  C   UNL     1       4.540  -3.614  -1.889  0.00  0.00    +0.013 A 
ATOM     27  C   UNL     1       4.620  -2.366  -1.266  0.00  0.00    +0.037 A 
ATOM     28  C   UNL     1       3.496  -1.826  -0.636  0.00  0.00    +0.013 A 
ATOM     29  C   UNL     1       2.309  -2.523  -0.629  0.00  0.00    +0.008 A 
ATOM     30  C   UNL     1       2.228  -3.773  -1.252  0.00  0.00    -0.025 A 
BRANCH  27  31
ATOM     31  C   UNL     1       5.894  -1.617  -1.273  0.00  0.00    +0.244 C 
ATOM     32  O   UNL     1       6.873  -2.087  -1.821  0.00  0.00    -0.270 OA
ATOM     33  N   UNL     1       5.972  -0.413  -0.673  0.00  0.00    -0.308 N 
ATOM     34  H   UNL     1       5.191  -0.038  -0.236  0.00  0.00    +0.149 HD
BRANCH  33  35
ATOM     35  C   UNL     1       7.235   0.329  -0.680  0.00  0.00    +0.073 C 
ATOM     36  C   UNL     1       7.669   0.998   0.626  0.00  0.00    +0.024 C 
ATOM     37  C   UNL     1       7.160   1.851  -0.538  0.00  0.00    +0.024 C 
ENDBRANCH  33  35
ENDBRANCH  27  31
ENDBRANCH  23  30
ENDBRANCH   1  24
TORSDOF 8
