REMARK  Name = ZINC63262655
REMARK  9 active torsions:
REMARK  status: ('A' for Active; 'I' for Inactive)
REMARK    1  A    between atoms: C_1  and  O_2
REMARK    2  A    between atoms: O_2  and  C_3
REMARK    3  A    between atoms: C_6  and  C_11
REMARK    4  A    between atoms: C_8  and  O_9
REMARK    5  A    between atoms: O_9  and  C_10
REMARK    6  A    between atoms: C_12  and  C_22
REMARK    7  A    between atoms: N_14  and  C_16
REMARK    8  A    between atoms: N_23  and  N_24
REMARK    9  A    between atoms: C_25  and  C_27
REMARK                            x       y       z     vdW  Elec       q    Type
REMARK                         _______ _______ _______ _____ _____    ______ ____
ROOT
ATOM      1  C   UNL     1       2.675  -2.475  -4.290  0.00  0.00    +0.058 C 
ATOM      2  C   UNL     1       2.997  -1.825  -5.442  0.00  0.00    +0.014 C 
ATOM      3  C   UNL     1       3.374  -2.884  -6.454  0.00  0.00    +0.166 C 
ATOM      4  N   UNL     1       3.224  -4.159  -5.734  0.00  0.00    -0.249 N 
ATOM      5  N   UNL     1       2.806  -3.837  -4.437  0.00  0.00    -0.263 N 
ATOM      6  H   UNL     1       2.631  -4.486  -3.738  0.00  0.00    +0.170 HD
ENDROOT
BRANCH   1  10
ATOM      7  C   UNL     1       1.450  -0.546  -0.708  0.00  0.00    +0.162 A 
ATOM      8  C   UNL     1       2.561  -0.084  -1.399  0.00  0.00    +0.050 A 
ATOM      9  C   UNL     1       2.962  -0.707  -2.561  0.00  0.00    +0.013 A 
ATOM     10  C   UNL     1       2.248  -1.807  -3.046  0.00  0.00    +0.001 A 
ATOM     11  C   UNL     1       1.129  -2.272  -2.350  0.00  0.00    +0.059 A 
ATOM     12  C   UNL     1       0.736  -1.645  -1.182  0.00  0.00    +0.162 A 
BRANCH   7  14
ATOM     13  C   UNL     1       1.835   1.192   0.868  0.00  0.00    +0.277 C 
ATOM     14  O   UNL     1       1.059   0.072   0.438  0.00  0.00    -0.491 OA
ENDBRANCH   7  14
BRANCH  12  15
ATOM     15  O   UNL     1      -0.349  -2.099  -0.499  0.00  0.00    -0.491 OA
ATOM     16  C   UNL     1      -1.032  -3.230  -1.043  0.00  0.00    +0.277 C 
ENDBRANCH  12  15
ENDBRANCH   1  10
BRANCH   4  17
ATOM     17  C   UNL     1       3.458  -5.438  -6.243  0.00  0.00    +0.048 A 
ATOM     18  C   UNL     1       3.883  -5.598  -7.556  0.00  0.00    +0.025 A 
ATOM     19  C   UNL     1       4.113  -6.864  -8.056  0.00  0.00    +0.002 A 
ATOM     20  C   UNL     1       3.921  -7.973  -7.252  0.00  0.00    +0.000 A 
ATOM     21  C   UNL     1       3.497  -7.817  -5.945  0.00  0.00    +0.002 A 
ATOM     22  C   UNL     1       3.271  -6.553  -5.436  0.00  0.00    +0.025 A 
ENDBRANCH   4  17
BRANCH   2  23
ATOM     23  C   UNL     1       2.980  -0.432  -5.652  0.00  0.00    +0.137 C 
ATOM     24  N   UNL     1       3.412   0.064  -6.782  0.00  0.00    -0.188 NA
BRANCH  24  25
ATOM     25  N   UNL     1       3.396   1.449  -6.991  0.00  0.00    -0.203 N 
ATOM     26  C   UNL     1       3.842   1.961  -8.156  0.00  0.00    +0.262 C 
ATOM     27  O   UNL     1       4.258   1.218  -9.027  0.00  0.00    -0.269 OA
ATOM     28  H   UNL     1       3.065   2.041  -6.297  0.00  0.00    +0.178 HD
BRANCH  26  29
ATOM     29  C   UNL     1       3.825   3.406  -8.374  0.00  0.00    +0.044 C 
ATOM     30  C   UNL     1       4.237   4.085  -9.504  0.00  0.00    +0.008 A 
ATOM     31  C   UNL     1       4.776   3.655 -10.741  0.00  0.00    +0.010 A 
ATOM     32  C   UNL     1       5.100   4.558 -11.694  0.00  0.00    +0.001 A 
ATOM     33  C   UNL     1       4.924   5.937 -11.513  0.00  0.00    +0.002 A 
ATOM     34  C   UNL     1       4.418   6.450 -10.369  0.00  0.00    +0.026 A 
ATOM     35  C   UNL     1       4.039   5.536  -9.282  0.00  0.00    +0.043 A 
ATOM     36  N   UNL     1       3.538   5.753  -8.095  0.00  0.00    -0.380 N 
ATOM     37  C   UNL     1       3.346   4.471  -7.411  0.00  0.00    +0.154 C 
ATOM     38  H   UNL     1       3.322   6.624  -7.727  0.00  0.00    +0.160 HD
ENDBRANCH  26  29
ENDBRANCH  24  25
ENDBRANCH   2  23
TORSDOF 7
