REMARK  Name = ZINC65389350
REMARK  4 active torsions:
REMARK  status: ('A' for Active; 'I' for Inactive)
REMARK    1  A    between atoms: C_1  and  C_2
REMARK    2  A    between atoms: C_5  and  C_8
REMARK    3  A    between atoms: C_16  and  O_33
REMARK    4  A    between atoms: O_33  and  C_34
REMARK                            x       y       z     vdW  Elec       q    Type
REMARK                         _______ _______ _______ _____ _____    ______ ____
ROOT
ATOM      1  C   UNL     1       0.059  -4.251  -0.021  0.00  0.00    +0.248 C 
ATOM      2  O   UNL     1      -0.056  -4.855  -1.070  0.00  0.00    -0.270 OA
ATOM      3  N   UNL     1       0.176  -4.930   1.137  0.00  0.00    -0.277 N 
ATOM      4  C   UNL     1       0.166  -4.200   2.410  0.00  0.00    +0.114 C 
ATOM      5  C   UNL     1       1.451  -4.520   3.195  0.00  0.00    +0.052 C 
ATOM      6  C   UNL     1       1.641  -6.015   3.131  0.00  0.00    -0.034 C 
ATOM      7  C   UNL     1       1.842  -6.918   4.082  0.00  0.00    +0.003 A 
ATOM      8  C   UNL     1       2.069  -6.787   5.529  0.00  0.00    +0.055 A 
ATOM      9  C   UNL     1       2.221  -7.944   6.231  0.00  0.00    +0.121 A 
ATOM     10  C   UNL     1       2.174  -9.222   5.655  0.00  0.00    +0.047 A 
ATOM     11  C   UNL     1       1.981  -9.457   4.332  0.00  0.00    +0.029 A 
ATOM     12  C   UNL     1       1.812  -8.281   3.467  0.00  0.00    +0.043 A 
ATOM     13  N   UNL     1       1.641  -8.198   2.182  0.00  0.00    -0.375 N 
ATOM     14  C   UNL     1       1.607  -6.783   1.813  0.00  0.00    +0.143 C 
ATOM     15  C   UNL     1       0.305  -6.390   1.112  0.00  0.00    +0.165 C 
ATOM     16  C   UNL     1       0.257  -6.912  -0.288  0.00  0.00    +0.008 A 
ATOM     17  C   UNL     1       1.073  -6.691  -1.376  0.00  0.00    +0.008 A 
ATOM     18  C   UNL     1       0.742  -7.345  -2.557  0.00  0.00    +0.000 A 
ATOM     19  C   UNL     1      -0.357  -8.177  -2.634  0.00  0.00    +0.002 A 
ATOM     20  C   UNL     1      -1.183  -8.404  -1.544  0.00  0.00    +0.023 A 
ATOM     21  C   UNL     1      -0.860  -7.754  -0.352  0.00  0.00    +0.039 A 
ATOM     22  N   UNL     1      -1.499  -7.800   0.875  0.00  0.00    -0.283 N 
ATOM     23  C   UNL     1      -0.882  -7.030   1.796  0.00  0.00    +0.248 C 
ATOM     24  O   UNL     1      -1.217  -6.880   2.952  0.00  0.00    -0.273 OA
ATOM     25  H   UNL     1      -2.296  -8.324   1.052  0.00  0.00    +0.155 HD
ATOM     26  H   UNL     1       1.551  -8.946   1.571  0.00  0.00    +0.160 HD
ENDROOT
BRANCH   1  31
ATOM     27  C   UNL     1       0.108   1.503  -0.003  0.00  0.00    +0.044 C 
ATOM     28  C   UNL     1       0.095  -0.004  -0.008  0.00  0.00    -0.050 A 
ATOM     29  C   UNL     1       0.957  -0.697  -0.839  0.00  0.00    +0.004 A 
ATOM     30  C   UNL     1       0.951  -2.077  -0.848  0.00  0.00    +0.013 A 
ATOM     31  C   UNL     1       0.072  -2.773  -0.016  0.00  0.00    +0.037 A 
ATOM     32  C   UNL     1      -0.795  -2.067   0.819  0.00  0.00    +0.013 A 
ATOM     33  C   UNL     1      -0.775  -0.688   0.823  0.00  0.00    +0.004 A 
ENDBRANCH   1  31
BRANCH   9  34
ATOM     34  O   UNL     1       2.433  -7.855   7.570  0.00  0.00    -0.495 OA
ATOM     35  C   UNL     1       2.590  -9.082   8.285  0.00  0.00    +0.277 C 
ENDBRANCH   9  34
TORSDOF 2
