REMARK  Name = ZINC03012429
REMARK  11 active torsions:
REMARK  status: ('A' for Active; 'I' for Inactive)
REMARK    1  A    between atoms: C_1  and  O_2
REMARK    2  A    between atoms: O_2  and  C_3
REMARK    3  A    between atoms: C_6  and  C_11
REMARK    4  A    between atoms: C_8  and  O_9
REMARK    5  A    between atoms: O_9  and  C_10
REMARK    6  A    between atoms: C_14  and  C_35
REMARK    7  A    between atoms: C_19  and  C_21
REMARK    8  A    between atoms: N_23  and  C_24
REMARK    9  A    between atoms: C_28  and  C_30
REMARK   10  A    between atoms: C_30  and  C_31
REMARK   11  A    between atoms: C_31  and  C_32
REMARK                            x       y       z     vdW  Elec       q    Type
REMARK                         _______ _______ _______ _____ _____    ______ ____
ROOT
ATOM      1  C   UNL     1      -4.963  -2.612   0.042  0.00  0.00    +0.104 C 
ATOM      2  C   UNL     1      -5.543  -2.619  -1.377  0.00  0.00    +0.063 C 
ATOM      3  C   UNL     1      -5.658  -1.183  -1.901  0.00  0.00    +0.215 C 
ATOM      4  N   UNL     1      -6.339  -0.364  -0.895  0.00  0.00    -0.238 N 
ATOM      5  C   UNL     1      -6.446  -0.714   0.422  0.00  0.00    +0.119 A 
ATOM      6  C   UNL     1      -7.130   0.256   1.060  0.00  0.00    +0.078 A 
ATOM      7  C   UNL     1      -7.459   1.245   0.105  0.00  0.00    +0.149 A 
ATOM      8  N   UNL     1      -6.979   0.863  -1.065  0.00  0.00    -0.164 NA
ATOM      9  N   UNL     1      -5.900  -1.900   0.932  0.00  0.00    -0.322 N 
ATOM     10  H   UNL     1      -6.125  -2.235   1.815  0.00  0.00    +0.148 HD
ENDROOT
BRANCH   1  14
ATOM     11  C   UNL     1      -1.186  -0.606   0.040  0.00  0.00    +0.162 A 
ATOM     12  C   UNL     1      -2.363   0.126   0.044  0.00  0.00    +0.050 A 
ATOM     13  C   UNL     1      -3.582  -0.526   0.045  0.00  0.00    +0.009 A 
ATOM     14  C   UNL     1      -3.631  -1.907   0.041  0.00  0.00    -0.024 A 
ATOM     15  C   UNL     1      -2.461  -2.643   0.036  0.00  0.00    +0.054 A 
ATOM     16  C   UNL     1      -1.236  -1.997   0.030  0.00  0.00    +0.162 A 
BRANCH  11  18
ATOM     17  C   UNL     1      -0.012   1.462   0.049  0.00  0.00    +0.277 C 
ATOM     18  O   UNL     1       0.014   0.033   0.039  0.00  0.00    -0.491 OA
ENDBRANCH  11  18
BRANCH  16  19
ATOM     19  O   UNL     1      -0.084  -2.719   0.019  0.00  0.00    -0.491 OA
ATOM     20  C   UNL     1      -0.211  -4.143   0.010  0.00  0.00    +0.277 C 
ENDBRANCH  16  19
ENDBRANCH   1  14
BRANCH   7  21
ATOM     21  C   UNL     1      -8.210   2.489   0.370  0.00  0.00    +0.268 C 
ATOM     22  O   UNL     1      -8.604   2.733   1.494  0.00  0.00    -0.268 OA
ATOM     23  N   UNL     1      -8.457   3.353  -0.634  0.00  0.00    -0.280 N 
ATOM     24  H   UNL     1      -8.086   3.192  -1.515  0.00  0.00    +0.155 HD
BRANCH  23  25
ATOM     25  C   UNL     1      -9.250   4.482  -0.405  0.00  0.00    +0.034 A 
ATOM     26  C   UNL     1      -9.191   5.139   0.818  0.00  0.00    +0.023 A 
ATOM     27  C   UNL     1      -9.974   6.253   1.040  0.00  0.00    +0.002 A 
ATOM     28  C   UNL     1     -10.819   6.716   0.047  0.00  0.00    +0.004 A 
ATOM     29  C   UNL     1     -10.881   6.065  -1.171  0.00  0.00    -0.045 A 
ATOM     30  C   UNL     1     -10.095   4.953  -1.402  0.00  0.00    +0.027 A 
BRANCH  29  31
ATOM     31  C   UNL     1     -11.803   6.573  -2.250  0.00  0.00    +0.050 C 
BRANCH  31  32
ATOM     32  C   UNL     1     -11.059   7.589  -3.119  0.00  0.00    +0.123 C 
BRANCH  32  33
ATOM     33  C   UNL     1     -11.960   8.085  -4.173  0.00  0.00    +0.063 C 
ATOM     34  N   UNL     1     -12.654   8.467  -4.986  0.00  0.00    -0.197 NA
ENDBRANCH  32  33
ENDBRANCH  31  32
ENDBRANCH  29  31
ENDBRANCH  23  25
ENDBRANCH   7  21
BRANCH   3  35
ATOM     35  C   UNL     1      -6.463  -1.175  -3.202  0.00  0.00    +0.412 C 
ATOM     36  F   UNL     1      -7.743  -1.687  -2.962  0.00  0.00    -0.168 F 
ATOM     37  F   UNL     1      -6.566   0.136  -3.679  0.00  0.00    -0.168 F 
ATOM     38  F   UNL     1      -5.816  -1.968  -4.156  0.00  0.00    -0.168 F 
ENDBRANCH   3  35
TORSDOF 9
