REMARK  Name = ZINC09777273
REMARK  9 active torsions:
REMARK  status: ('A' for Active; 'I' for Inactive)
REMARK    1  A    between atoms: C_1  and  O_2
REMARK    2  A    between atoms: O_2  and  C_3
REMARK    3  A    between atoms: C_6  and  N_9
REMARK    4  A    between atoms: C_10  and  C_12
REMARK    5  A    between atoms: N_23  and  C_35
REMARK    6  A    between atoms: C_24  and  C_26
REMARK    7  A    between atoms: N_28  and  C_29
REMARK    8  A    between atoms: C_35  and  C_36
REMARK    9  A    between atoms: C_36  and  C_37
REMARK                            x       y       z     vdW  Elec       q    Type
REMARK                         _______ _______ _______ _____ _____    ______ ____
ROOT
ATOM      1  C   UNL     1       1.248   1.788   0.078  0.00  0.00    +0.123 C 
ATOM      2  C   UNL     1      -0.055   0.927   0.021  0.00  0.00    +0.155 C 
ATOM      3  C   UNL     1      -0.940   1.380   1.188  0.00  0.00    +0.004 C 
ATOM      4  C   UNL     1      -1.433   2.596   0.843  0.00  0.00    +0.009 C 
ATOM      5  C   UNL     1      -0.811   2.874  -0.478  0.00  0.00    +0.127 C 
ATOM      6  C   UNL     1       0.707   3.198  -0.219  0.00  0.00    +0.128 C 
ATOM      7  C   UNL     1       1.109   3.763  -1.553  0.00  0.00    +0.223 C 
ATOM      8  O   UNL     1       2.234   3.759  -2.006  0.00  0.00    -0.275 OA
ATOM      9  N   UNL     1       0.015   4.277  -2.170  0.00  0.00    -0.286 N 
ATOM     10  C   UNL     1      -1.213   3.990  -1.391  0.00  0.00    +0.198 C 
ATOM     11  O   UNL     1      -0.736   1.571  -1.116  0.00  0.00    -0.358 OA
ENDROOT
BRANCH   1  13
ATOM     12  N   UNL     1       2.298   0.548   1.943  0.00  0.00    -0.285 N 
ATOM     13  C   UNL     1       1.875   1.728   1.447  0.00  0.00    +0.224 C 
ATOM     14  O   UNL     1       1.999   2.741   2.102  0.00  0.00    -0.275 OA
ATOM     15  H   UNL     1       2.130  -0.272   1.453  0.00  0.00    +0.155 HD
BRANCH  12  19
ATOM     16  C   UNL     1       4.327   0.425   5.584  0.00  0.00    +0.120 A 
ATOM     17  C   UNL     1       3.499  -0.625   5.215  0.00  0.00    +0.047 A 
ATOM     18  C   UNL     1       2.827  -0.585   4.010  0.00  0.00    +0.027 A 
ATOM     19  C   UNL     1       2.980   0.507   3.166  0.00  0.00    +0.034 A 
ATOM     20  C   UNL     1       3.813   1.556   3.533  0.00  0.00    +0.027 A 
ATOM     21  C   UNL     1       4.480   1.517   4.741  0.00  0.00    +0.047 A 
BRANCH  16  23
ATOM     22  C   UNL     1       5.824   1.501   7.086  0.00  0.00    +0.277 C 
ATOM     23  O   UNL     1       4.989   0.385   6.771  0.00  0.00    -0.495 OA
ENDBRANCH  16  23
ENDBRANCH  12  19
ENDBRANCH   1  13
BRANCH  10  24
ATOM     24  C   UNL     1      -1.633   5.199  -0.595  0.00  0.00    +0.237 C 
ATOM     25  O   UNL     1      -0.860   6.120  -0.439  0.00  0.00    -0.274 OA
ATOM     26  N   UNL     1      -2.867   5.256  -0.057  0.00  0.00    -0.311 N 
ATOM     27  H   UNL     1      -3.485   4.519  -0.182  0.00  0.00    +0.149 HD
BRANCH  26  28
ATOM     28  C   UNL     1      -3.275   6.431   0.717  0.00  0.00    +0.073 C 
ATOM     29  C   UNL     1      -2.810   6.274   2.166  0.00  0.00    +0.022 C 
ATOM     30  C   UNL     1      -3.236   7.502   2.974  0.00  0.00    +0.002 C 
ATOM     31  C   UNL     1      -4.760   7.632   2.939  0.00  0.00    +0.000 C 
ATOM     32  C   UNL     1      -5.225   7.789   1.490  0.00  0.00    +0.002 C 
ATOM     33  C   UNL     1      -4.799   6.561   0.681  0.00  0.00    +0.022 C 
ENDBRANCH  26  28
ENDBRANCH  10  24
BRANCH   9  34
ATOM     34  C   UNL     1       0.044   5.016  -3.435  0.00  0.00    +0.113 C 
BRANCH  34  35
ATOM     35  C   UNL     1       0.225   6.508  -3.150  0.00  0.00    +0.054 C 
BRANCH  35  36
ATOM     36  C   UNL     1       0.255   7.268  -4.450  0.00  0.00    -0.046 A 
ATOM     37  C   UNL     1       1.458   7.487  -5.095  0.00  0.00    +0.004 A 
ATOM     38  C   UNL     1       1.485   8.180  -6.291  0.00  0.00    +0.000 A 
ATOM     39  C   UNL     1       0.310   8.663  -6.837  0.00  0.00    +0.000 A 
ATOM     40  C   UNL     1      -0.892   8.448  -6.189  0.00  0.00    +0.000 A 
ATOM     41  C   UNL     1      -0.919   7.751  -4.996  0.00  0.00    +0.004 A 
ENDBRANCH  35  36
ENDBRANCH  34  35
ENDBRANCH   9  34
TORSDOF 8
