REMARK  Name = ZINC15069201
REMARK  5 active torsions:
REMARK  status: ('A' for Active; 'I' for Inactive)
REMARK    1  A    between atoms: C_1  and  C_2
REMARK    2  A    between atoms: C_5  and  C_11
REMARK    3  A    between atoms: C_11  and  C_12
REMARK    4  A    between atoms: C_21  and  C_23
REMARK    5  A    between atoms: N_28  and  C_31
REMARK                            x       y       z     vdW  Elec       q    Type
REMARK                         _______ _______ _______ _____ _____    ______ ____
ROOT
ATOM      1  C   UNL     1      -1.936  -2.237  -7.663  0.00  0.00    +0.217 C 
ATOM      2  O   UNL     1      -1.908  -1.762  -8.779  0.00  0.00    -0.276 OA
ATOM      3  N   UNL     1      -2.398  -1.505  -6.630  0.00  0.00    -0.301 N 
ATOM      4  C   UNL     1      -2.869  -0.131  -6.846  0.00  0.00    +0.108 C 
ATOM      5  C   UNL     1      -2.070   0.814  -5.940  0.00  0.00    +0.026 C 
ATOM      6  C   UNL     1      -2.114   0.276  -4.507  0.00  0.00    -0.015 C 
ATOM      7  C   UNL     1      -1.627  -1.167  -4.339  0.00  0.00    +0.026 C 
ATOM      8  C   UNL     1      -2.435  -2.072  -5.276  0.00  0.00    +0.108 C 
ATOM      9  C   UNL     1      -3.255   0.750  -3.605  0.00  0.00    +0.021 C 
ATOM     10  C   UNL     1      -1.831   1.258  -3.371  0.00  0.00    +0.082 C 
ENDROOT
BRANCH  10  11
ATOM     11  C   UNL     1      -1.095   0.734  -2.164  0.00  0.00    +0.219 C 
ATOM     12  O   UNL     1      -1.653  -0.016  -1.392  0.00  0.00    -0.275 OA
ATOM     13  N   UNL     1       0.184   1.098  -1.944  0.00  0.00    -0.299 N 
ATOM     14  C   UNL     1       0.920   0.598  -0.773  0.00  0.00    +0.123 C 
ATOM     15  C   UNL     1       1.545   1.790  -0.041  0.00  0.00    +0.103 C 
ATOM     16  N   UNL     1       2.342   2.581  -0.989  0.00  0.00    -0.296 NA
ATOM     17  C   UNL     1       1.503   3.146  -2.054  0.00  0.00    +0.103 C 
ATOM     18  C   UNL     1       0.880   2.006  -2.868  0.00  0.00    +0.123 C 
BRANCH  16  19
ATOM     19  C   UNL     1       3.092   3.636  -0.295  0.00  0.00    +0.057 C 
ATOM     20  C   UNL     1       4.083   4.281  -1.266  0.00  0.00    +0.019 C 
ATOM     21  C   UNL     1       4.864   5.379  -0.542  0.00  0.00    +0.002 C 
ATOM     22  C   UNL     1       5.627   4.771   0.636  0.00  0.00    +0.000 C 
ATOM     23  C   UNL     1       4.636   4.126   1.607  0.00  0.00    +0.002 C 
ATOM     24  C   UNL     1       3.855   3.027   0.884  0.00  0.00    +0.019 C 
ENDBRANCH  16  19
ENDBRANCH  10  11
BRANCH   1  25
ATOM     25  C   UNL     1      -1.455  -3.647  -7.433  0.00  0.00    +0.118 C 
BRANCH  25  29
ATOM     26  C   UNL     1      -1.120  -6.259 -10.937  0.00  0.00    +0.028 C 
ATOM     27  C   UNL     1      -0.034  -6.268  -9.859  0.00  0.00    +0.071 C 
ATOM     28  C   UNL     1      -0.607  -5.719  -8.547  0.00  0.00    +0.044 C 
ATOM     29  C   UNL     1      -0.987  -4.250  -8.759  0.00  0.00    +0.082 C 
ATOM     30  N   UNL     1       0.183  -3.516  -9.244  0.00  0.00    -0.323 N 
ATOM     31  C   UNL     1       1.135  -4.122  -9.969  0.00  0.00    +0.131 C 
ATOM     32  S   UNL     1       2.467  -3.196 -10.514  0.00  0.00    -0.019 S 
ATOM     33  N   UNL     1       1.084  -5.425 -10.284  0.00  0.00    -0.324 N 
ATOM     34  H   UNL     1       0.294  -2.446  -9.016  0.00  0.00    +0.148 HD
ATOM     35  H   UNL     1       1.905  -5.857 -10.875  0.00  0.00    +0.148 HD
ENDBRANCH  25  29
ENDBRANCH   1  25
TORSDOF 4
