REMARK  Name = ZINC05328817
REMARK  12 active torsions:
REMARK  status: ('A' for Active; 'I' for Inactive)
REMARK    1  A    between atoms: C_4  and  C_7
REMARK    2  A    between atoms: C_7  and  C_8
REMARK    3  A    between atoms: C_8  and  C_10
REMARK    4  A    between atoms: C_8  and  N_13
REMARK    5  A    between atoms: C_14  and  C_16
REMARK    6  A    between atoms: C_16  and  N_17
REMARK    7  A    between atoms: C_18  and  C_20
REMARK    8  A    between atoms: C_20  and  C_22
REMARK    9  A    between atoms: C_20  and  N_29
REMARK   10  A    between atoms: C_22  and  C_23
REMARK   11  A    between atoms: C_30  and  C_32
REMARK   12  A    between atoms: C_32  and  N_58
REMARK                            x       y       z     vdW  Elec       q    Type
REMARK                         _______ _______ _______ _____ _____    ______ ____
ROOT
ATOM      1  N   UNL     1      -3.699  -0.223   1.682  0.00  0.00    -0.305 N 
ATOM      2  C   UNL     1      -2.511   0.243   1.246  0.00  0.00    +0.234 C 
ATOM      3  O   UNL     1      -1.493  -0.042   1.840  0.00  0.00    -0.274 OA
ATOM      4  H   UNL     1      -4.513   0.005   1.207  0.00  0.00    +0.149 HD
ENDROOT
BRANCH   1   5
ATOM      5  C   UNL     1      -3.759  -1.072   2.874  0.00  0.00    +0.200 C 
BRANCH   5   7
ATOM      6  N   UNL     1      -5.491  -2.239   4.201  0.00  0.00    -0.302 N 
ATOM      7  C   UNL     1      -5.191  -1.454   3.146  0.00  0.00    +0.231 C 
ATOM      8  O   UNL     1      -6.074  -1.056   2.417  0.00  0.00    -0.274 OA
ATOM      9  H   UNL     1      -4.784  -2.557   4.784  0.00  0.00    +0.150 HD
BRANCH   6  10
ATOM     10  C   UNL     1      -6.883  -2.610   4.466  0.00  0.00    +0.163 C 
BRANCH  10  11
ATOM     11  C   UNL     1      -7.549  -1.523   5.269  0.00  0.00    +0.231 C 
ATOM     12  O   UNL     1      -6.922  -0.535   5.589  0.00  0.00    -0.274 OA
ATOM     13  N   UNL     1      -8.841  -1.648   5.632  0.00  0.00    -0.328 N 
ATOM     14  H   UNL     1      -9.342  -2.438   5.376  0.00  0.00    +0.145 HD
ATOM     15  H   UNL     1      -9.269  -0.948   6.150  0.00  0.00    +0.145 HD
ENDBRANCH  10  11
BRANCH  10  16
ATOM     16  C   UNL     1      -6.920  -3.921   5.253  0.00  0.00    +0.067 C 
BRANCH  16  20
ATOM     17  C   UNL     1      -5.349  -7.076   2.839  0.00  0.00    +0.000 A 
ATOM     18  C   UNL     1      -4.505  -6.343   3.653  0.00  0.00    +0.000 A 
ATOM     19  C   UNL     1      -5.014  -5.322   4.434  0.00  0.00    +0.004 A 
ATOM     20  C   UNL     1      -6.366  -5.034   4.401  0.00  0.00    -0.045 A 
ATOM     21  C   UNL     1      -7.210  -5.771   3.592  0.00  0.00    +0.004 A 
ATOM     22  C   UNL     1      -6.700  -6.789   2.807  0.00  0.00    +0.000 A 
ENDBRANCH  16  20
ENDBRANCH  10  16
ENDBRANCH   6  10
ENDBRANCH   5   7
ENDBRANCH   1   5
BRANCH   2  23
ATOM     23  C   UNL     1      -2.449   1.117   0.020  0.00  0.00    +0.163 C 
BRANCH  23  24
ATOM     24  N   UNL     1      -1.191   1.867   0.018  0.00  0.00    -0.305 N 
ATOM     25  C   UNL     1      -0.014   1.209   0.009  0.00  0.00    +0.196 C 
ATOM     26  O   UNL     1       0.002  -0.004   0.002  0.00  0.00    -0.278 OA
ATOM     27  H   UNL     1      -1.204   2.837   0.023  0.00  0.00    +0.149 HD
BRANCH  25  28
ATOM     28  C   UNL     1       1.280   1.980   0.001  0.00  0.00    +0.011 C 
BRANCH  28  31
ATOM     29  H   UNL     1       3.290   1.534  -0.021  0.00  0.00    -0.089 HD
ATOM     30  H   UNL     1       2.359   0.401   0.763  0.00  0.00    -0.089 HD
ATOM     31  N   UNL     1       2.405   1.029  -0.037  0.00  0.00    +0.384 N 
ATOM     32  H   UNL     1       2.351   0.476  -0.901  0.00  0.00    -0.089 HD
ENDBRANCH  28  31
ENDBRANCH  25  28
ENDBRANCH  23  24
BRANCH  23  33
ATOM     33  C   UNL     1      -2.524   0.243  -1.234  0.00  0.00    +0.067 C 
BRANCH  33  34
ATOM     34  C   UNL     1      -2.586   1.122  -2.456  0.00  0.00    -0.045 A 
ATOM     35  C   UNL     1      -3.810   1.529  -2.954  0.00  0.00    +0.004 A 
ATOM     36  C   UNL     1      -3.866   2.340  -4.072  0.00  0.00    +0.000 A 
ATOM     37  C   UNL     1      -2.699   2.735  -4.699  0.00  0.00    +0.000 A 
ATOM     38  C   UNL     1      -1.475   2.324  -4.204  0.00  0.00    +0.000 A 
ATOM     39  C   UNL     1      -1.419   1.518  -3.083  0.00  0.00    +0.004 A 
ENDBRANCH  33  34
ENDBRANCH  23  33
ENDBRANCH   2  23
TORSDOF 12
