REMARK  Name = ZINC30500415
REMARK  12 active torsions:
REMARK  status: ('A' for Active; 'I' for Inactive)
REMARK    1  A    between atoms: C_1  and  C_2
REMARK    2  A    between atoms: C_2  and  C_3
REMARK    3  A    between atoms: N_5  and  C_6
REMARK    4  A    between atoms: C_9  and  C_12
REMARK    5  A    between atoms: C_12  and  C_14
REMARK    6  A    between atoms: C_12  and  N_15
REMARK    7  A    between atoms: N_15  and  C_16
REMARK    8  A    between atoms: C_16  and  C_18
REMARK    9  A    between atoms: C_16  and  C_19
REMARK   10  A    between atoms: N_21  and  C_22
REMARK   11  A    between atoms: C_25  and  C_31
REMARK   12  A    between atoms: C_26  and  N_28
REMARK                            x       y       z     vdW  Elec       q    Type
REMARK                         _______ _______ _______ _____ _____    ______ ____
ROOT
ATOM      1  N   UNL     1      -6.317  -1.845   2.020  0.00  0.00    +0.391 N 
ATOM      2  H   UNL     1      -5.597  -2.550   1.579  0.00  0.00    -0.084 HD
ATOM      3  H   UNL     1      -5.915  -1.453   2.966  0.00  0.00    -0.084 HD
ENDROOT
BRANCH   1   4
ATOM      4  C   UNL     1      -6.548  -0.734   1.087  0.00  0.00    -0.043 C 
ATOM      5  C   UNL     1      -6.495  -1.255  -0.350  0.00  0.00    -0.009 C 
BRANCH   4   9
ATOM      6  C   UNL     1      -3.524   2.236   1.635  0.00  0.00    +0.033 A 
ATOM      7  C   UNL     1      -3.191   0.889   1.675  0.00  0.00    +0.023 A 
ATOM      8  C   UNL     1      -4.171  -0.069   1.502  0.00  0.00    +0.004 A 
ATOM      9  C   UNL     1      -5.481   0.314   1.281  0.00  0.00    -0.062 A 
ATOM     10  C   UNL     1      -5.815   1.655   1.236  0.00  0.00    +0.004 A 
ATOM     11  C   UNL     1      -4.840   2.617   1.412  0.00  0.00    +0.023 A 
BRANCH   6  14
ATOM     12  C   UNL     1      -2.825   4.356   2.459  0.00  0.00    +0.217 C 
ATOM     13  O   UNL     1      -3.963   4.581   2.813  0.00  0.00    -0.275 OA
ATOM     14  N   UNL     1      -2.534   3.209   1.814  0.00  0.00    -0.286 N 
ATOM     15  H   UNL     1      -1.518   3.037   1.428  0.00  0.00    +0.155 HD
BRANCH  12  17
ATOM     16  C   UNL     1      -2.326   6.556   3.489  0.00  0.00    +0.013 C 
ATOM     17  C   UNL     1      -1.735   5.356   2.747  0.00  0.00    +0.093 C 
ENDBRANCH  12  17
ENDBRANCH   6  14
ENDBRANCH   4   9
ENDBRANCH   1   4
BRANCH   1  18
ATOM     18  C   UNL     1      -7.567  -2.563   2.302  0.00  0.00    +0.014 C 
ATOM     19  C   UNL     1      -8.318  -1.857   3.433  0.00  0.00    -0.004 C 
BRANCH  18  20
ATOM     20  C   UNL     1      -7.251  -3.978   2.716  0.00  0.00    +0.203 C 
ATOM     21  O   UNL     1      -6.099  -4.350   2.771  0.00  0.00    -0.277 OA
ATOM     22  N   UNL     1      -8.250  -4.828   3.026  0.00  0.00    -0.287 N 
ATOM     23  H   UNL     1      -9.297  -4.514   2.905  0.00  0.00    +0.155 HD
BRANCH  22  24
ATOM     24  C   UNL     1      -7.955  -6.111   3.500  0.00  0.00    +0.036 A 
ATOM     25  C   UNL     1      -6.849  -6.795   3.014  0.00  0.00    +0.024 A 
ATOM     26  C   UNL     1      -6.557  -8.059   3.488  0.00  0.00    +0.007 A 
ATOM     27  C   UNL     1      -7.371  -8.647   4.439  0.00  0.00    -0.020 A 
ATOM     28  C   UNL     1      -8.476  -7.971   4.921  0.00  0.00    +0.131 A 
ATOM     29  C   UNL     1      -8.770  -6.704   4.455  0.00  0.00    +0.056 A 
ATOM     30  C   UNL     1      -7.053 -10.029   4.950  0.00  0.00    +0.046 C 
BRANCH  28  31
ATOM     31  N   UNL     1      -9.344  -8.604   5.939  0.00  0.00    +0.057 N 
ATOM     32  O   UNL     1     -10.338  -8.023   6.339  0.00  0.00    -0.126 OA
ATOM     33  O   UNL     1      -9.066  -9.706   6.377  0.00  0.00    -0.126 OA
ENDBRANCH  28  31
ENDBRANCH  22  24
ENDBRANCH  18  20
ENDBRANCH   1  18
TORSDOF 8
