REMARK  Name = ZINC09428411
REMARK  9 active torsions:
REMARK  status: ('A' for Active; 'I' for Inactive)
REMARK    1  A    between atoms: C_4  and  C_7
REMARK    2  A    between atoms: C_11  and  C_12
REMARK    3  A    between atoms: N_13  and  C_14
REMARK    4  A    between atoms: C_14  and  C_15
REMARK    5  A    between atoms: C_15  and  N_69
REMARK    6  A    between atoms: N_18  and  C_21
REMARK    7  A    between atoms: C_21  and  N_23
REMARK    8  A    between atoms: N_23  and  C_24
REMARK    9  A    between atoms: C_24  and  C_25
REMARK                            x       y       z     vdW  Elec       q    Type
REMARK                         _______ _______ _______ _____ _____    ______ ____
ROOT
ATOM      1  C   UNL     1      -6.420  -0.423   4.257  0.00  0.00    -0.059 C 
ATOM      2  C   UNL     1      -5.564  -1.128   3.199  0.00  0.00    +0.088 C 
ATOM      3  N   UNL     1      -4.389  -0.291   2.915  0.00  0.00    -0.316 N 
ATOM      4  C   UNL     1      -3.577   0.176   4.049  0.00  0.00    +0.088 C 
ATOM      5  C   UNL     1      -4.514   0.835   5.074  0.00  0.00    -0.059 C 
ATOM      6  N   UNL     1      -5.574  -0.132   5.435  0.00  0.00    +0.383 N 
ATOM      7  H   UNL     1      -5.135  -1.004   5.753  0.00  0.00    -0.082 HD
ENDROOT
BRANCH   3   8
ATOM      8  C   UNL     1      -4.061   0.034   1.649  0.00  0.00    +0.133 C 
ATOM      9  S   UNL     1      -5.089  -0.415   0.356  0.00  0.00    -0.019 S 
BRANCH   8  10
ATOM     10  N   UNL     1      -2.923   0.713   1.401  0.00  0.00    -0.322 N 
ATOM     11  H   UNL     1      -2.377   1.030   2.137  0.00  0.00    +0.148 HD
BRANCH  10  12
ATOM     12  C   UNL     1      -2.511   0.971   0.019  0.00  0.00    +0.138 C 
BRANCH  12  13
ATOM     13  C   UNL     1      -1.216   1.741   0.016  0.00  0.00    -0.027 A 
ATOM     14  C   UNL     1      -0.011   1.063   0.005  0.00  0.00    +0.009 A 
ATOM     15  C   UNL     1       1.180   1.765  -0.003  0.00  0.00    +0.050 A 
ATOM     16  C   UNL     1       1.169   3.151   0.006  0.00  0.00    +0.166 A 
ATOM     17  C   UNL     1      -0.045   3.833   0.022  0.00  0.00    +0.167 A 
ATOM     18  C   UNL     1      -1.235   3.123   0.031  0.00  0.00    +0.054 A 
ATOM     19  O   UNL     1       0.208   5.174   0.028  0.00  0.00    -0.453 OA
ATOM     20  C   UNL     1       1.577   5.309  -0.398  0.00  0.00    +0.466 C 
ATOM     21  O   UNL     1       2.183   4.064   0.001  0.00  0.00    -0.453 OA
ENDBRANCH  12  13
ENDBRANCH  10  12
ENDBRANCH   8  10
ENDBRANCH   3   8
BRANCH   6  22
ATOM     22  C   UNL     1      -6.403   0.415   6.528  0.00  0.00    -0.055 C 
BRANCH  22  23
ATOM     23  C   UNL     1      -5.553   0.498   7.797  0.00  0.00    +0.122 C 
BRANCH  23  25
ATOM     24  C   UNL     1      -5.825   1.177  10.119  0.00  0.00    +0.096 C 
ATOM     25  N   UNL     1      -6.367   1.018   8.899  0.00  0.00    -0.297 NA
BRANCH  24  30
ATOM     26  C   UNL     1      -8.045   3.189  13.186  0.00  0.00    +0.033 C 
ATOM     27  C   UNL     1      -6.518   3.105  13.263  0.00  0.00    +0.084 C 
ATOM     28  C   UNL     1      -6.057   1.866  12.524  0.00  0.00    +0.149 C 
ATOM     29  O   UNL     1      -5.284   1.075  13.024  0.00  0.00    -0.296 OA
ATOM     30  C   UNL     1      -6.597   1.669  11.163  0.00  0.00    +0.162 C 
ATOM     31  C   UNL     1      -8.017   2.041  10.991  0.00  0.00    +0.149 C 
ATOM     32  O   UNL     1      -8.769   1.387  10.299  0.00  0.00    -0.296 OA
ATOM     33  C   UNL     1      -8.491   3.276  11.723  0.00  0.00    +0.084 C 
BRANCH  26  37
ATOM     34  C   UNL     1      -9.382   6.662  15.284  0.00  0.00    +0.000 A 
ATOM     35  C   UNL     1      -9.808   5.408  15.680  0.00  0.00    +0.000 A 
ATOM     36  C   UNL     1      -9.375   4.285  15.002  0.00  0.00    +0.004 A 
ATOM     37  C   UNL     1      -8.517   4.415  13.926  0.00  0.00    -0.043 A 
ATOM     38  C   UNL     1      -8.087   5.668  13.532  0.00  0.00    +0.004 A 
ATOM     39  C   UNL     1      -8.523   6.792  14.208  0.00  0.00    +0.000 A 
ENDBRANCH  26  37
ENDBRANCH  24  30
ENDBRANCH  23  25
ENDBRANCH  22  23
ENDBRANCH   6  22
TORSDOF 9
