REMARK  Name = ZINC15221422
REMARK  9 active torsions:
REMARK  status: ('A' for Active; 'I' for Inactive)
REMARK    1  A    between atoms: C_4  and  C_7
REMARK    2  A    between atoms: C_7  and  C_8
REMARK    3  A    between atoms: C_8  and  C_10
REMARK    4  A    between atoms: C_8  and  S_31
REMARK    5  A    between atoms: C_10  and  C_11
REMARK    6  A    between atoms: C_11  and  C_13
REMARK    7  A    between atoms: C_14  and  O_30
REMARK    8  A    between atoms: N_21  and  C_24
REMARK    9  A    between atoms: S_31  and  C_32
REMARK                            x       y       z     vdW  Elec       q    Type
REMARK                         _______ _______ _______ _____ _____    ______ ____
ROOT
ATOM      1  C   UNL     1       4.427  -4.909   0.119  0.00  0.00    +0.173 C 
ATOM      2  O   UNL     1       5.497  -5.480   0.068  0.00  0.00    -0.292 OA
ENDROOT
BRANCH   1   3
ATOM      3  C   UNL     1       4.370  -3.501  -0.020  0.00  0.00    +0.124 A 
ATOM      4  C   UNL     1       5.520  -2.770  -0.347  0.00  0.00    +0.142 A 
ATOM      5  C   UNL     1       5.403  -1.315  -0.478  0.00  0.00    +0.041 A 
ATOM      6  C   UNL     1       6.522  -0.538  -0.804  0.00  0.00    +0.013 A 
ATOM      7  C   UNL     1       6.393   0.815  -0.940  0.00  0.00    +0.001 A 
ATOM      8  C   UNL     1       5.163   1.429  -0.740  0.00  0.00    +0.002 A 
ATOM      9  C   UNL     1       4.051   0.684  -0.413  0.00  0.00    +0.027 A 
ATOM     10  C   UNL     1       4.155  -0.698  -0.281  0.00  0.00    +0.061 A 
ATOM     11  N   UNL     1       3.043  -1.450   0.046  0.00  0.00    -0.276 N 
ATOM     12  C   UNL     1       3.106  -2.786   0.176  0.00  0.00    +0.270 A 
ATOM     13  O   UNL     1       2.100  -3.410   0.461  0.00  0.00    -0.266 OA
BRANCH  11  14
ATOM     14  C   UNL     1       1.817  -0.803   0.241  0.00  0.00    +0.050 A 
ATOM     15  C   UNL     1       1.647   0.055   1.319  0.00  0.00    +0.026 A 
ATOM     16  C   UNL     1       0.436   0.691   1.509  0.00  0.00    +0.002 A 
ATOM     17  C   UNL     1      -0.606   0.475   0.626  0.00  0.00    +0.000 A 
ATOM     18  C   UNL     1      -0.440  -0.379  -0.449  0.00  0.00    +0.002 A 
ATOM     19  C   UNL     1       0.769  -1.018  -0.644  0.00  0.00    +0.026 A 
ENDBRANCH  11  14
BRANCH   4  20
ATOM     20  O   UNL     1       6.703  -3.390  -0.536  0.00  0.00    -0.505 OA
ATOM     21  H   UNL     1       6.702  -4.356  -0.503  0.00  0.00    +0.292 HD
ENDBRANCH   4  20
ENDBRANCH   1   3
BRANCH   1  22
ATOM     22  C   UNL     1       3.161  -5.698   0.331  0.00  0.00    +0.094 C 
BRANCH  22  23
ATOM     23  C   UNL     1       3.509  -7.172   0.549  0.00  0.00    +0.062 C 
BRANCH  23  24
ATOM     24  C   UNL     1       2.233  -7.957   0.858  0.00  0.00    +0.050 C 
BRANCH  24  28
ATOM     25  C   UNL     1       3.238 -12.006   1.776  0.00  0.00    +0.000 A 
ATOM     26  C   UNL     1       3.179 -11.062   2.784  0.00  0.00    +0.000 A 
ATOM     27  C   UNL     1       2.853  -9.752   2.487  0.00  0.00    +0.003 A 
ATOM     28  C   UNL     1       2.587  -9.385   1.182  0.00  0.00    -0.046 A 
ATOM     29  C   UNL     1       2.641 -10.329   0.173  0.00  0.00    +0.003 A 
ATOM     30  C   UNL     1       2.971 -11.639   0.470  0.00  0.00    +0.000 A 
ENDBRANCH  24  28
ENDBRANCH  23  24
BRANCH  23  31
ATOM     31  S   UNL     1       4.281  -7.838  -0.952  0.00  0.00    -0.106 S 
BRANCH  31  32
ATOM     32  C   UNL     1       3.059  -7.516  -2.254  0.00  0.00    +0.305 C 
ATOM     33  N   UNL     1       1.732  -8.018  -1.854  0.00  0.00    -0.212 NA
ATOM     34  C   UNL     1       0.967  -6.960  -1.825  0.00  0.00    +0.230 C 
ATOM     35  N   UNL     1       1.666  -5.838  -2.167  0.00  0.00    -0.116 NA
ATOM     36  N   UNL     1       2.853  -6.069  -2.422  0.00  0.00    -0.146 NA
ATOM     37  N   UNL     1      -0.371  -6.975  -1.495  0.00  0.00    -0.326 N 
ATOM     38  H   UNL     1      -0.897  -6.163  -1.565  0.00  0.00    +0.145 HD
ATOM     39  H   UNL     1      -0.787  -7.798  -1.193  0.00  0.00    +0.145 HD
ENDBRANCH  31  32
ENDBRANCH  23  31
ENDBRANCH  22  23
ENDBRANCH   1  22
TORSDOF 9
