REMARK  Name = ZINC44940453
REMARK  8 active torsions:
REMARK  status: ('A' for Active; 'I' for Inactive)
REMARK    1  A    between atoms: C_1  and  C_2
REMARK    2  A    between atoms: C_2  and  C_38
REMARK    3  A    between atoms: C_4  and  N_11
REMARK    4  A    between atoms: C_6  and  C_9
REMARK    5  A    between atoms: C_6  and  C_10
REMARK    6  A    between atoms: N_7  and  C_8
REMARK    7  A    between atoms: C_12  and  C_14
REMARK    8  A    between atoms: C_20  and  C_22
REMARK                            x       y       z     vdW  Elec       q    Type
REMARK                         _______ _______ _______ _____ _____    ______ ____
ROOT
ATOM      1  C   UNL     1       2.238  -4.002  -4.193  0.00  0.00    +0.091 C 
ATOM      2  C   UNL     1       3.743  -3.772  -4.045  0.00  0.00    +0.040 C 
ATOM      3  C   UNL     1       4.476  -4.379  -5.205  0.00  0.00    -0.030 C 
ATOM      4  C   UNL     1       3.965  -5.262  -6.003  0.00  0.00    -0.030 C 
ATOM      5  C   UNL     1       2.567  -5.793  -5.885  0.00  0.00    +0.040 C 
ATOM      6  C   UNL     1       1.997  -5.485  -4.500  0.00  0.00    +0.091 C 
ENDROOT
BRANCH   6   7
ATOM      7  C   UNL     1       0.518  -5.773  -4.480  0.00  0.00    +0.220 C 
ATOM      8  O   UNL     1      -0.275  -4.888  -4.723  0.00  0.00    -0.275 OA
ATOM      9  N   UNL     1       0.077  -7.014  -4.193  0.00  0.00    -0.295 N 
ATOM     10  C   UNL     1      -1.355  -7.342  -4.270  0.00  0.00    +0.113 C 
ATOM     11  C   UNL     1      -1.568  -8.383  -5.375  0.00  0.00    +0.056 C 
ATOM     12  C   UNL     1      -0.518  -9.457  -5.246  0.00  0.00    -0.016 A 
ATOM     13  C   UNL     1      -0.521 -10.789  -5.816  0.00  0.00    +0.003 A 
ATOM     14  C   UNL     1      -1.439 -11.474  -6.618  0.00  0.00    +0.010 A 
ATOM     15  C   UNL     1      -1.109 -12.756  -6.982  0.00  0.00    +0.001 A 
ATOM     16  C   UNL     1       0.073 -13.354  -6.579  0.00  0.00    +0.002 A 
ATOM     17  C   UNL     1       0.999 -12.700  -5.785  0.00  0.00    +0.026 A 
ATOM     18  C   UNL     1       0.692 -11.396  -5.401  0.00  0.00    +0.047 A 
ATOM     19  N   UNL     1       1.363 -10.483  -4.640  0.00  0.00    -0.356 N 
ATOM     20  H   UNL     1       2.228 -10.631  -4.225  0.00  0.00    +0.166 HD
ATOM     21  C   UNL     1       0.633  -9.329  -4.551  0.00  0.00    +0.038 A 
ATOM     22  C   UNL     1       1.016  -8.078  -3.800  0.00  0.00    +0.161 C 
ENDBRANCH   6   7
BRANCH   1  24
ATOM     23  N   UNL     1       1.622  -2.370  -2.438  0.00  0.00    -0.312 N 
ATOM     24  C   UNL     1       1.540  -3.630  -2.910  0.00  0.00    +0.217 C 
ATOM     25  O   UNL     1       0.904  -4.465  -2.301  0.00  0.00    -0.275 OA
ATOM     26  H   UNL     1       2.131  -1.702  -2.925  0.00  0.00    +0.149 HD
BRANCH  23  30
ATOM     27  C   UNL     1      -0.047   1.450   0.153  0.00  0.00    -0.010 C 
ATOM     28  C   UNL     1      -0.024  -0.095   0.114  0.00  0.00    -0.069 C 
ATOM     29  C   UNL     1       0.651  -0.507  -1.189  0.00  0.00    +0.010 C 
ATOM     30  C   UNL     1       0.943  -2.008  -1.188  0.00  0.00    +0.070 C 
ATOM     31  C   UNL     1       1.864  -2.313  -0.007  0.00  0.00    +0.010 C 
ATOM     32  C   UNL     1       1.196  -1.915   1.305  0.00  0.00    -0.069 C 
ATOM     33  N   UNL     1       0.682  -0.555   1.299  0.00  0.00    +0.385 N 
ATOM     34  C   UNL     1      -0.195  -0.373   2.476  0.00  0.00    -0.095 C 
ATOM     35  C   UNL     1       0.099  -2.924   1.658  0.00  0.00    -0.010 C 
ATOM     36  C   UNL     1       2.269  -2.005   2.415  0.00  0.00    -0.010 C 
ATOM     37  C   UNL     1      -1.482  -0.567   0.116  0.00  0.00    -0.010 C 
ATOM     38  H   UNL     1       1.483   0.076   1.443  0.00  0.00    -0.081 HD
ENDBRANCH  23  30
ENDBRANCH   1  24
TORSDOF 3
