REMARK  Name = ZINC39856214
REMARK  11 active torsions:
REMARK  status: ('A' for Active; 'I' for Inactive)
REMARK    1  A    between atoms: C_1  and  C_2
REMARK    2  A    between atoms: C_6  and  C_7
REMARK    3  A    between atoms: N_9  and  N_10
REMARK    4  A    between atoms: C_11  and  C_13
REMARK    5  A    between atoms: C_13  and  O_14
REMARK    6  A    between atoms: O_14  and  C_15
REMARK    7  A    between atoms: C_22  and  C_30
REMARK    8  A    between atoms: C_22  and  C_31
REMARK    9  A    between atoms: N_25  and  N_26
REMARK   10  A    between atoms: N_26  and  C_27
REMARK   11  A    between atoms: C_27  and  N_29
REMARK                            x       y       z     vdW  Elec       q    Type
REMARK                         _______ _______ _______ _____ _____    ______ ____
ROOT
ATOM      1  C   UNL     1      -0.018   1.503   0.010  0.00  0.00    +0.048 C 
ATOM      2  C   UNL     1       0.002  -0.004   0.002  0.00  0.00    +0.009 A 
ATOM      3  C   UNL     1       0.008  -0.838  -1.123  0.00  0.00    +0.042 A 
ATOM      4  C   UNL     1       0.026  -2.137  -0.673  0.00  0.00    +0.116 A 
ATOM      5  O   UNL     1       0.034  -2.112   0.658  0.00  0.00    -0.454 OA
ATOM      6  C   UNL     1       0.024  -0.830   1.091  0.00  0.00    +0.194 A 
ATOM      7  C   UNL     1       0.032  -3.326  -1.600  0.00  0.00    +0.081 C 
ATOM      8  C   UNL     1      -0.492  -2.902  -2.974  0.00  0.00    -0.023 C 
ATOM      9  C   UNL     1       0.279  -1.685  -3.495  0.00  0.00    +0.064 C 
ATOM     10  C   UNL     1       0.001  -0.512  -2.566  0.00  0.00    +0.070 C 
ATOM     11  N   UNL     1      -0.226   0.687  -3.008  0.00  0.00    -0.185 NA
ATOM     12  C   UNL     1      -0.325  -4.063  -3.957  0.00  0.00    +0.011 C 
ATOM     13  C   UNL     1      -1.976  -2.548  -2.860  0.00  0.00    +0.011 C 
ENDROOT
BRANCH   6  14
ATOM     14  C   UNL     1       0.032  -0.400   2.494  0.00  0.00    +0.296 C 
ATOM     15  O   UNL     1       0.018   0.786   2.766  0.00  0.00    -0.265 OA
ATOM     16  N   UNL     1       0.054  -1.317   3.480  0.00  0.00    -0.228 N 
ATOM     17  H   UNL     1       0.065  -2.263   3.263  0.00  0.00    +0.173 HD
BRANCH  16  18
ATOM     18  N   UNL     1       0.061  -0.906   4.819  0.00  0.00    -0.231 N 
ATOM     19  C   UNL     1       0.084  -1.824   5.806  0.00  0.00    +0.267 C 
ATOM     20  O   UNL     1       0.097  -3.006   5.535  0.00  0.00    -0.271 OA
ATOM     21  H   UNL     1       0.050   0.039   5.037  0.00  0.00    +0.173 HD
BRANCH  19  22
ATOM     22  C   UNL     1       0.091  -1.381   7.247  0.00  0.00    +0.326 C 
BRANCH  22  23
ATOM     23  O   UNL     1       0.116  -2.529   8.098  0.00  0.00    -0.483 OA
BRANCH  23  24
ATOM     24  C   UNL     1       0.125  -2.304   9.438  0.00  0.00    +0.121 A 
ATOM     25  C   UNL     1       0.106  -1.005   9.924  0.00  0.00    +0.045 A 
ATOM     26  C   UNL     1       0.116  -0.778  11.287  0.00  0.00    +0.004 A 
ATOM     27  C   UNL     1       0.145  -1.845  12.166  0.00  0.00    +0.000 A 
ATOM     28  C   UNL     1       0.164  -3.141  11.684  0.00  0.00    +0.004 A 
ATOM     29  C   UNL     1       0.149  -3.373  10.322  0.00  0.00    +0.045 A 
ENDBRANCH  23  24
ENDBRANCH  22  23
ENDBRANCH  19  22
ENDBRANCH  16  18
ENDBRANCH   6  14
BRANCH  11  30
ATOM     30  N   UNL     1      -0.221   0.938  -4.386  0.00  0.00    -0.218 N 
ATOM     31  H   UNL     1      -0.048   0.216  -5.010  0.00  0.00    +0.176 HD
BRANCH  30  32
ATOM     32  C   UNL     1      -0.457   2.183  -4.845  0.00  0.00    +0.147 C 
ATOM     33  S   UNL     1      -0.451   2.491  -6.529  0.00  0.00    -0.017 S 
BRANCH  32  34
ATOM     34  N   UNL     1      -0.698   3.186  -3.977  0.00  0.00    -0.339 N 
ATOM     35  H   UNL     1      -0.701   3.012  -3.023  0.00  0.00    +0.144 HD
ATOM     36  H   UNL     1      -0.868   4.083  -4.307  0.00  0.00    +0.144 HD
ENDBRANCH  32  34
ENDBRANCH  30  32
ENDBRANCH  11  30
TORSDOF 8
