REMARK  Name = ZINC45253041
REMARK  8 active torsions:
REMARK  status: ('A' for Active; 'I' for Inactive)
REMARK    1  A    between atoms: C_1  and  C_2
REMARK    2  A    between atoms: C_4  and  C_30
REMARK    3  A    between atoms: C_6  and  O_8
REMARK    4  A    between atoms: O_8  and  C_9
REMARK    5  A    between atoms: C_10  and  C_19
REMARK    6  A    between atoms: C_11  and  C_18
REMARK    7  A    between atoms: C_19  and  N_20
REMARK    8  A    between atoms: C_24  and  C_27
REMARK                            x       y       z     vdW  Elec       q    Type
REMARK                         _______ _______ _______ _____ _____    ______ ____
ROOT
ATOM      1  C   UNL     1       0.267  -1.951   3.112  0.00  0.00    +0.150 A 
ATOM      2  C   UNL     1       0.478  -2.400   4.431  0.00  0.00    -0.001 A 
ATOM      3  C   UNL     1       0.496  -1.512   5.447  0.00  0.00    +0.021 A 
ATOM      4  N   UNL     1       0.314  -0.185   5.218  0.00  0.00    -0.325 N 
ATOM      5  H   UNL     1       0.331   0.435   5.964  0.00  0.00    +0.169 HD
ATOM      6  C   UNL     1       0.110   0.283   3.973  0.00  0.00    +0.266 A 
ATOM      7  O   UNL     1      -0.051   1.480   3.790  0.00  0.00    -0.267 OA
ATOM      8  C   UNL     1       0.088  -0.598   2.885  0.00  0.00    +0.120 A 
ATOM      9  I   UNL     1      -0.221   0.121   0.942  0.00  0.00    -0.034 I 
ATOM     10  C   UNL     1       0.722  -1.999   6.856  0.00  0.00    +0.064 C 
ENDROOT
BRANCH   1  11
ATOM     11  O   UNL     1       0.246  -2.829   2.081  0.00  0.00    -0.455 OA
BRANCH  11  17
ATOM     12  C   UNL     1       2.603  -6.152  -0.608  0.00  0.00    +0.044 C 
ATOM     13  C   UNL     1       2.597  -5.070   0.441  0.00  0.00    -0.047 A 
ATOM     14  C   UNL     1       3.776  -4.706   1.064  0.00  0.00    +0.007 A 
ATOM     15  C   UNL     1       3.775  -3.714   2.027  0.00  0.00    -0.047 A 
ATOM     16  C   UNL     1       2.594  -3.084   2.369  0.00  0.00    +0.049 A 
ATOM     17  C   UNL     1       1.409  -3.447   1.746  0.00  0.00    +0.129 A 
ATOM     18  C   UNL     1       1.414  -4.439   0.775  0.00  0.00    +0.049 A 
ATOM     19  C   UNL     1       5.062  -3.320   2.704  0.00  0.00    +0.044 C 
ENDBRANCH  11  17
ENDBRANCH   1  11
BRANCH   2  20
ATOM     20  C   UNL     1       0.681  -3.868   4.706  0.00  0.00    -0.037 C 
BRANCH  20  21
ATOM     21  N   UNL     1      -0.618  -4.553   4.691  0.00  0.00    +0.383 N 
ATOM     22  C   UNL     1      -1.427  -4.091   5.825  0.00  0.00    -0.078 C 
ATOM     23  C   UNL     1      -2.811  -4.741   5.769  0.00  0.00    -0.018 C 
ATOM     24  C   UNL     1      -2.657  -6.263   5.837  0.00  0.00    +0.009 C 
ATOM     25  C   UNL     1      -1.751  -6.726   4.693  0.00  0.00    +0.058 C 
ATOM     26  C   UNL     1      -0.406  -6.002   4.789  0.00  0.00    -0.066 C 
ATOM     27  H   UNL     1      -1.099  -4.342   3.829  0.00  0.00    -0.081 HD
BRANCH  25  28
ATOM     28  C   UNL     1      -1.531  -8.214   4.795  0.00  0.00    +0.212 C 
ATOM     29  O   UNL     1      -0.408  -8.653   4.928  0.00  0.00    -0.276 OA
ATOM     30  N   UNL     1      -2.582  -9.055   4.739  0.00  0.00    -0.329 N 
ATOM     31  H   UNL     1      -3.480  -8.704   4.632  0.00  0.00    +0.145 HD
ATOM     32  H   UNL     1      -2.441 -10.013   4.805  0.00  0.00    +0.145 HD
ENDBRANCH  25  28
ENDBRANCH  20  21
ENDBRANCH   2  20
TORSDOF 5
