REMARK  Name = ZINC13027227
REMARK  8 active torsions:
REMARK  status: ('A' for Active; 'I' for Inactive)
REMARK    1  A    between atoms: C_6  and  C_7
REMARK    2  A    between atoms: C_7  and  C_9
REMARK    3  A    between atoms: C_7  and  N_30
REMARK    4  A    between atoms: C_9  and  C_10
REMARK    5  A    between atoms: C_10  and  O_12
REMARK    6  A    between atoms: O_12  and  C_13
REMARK    7  A    between atoms: C_13  and  C_14
REMARK    8  A    between atoms: N_19  and  C_20
REMARK                            x       y       z     vdW  Elec       q    Type
REMARK                         _______ _______ _______ _____ _____    ______ ____
ROOT
ATOM      1  O   UNL     1      -1.085   2.785   3.519  0.00  0.00    -0.455 OA
ENDROOT
BRANCH   1   2
ATOM      2  C   UNL     1      -1.181   2.031   2.413  0.00  0.00    +0.310 C 
ATOM      3  O   UNL     1      -1.244   0.828   2.505  0.00  0.00    -0.251 OA
BRANCH   2   4
ATOM      4  C   UNL     1      -1.210   2.686   1.056  0.00  0.00    +0.147 C 
BRANCH   4   5
ATOM      5  C   UNL     1      -1.323   1.610  -0.027  0.00  0.00    +0.115 C 
BRANCH   5  11
ATOM      6  C   UNL     1      -0.378   2.833  -1.996  0.00  0.00    +0.007 A 
ATOM      7  C   UNL     1      -0.517   3.432  -3.233  0.00  0.00    +0.020 A 
ATOM      8  C   UNL     1      -1.757   3.476  -3.846  0.00  0.00    +0.041 A 
ATOM      9  C   UNL     1      -2.856   2.914  -3.221  0.00  0.00    +0.020 A 
ATOM     10  C   UNL     1      -2.715   2.311  -1.986  0.00  0.00    +0.007 A 
ATOM     11  C   UNL     1      -1.476   2.268  -1.374  0.00  0.00    -0.027 A 
ATOM     12 CL   UNL     1      -1.933   4.235  -5.397  0.00  0.00    -0.084 Cl
ENDBRANCH   5  11
BRANCH   5  13
ATOM     13  N   UNL     1      -0.114   0.783  -0.022  0.00  0.00    -0.292 N 
ATOM     14  C   UNL     1      -0.165  -0.486  -0.472  0.00  0.00    +0.298 C 
ATOM     15  O   UNL     1      -1.229  -0.973  -0.802  0.00  0.00    -0.253 OA
ATOM     16  N   UNL     1       0.965  -1.217  -0.555  0.00  0.00    -0.313 N 
ATOM     17  H   UNL     1       0.721   1.148   0.309  0.00  0.00    +0.151 HD
ATOM     18  H   UNL     1       1.814  -0.829  -0.291  0.00  0.00    +0.146 HD
ATOM     19  H   UNL     1       0.929  -2.131  -0.879  0.00  0.00    +0.146 HD
ENDBRANCH   5  13
ENDBRANCH   4   5
ENDBRANCH   2   4
ENDBRANCH   1   2
BRANCH   1  20
ATOM     20  C   UNL     1      -1.062   2.087   4.792  0.00  0.00    +0.328 C 
BRANCH  20  21
ATOM     21  C   UNL     1      -0.951   3.089   5.913  0.00  0.00    +0.258 C 
ATOM     22  O   UNL     1      -0.897   4.274   5.663  0.00  0.00    -0.272 OA
ATOM     23  N   UNL     1      -0.912   2.667   7.192  0.00  0.00    -0.237 N 
ATOM     24  C   UNL     1      -0.813   3.563   8.194  0.00  0.00    +0.306 C 
ATOM     25  O   UNL     1      -0.759   4.751   7.944  0.00  0.00    -0.252 OA
ATOM     26  N   UNL     1      -0.775   3.142   9.474  0.00  0.00    -0.294 N 
ATOM     27  H   UNL     1      -0.956   1.719   7.392  0.00  0.00    +0.159 HD
ATOM     28  H   UNL     1      -0.818   2.193   9.674  0.00  0.00    +0.151 HD
BRANCH  26  29
ATOM     29  C   UNL     1      -0.667   4.116  10.563  0.00  0.00    +0.037 C 
ATOM     30  C   UNL     1       0.623   4.922  10.400  0.00  0.00    +0.029 C 
ATOM     31  C   UNL     1       0.736   5.939  11.537  0.00  0.00    -0.008 C 
ATOM     32  C   UNL     1       0.760   5.204  12.879  0.00  0.00    +0.007 C 
ATOM     33  C   UNL     1      -0.530   4.397  13.042  0.00  0.00    -0.008 C 
ATOM     34  C   UNL     1      -0.643   3.380  11.904  0.00  0.00    +0.029 C 
ATOM     35  C   UNL     1      -1.732   5.343  13.000  0.00  0.00    +0.007 C 
ATOM     36  C   UNL     1      -1.756   6.079  11.659  0.00  0.00    -0.008 C 
ATOM     37  C   UNL     1      -0.466   6.885  11.496  0.00  0.00    +0.007 C 
ATOM     38  C   UNL     1      -1.869   5.062  10.521  0.00  0.00    +0.029 C 
ENDBRANCH  26  29
ENDBRANCH  20  21
ENDBRANCH   1  20
TORSDOF 8
