REMARK  Name = ZINC39669605
REMARK  7 active torsions:
REMARK  status: ('A' for Active; 'I' for Inactive)
REMARK    1  A    between atoms: C_1  and  C_2
REMARK    2  A    between atoms: C_2  and  C_3
REMARK    3  A    between atoms: C_2  and  C_4
REMARK    4  A    between atoms: C_2  and  N_29
REMARK    5  A    between atoms: C_4  and  N_5
REMARK    6  A    between atoms: C_6  and  C_8
REMARK    7  A    between atoms: C_19  and  C_21
REMARK                            x       y       z     vdW  Elec       q    Type
REMARK                         _______ _______ _______ _____ _____    ______ ____
ROOT
ATOM      1  C   UNL     1      -3.459  -4.104  -0.157  0.00  0.00    +0.100 C 
ATOM      2  C   UNL     1      -2.928  -4.774   1.130  0.00  0.00    +0.121 C 
ATOM      3  N   UNL     1      -4.109  -4.862   2.021  0.00  0.00    -0.296 N 
ATOM      4  C   UNL     1      -5.228  -5.220   1.116  0.00  0.00    +0.115 C 
ATOM      5  C   UNL     1      -4.967  -4.402  -0.165  0.00  0.00    -0.004 C 
ATOM      6  C   UNL     1      -5.338  -5.219  -1.399  0.00  0.00    -0.010 C 
ATOM      7  C   UNL     1      -6.851  -5.454  -1.415  0.00  0.00    -0.082 C 
ATOM      8  N   UNL     1      -7.548  -4.162  -1.431  0.00  0.00    +0.379 N 
ATOM      9  C   UNL     1      -7.259  -3.421  -0.197  0.00  0.00    -0.082 C 
ATOM     10  C   UNL     1      -5.763  -3.101  -0.130  0.00  0.00    -0.010 C 
ATOM     11  C   UNL     1      -4.157  -4.661   3.353  0.00  0.00    +0.249 C 
ATOM     12  O   UNL     1      -5.211  -4.771   3.947  0.00  0.00    -0.270 OA
ATOM     13  H   UNL     1      -7.237  -3.623  -2.226  0.00  0.00    -0.086 HD
ATOM     14  H   UNL     1      -8.542  -4.318  -1.503  0.00  0.00    -0.086 HD
ENDROOT
BRANCH  11  15
ATOM     15  C   UNL     1      -2.927  -4.307   4.090  0.00  0.00    +0.073 A 
ATOM     16  C   UNL     1      -2.572  -2.967   4.261  0.00  0.00    +0.054 A 
ATOM     17  C   UNL     1      -1.421  -2.644   4.952  0.00  0.00    +0.021 A 
ATOM     18  C   UNL     1      -0.620  -3.643   5.474  0.00  0.00    +0.003 A 
ATOM     19  C   UNL     1      -0.964  -4.973   5.309  0.00  0.00    +0.021 A 
ATOM     20  C   UNL     1      -2.115  -5.311   4.625  0.00  0.00    +0.054 A 
ATOM     21 CL   UNL     1      -2.550  -6.980   4.425  0.00  0.00    -0.083 Cl
ATOM     22 CL   UNL     1      -3.575  -1.710   3.606  0.00  0.00    -0.083 Cl
ENDBRANCH  11  15
BRANCH   1  24
ATOM     23  N   UNL     1      -3.033  -1.929  -1.256  0.00  0.00    -0.313 N 
ATOM     24  C   UNL     1      -3.218  -2.616  -0.112  0.00  0.00    +0.218 C 
ATOM     25  O   UNL     1      -3.192  -2.039   0.954  0.00  0.00    -0.275 OA
ATOM     26  H   UNL     1      -3.054  -2.391  -2.108  0.00  0.00    +0.149 HD
BRANCH  23  27
ATOM     27  C   UNL     1      -2.799  -0.483  -1.212  0.00  0.00    +0.126 C 
BRANCH  27  29
ATOM     28  C   UNL     1      -2.644   1.594  -2.592  0.00  0.00    +0.029 C 
ATOM     29  C   UNL     1      -2.739   0.068  -2.638  0.00  0.00    +0.032 C 
ATOM     30  C   UNL     1      -1.511  -0.499  -3.352  0.00  0.00    +0.029 C 
BRANCH  29  31
ATOM     31  N   UNL     1      -3.953  -0.325  -3.366  0.00  0.00    -0.291 NA
ATOM     32  C   UNL     1      -3.867   0.060  -4.782  0.00  0.00    +0.113 C 
ATOM     33  C   UNL     1      -5.123  -0.420  -5.513  0.00  0.00    +0.175 C 
ATOM     34  O   UNL     1      -6.279   0.126  -4.873  0.00  0.00    -0.377 OA
ATOM     35  C   UNL     1      -6.396  -0.229  -3.493  0.00  0.00    +0.175 C 
ATOM     36  C   UNL     1      -5.152   0.253  -2.741  0.00  0.00    +0.113 C 
ENDBRANCH  29  31
ENDBRANCH  27  29
ENDBRANCH  23  27
ENDBRANCH   1  24
TORSDOF 5
