REMARK  Name = ZINC13552413
REMARK  4 active torsions:
REMARK  status: ('A' for Active; 'I' for Inactive)
REMARK    1  A    between atoms: C_1  and  C_2
REMARK    2  A    between atoms: C_7  and  N_8
REMARK    3  A    between atoms: C_14  and  C_22
REMARK    4  A    between atoms: C_14  and  C_23
REMARK                            x       y       z     vdW  Elec       q    Type
REMARK                         _______ _______ _______ _____ _____    ______ ____
ROOT
ATOM      1  N   UNL     1       1.356   1.601   2.445  0.00  0.00    -0.239 NA
ATOM      2  C   UNL     1       2.057   1.921   3.527  0.00  0.00    +0.117 A 
ATOM      3  C   UNL     1       3.474   1.844   3.650  0.00  0.00    +0.029 A 
ATOM      4  C   UNL     1       4.213   2.197   4.749  0.00  0.00    +0.030 A 
ATOM      5  S   UNL     1       3.207   2.726   6.059  0.00  0.00    -0.052 S 
ATOM      6  S   UNL     1       1.376   2.510   5.071  0.00  0.00    -0.032 S 
ATOM      7  C   UNL     1       5.723   2.138   4.815  0.00  0.00    +0.059 C 
ATOM      8  N   UNL     1       6.201   1.122   3.869  0.00  0.00    -0.334 N 
ATOM      9  C   UNL     1       5.603   1.028   2.609  0.00  0.00    +0.036 A 
ATOM     10  C   UNL     1       4.255   1.349   2.451  0.00  0.00    +0.006 A 
ATOM     11  C   UNL     1       3.637   1.237   1.216  0.00  0.00    +0.010 A 
ATOM     12  C   UNL     1       4.379   0.815   0.126  0.00  0.00    +0.001 A 
ATOM     13  C   UNL     1       5.721   0.510   0.274  0.00  0.00    +0.002 A 
ATOM     14  C   UNL     1       6.337   0.613   1.508  0.00  0.00    +0.023 A 
ATOM     15  C   UNL     1       6.306   3.502   4.440  0.00  0.00    +0.037 C 
ATOM     16  C   UNL     1       6.160   1.767   6.234  0.00  0.00    +0.037 C 
ATOM     17  H   UNL     1       6.923   0.523   4.116  0.00  0.00    +0.147 HD
ENDROOT
BRANCH   1  24
ATOM     18  C   UNL     1      -0.335  -0.576   3.136  0.00  0.00    +0.046 C 
ATOM     19  C   UNL     1      -0.872   0.777   2.749  0.00  0.00    -0.024 A 
ATOM     20  C   UNL     1      -2.233   0.997   2.714  0.00  0.00    +0.025 A 
ATOM     21  C   UNL     1      -2.729   2.242   2.365  0.00  0.00    +0.041 A 
ATOM     22  C   UNL     1      -1.863   3.272   2.036  0.00  0.00    +0.022 A 
ATOM     23  C   UNL     1      -0.500   3.066   2.060  0.00  0.00    +0.029 A 
ATOM     24  C   UNL     1       0.008   1.812   2.418  0.00  0.00    +0.068 A 
ATOM     25 CL   UNL     1      -4.443   2.512   2.331  0.00  0.00    -0.084 Cl
ENDBRANCH   1  24
TORSDOF 1
