REMARK  Name = ZINC12886732
REMARK  8 active torsions:
REMARK  status: ('A' for Active; 'I' for Inactive)
REMARK    1  A    between atoms: C_1  and  C_2
REMARK    2  A    between atoms: C_13  and  C_15
REMARK    3  A    between atoms: C_15  and  C_16
REMARK    4  A    between atoms: N_28  and  C_31
REMARK    5  A    between atoms: C_31  and  C_32
REMARK    6  A    between atoms: C_32  and  C_33
REMARK    7  A    between atoms: C_33  and  O_34
REMARK    8  A    between atoms: O_34  and  C_35
REMARK                            x       y       z     vdW  Elec       q    Type
REMARK                         _______ _______ _______ _____ _____    ______ ____
ROOT
ATOM      1  C   UNL     1       5.356   7.232  -3.695  0.00  0.00    +0.044 C 
ATOM      2  C   UNL     1       5.017   5.873  -4.252  0.00  0.00    -0.050 A 
ATOM      3  C   UNL     1       4.667   5.737  -5.583  0.00  0.00    +0.005 A 
ATOM      4  C   UNL     1       4.358   4.495  -6.097  0.00  0.00    +0.024 A 
ATOM      5  C   UNL     1       4.397   3.368  -5.280  0.00  0.00    +0.036 A 
ATOM      6  C   UNL     1       4.748   3.518  -3.942  0.00  0.00    -0.027 A 
ATOM      7  C   UNL     1       5.057   4.759  -3.432  0.00  0.00    +0.008 A 
ATOM      8  C   UNL     1       4.694   2.140  -3.346  0.00  0.00    +0.050 C 
ATOM      9  C   UNL     1       6.048   1.726  -2.758  0.00  0.00    +0.088 C 
ATOM     10  C   UNL     1       5.688   0.883  -1.500  0.00  0.00    +0.073 C 
ATOM     11  C   UNL     1       4.145   0.862  -1.469  0.00  0.00    -0.053 C 
ATOM     12  C   UNL     1       6.198  -0.495  -1.846  0.00  0.00    +0.224 C 
ATOM     13  O   UNL     1       6.120  -1.470  -1.130  0.00  0.00    -0.275 OA
ATOM     14  N   UNL     1       6.747  -0.474  -3.066  0.00  0.00    -0.242 N 
ATOM     15  C   UNL     1       6.716   0.721  -3.668  0.00  0.00    +0.225 C 
ATOM     16  O   UNL     1       7.157   0.960  -4.772  0.00  0.00    -0.275 OA
ATOM     17  C   UNL     1       4.287   1.239  -4.480  0.00  0.00    +0.211 C 
ATOM     18  O   UNL     1       4.129   0.037  -4.430  0.00  0.00    -0.277 OA
ATOM     19  N   UNL     1       4.133   2.026  -5.562  0.00  0.00    -0.286 N 
ATOM     20  H   UNL     1       3.868   1.699  -6.436  0.00  0.00    +0.155 HD
ATOM     21  N   UNL     1       3.758   2.046  -2.239  0.00  0.00    +0.394 N 
ATOM     22  H   UNL     1       2.800   1.942  -2.592  0.00  0.00    -0.083 HD
ATOM     23  H   UNL     1       3.817   2.886  -1.652  0.00  0.00    -0.083 HD
ENDROOT
BRANCH  11  24
ATOM     24  C   UNL     1       3.640   0.944  -0.027  0.00  0.00    +0.022 C 
BRANCH  24  25
ATOM     25  C   UNL     1       2.137   0.836  -0.014  0.00  0.00    -0.024 A 
ATOM     26  C   UNL     1       1.264   1.855   0.000  0.00  0.00    +0.087 A 
ATOM     27  N   UNL     1      -0.017   1.373   0.010  0.00  0.00    -0.360 N 
ATOM     28  H   UNL     1      -0.818   1.919   0.017  0.00  0.00    +0.165 HD
ATOM     29  C   UNL     1       0.002  -0.004   0.002  0.00  0.00    +0.047 A 
ATOM     30  C   UNL     1       1.352  -0.401  -0.013  0.00  0.00    +0.003 A 
ATOM     31  C   UNL     1       1.679  -1.758  -0.024  0.00  0.00    +0.010 A 
ATOM     32  C   UNL     1       0.685  -2.695  -0.020  0.00  0.00    +0.001 A 
ATOM     33  C   UNL     1      -0.648  -2.309  -0.005  0.00  0.00    +0.002 A 
ATOM     34  C   UNL     1      -0.993  -0.975   0.006  0.00  0.00    +0.026 A 
ENDBRANCH  24  25
ENDBRANCH  11  24
BRANCH  14  35
ATOM     35  C   UNL     1       7.335  -1.661  -3.691  0.00  0.00    +0.118 C 
BRANCH  35  36
ATOM     36  C   UNL     1       8.818  -1.748  -3.327  0.00  0.00    +0.047 C 
BRANCH  36  37
ATOM     37  C   UNL     1       9.432  -2.988  -3.980  0.00  0.00    +0.161 C 
BRANCH  37  38
ATOM     38  O   UNL     1      10.817  -3.070  -3.640  0.00  0.00    -0.383 OA
ATOM     39  C   UNL     1      11.488  -4.199  -4.203  0.00  0.00    +0.193 C 
ENDBRANCH  37  38
ENDBRANCH  36  37
ENDBRANCH  35  36
ENDBRANCH  14  35
TORSDOF 6
