REMARK  Name = ZINC36304041
REMARK  19 active torsions:
REMARK  status: ('A' for Active; 'I' for Inactive)
REMARK    1  A    between atoms: C_1  and  C_2
REMARK    2  A    between atoms: C_3  and  C_22
REMARK    3  A    between atoms: C_4  and  O_13
REMARK    4  A    between atoms: N_5  and  C_7
REMARK    5  A    between atoms: O_13  and  C_14
REMARK    6  A    between atoms: C_22  and  N_23
REMARK    7  A    between atoms: N_23  and  C_24
REMARK    8  A    between atoms: N_23  and  C_28
REMARK    9  A    between atoms: C_24  and  C_25
REMARK   10  A    between atoms: C_25  and  O_26
REMARK   11  A    between atoms: O_26  and  C_27
REMARK   12  A    between atoms: C_28  and  C_29
REMARK   13  A    between atoms: C_29  and  C_31
REMARK   14  A    between atoms: C_29  and  O_37
REMARK   15  A    between atoms: C_31  and  O_32
REMARK   16  A    between atoms: O_32  and  C_33
REMARK   17  A    between atoms: C_33  and  C_34
REMARK   18  A    between atoms: C_33  and  C_35
REMARK   19  A    between atoms: C_33  and  C_36
REMARK                            x       y       z     vdW  Elec       q    Type
REMARK                         _______ _______ _______ _____ _____    ______ ____
ROOT
ATOM      1  C   UNL     1       0.364   2.185   0.395  0.00  0.00    +0.068 C 
ATOM      2  C   UNL     1       0.656   0.708   0.455  0.00  0.00    +0.065 A 
ATOM      3  C   UNL     1       0.605  -0.179  -0.625  0.00  0.00    +0.021 A 
ATOM      4  C   UNL     1       0.933  -1.416  -0.165  0.00  0.00    +0.225 A 
ATOM      5  N   UNL     1       1.183  -1.303   1.167  0.00  0.00    -0.200 N 
ATOM      6  N   UNL     1       1.007   0.040   1.524  0.00  0.00    -0.168 NA
ENDROOT
BRANCH   5   7
ATOM      7  C   UNL     1       1.556  -2.344   2.029  0.00  0.00    +0.069 A 
ATOM      8  C   UNL     1       0.937  -3.583   1.932  0.00  0.00    +0.028 A 
ATOM      9  C   UNL     1       1.307  -4.607   2.782  0.00  0.00    +0.002 A 
ATOM     10  C   UNL     1       2.293  -4.399   3.729  0.00  0.00    +0.000 A 
ATOM     11  C   UNL     1       2.912  -3.166   3.828  0.00  0.00    +0.002 A 
ATOM     12  C   UNL     1       2.550  -2.140   2.977  0.00  0.00    +0.028 A 
ENDBRANCH   5   7
BRANCH   4  13
ATOM     13  O   UNL     1       1.000  -2.555  -0.900  0.00  0.00    -0.435 OA
BRANCH  13  14
ATOM     14  C   UNL     1      -0.146  -3.264  -1.083  0.00  0.00    +0.166 A 
ATOM     15  C   UNL     1      -1.353  -2.766  -0.616  0.00  0.00    +0.052 A 
ATOM     16  C   UNL     1      -2.516  -3.488  -0.802  0.00  0.00    +0.042 A 
ATOM     17  C   UNL     1      -2.479  -4.709  -1.454  0.00  0.00    +0.126 A 
ATOM     18  C   UNL     1      -1.275  -5.209  -1.922  0.00  0.00    +0.080 A 
ATOM     19  C   UNL     1      -0.109  -4.486  -1.742  0.00  0.00    +0.168 A 
ATOM     20  F   UNL     1       1.065  -4.971  -2.203  0.00  0.00    -0.202 F 
ATOM     21  F   UNL     1      -3.617  -5.413  -1.635  0.00  0.00    -0.205 F 
ENDBRANCH  13  14
ENDBRANCH   4  13
BRANCH   3  22
ATOM     22  C   UNL     1       0.248   0.172  -2.046  0.00  0.00    -0.036 C 
BRANCH  22  23
ATOM     23  N   UNL     1       1.466   0.540  -2.780  0.00  0.00    +0.386 N 
ATOM     24  H   UNL     1       1.944   1.281  -2.290  0.00  0.00    -0.081 HD
BRANCH  23  25
ATOM     25  C   UNL     1       2.350  -0.630  -2.879  0.00  0.00    -0.050 C 
BRANCH  25  26
ATOM     26  C   UNL     1       3.679  -0.213  -3.512  0.00  0.00    +0.141 C 
BRANCH  26  27
ATOM     27  O   UNL     1       4.341   0.722  -2.658  0.00  0.00    -0.385 OA
ATOM     28  C   UNL     1       5.599   1.177  -3.159  0.00  0.00    +0.193 C 
ENDBRANCH  26  27
ENDBRANCH  25  26
ENDBRANCH  23  25
BRANCH  23  29
ATOM     29  C   UNL     1       1.106   0.997  -4.129  0.00  0.00    -0.044 C 
BRANCH  29  30
ATOM     30  C   UNL     1       0.310   2.300  -4.030  0.00  0.00    +0.124 C 
BRANCH  30  31
ATOM     31  O   UNL     1       1.118   3.306  -3.415  0.00  0.00    -0.391 OA
ATOM     32  H   UNL     1       1.894   3.559  -3.933  0.00  0.00    +0.210 HD
ENDBRANCH  30  31
BRANCH  30  33
ATOM     33  C   UNL     1      -0.094   2.758  -5.433  0.00  0.00    +0.189 C 
BRANCH  33  34
ATOM     34  O   UNL     1      -0.935   3.910  -5.334  0.00  0.00    -0.372 OA
BRANCH  34  35
ATOM     35  C   UNL     1      -1.371   4.421  -6.595  0.00  0.00    +0.061 C 
ATOM     36  C   UNL     1      -2.167   3.343  -7.334  0.00  0.00    +0.041 C 
ATOM     37  C   UNL     1      -2.260   5.646  -6.369  0.00  0.00    +0.041 C 
ATOM     38  C   UNL     1      -0.154   4.821  -7.432  0.00  0.00    +0.041 C 
ENDBRANCH  34  35
ENDBRANCH  33  34
ENDBRANCH  30  33
ENDBRANCH  29  30
ENDBRANCH  23  29
ENDBRANCH  22  23
ENDBRANCH   3  22
TORSDOF 14
