REMARK  Name = ZINC63362008
REMARK  6 active torsions:
REMARK  status: ('A' for Active; 'I' for Inactive)
REMARK    1  A    between atoms: C_1  and  C_2
REMARK    2  A    between atoms: C_6  and  N_9
REMARK    3  A    between atoms: C_7  and  C_8
REMARK    4  A    between atoms: C_10  and  C_12
REMARK    5  A    between atoms: C_15  and  N_18
REMARK    6  A    between atoms: C_21  and  C_37
REMARK                            x       y       z     vdW  Elec       q    Type
REMARK                         _______ _______ _______ _____ _____    ______ ____
ROOT
ATOM      1  N   UNL     1      -0.399  -6.974   7.254  0.00  0.00    -0.192 N 
ATOM      2  C   UNL     1      -0.379  -8.319   7.352  0.00  0.00    +0.253 C 
ATOM      3  O   UNL     1      -0.319  -9.119   6.443  0.00  0.00    -0.272 OA
ATOM      4  C   UNL     1      -0.448  -8.621   8.833  0.00  0.00    +0.137 C 
ATOM      5  C   UNL     1      -1.678  -9.469   9.154  0.00  0.00    +0.139 C 
ATOM      6  C   UNL     1      -2.638  -8.594   9.946  0.00  0.00    -0.034 C 
ATOM      7  C   UNL     1      -3.790  -8.610   9.280  0.00  0.00    -0.001 A 
ATOM      8  C   UNL     1      -5.100  -8.011   9.580  0.00  0.00    +0.010 A 
ATOM      9  C   UNL     1      -6.079  -8.219   8.660  0.00  0.00    +0.001 A 
ATOM     10  C   UNL     1      -5.887  -8.955   7.486  0.00  0.00    +0.002 A 
ATOM     11  C   UNL     1      -4.718  -9.545   7.133  0.00  0.00    +0.026 A 
ATOM     12  C   UNL     1      -3.615  -9.399   8.023  0.00  0.00    +0.043 A 
ATOM     13  N   UNL     1      -2.392  -9.876   7.942  0.00  0.00    -0.375 N 
ATOM     14  C   UNL     1      -2.247  -7.836  11.190  0.00  0.00    +0.052 C 
ATOM     15  C   UNL     1      -0.970  -7.042  10.850  0.00  0.00    +0.115 C 
ATOM     16  N   UNL     1      -0.645  -7.290   9.443  0.00  0.00    -0.268 N 
ATOM     17  C   UNL     1      -0.511  -6.392   8.457  0.00  0.00    +0.316 C 
ATOM     18  O   UNL     1      -0.495  -5.190   8.632  0.00  0.00    -0.252 OA
ATOM     19  C   UNL     1       0.843  -9.276   9.328  0.00  0.00    +0.044 C 
ATOM     20  H   UNL     1      -2.022 -10.399   7.214  0.00  0.00    +0.160 HD
ENDROOT
BRANCH   1  24
ATOM     21  C   UNL     1      -0.129  -4.883   3.658  0.00  0.00    +0.037 A 
ATOM     22  C   UNL     1      -0.130  -4.191   4.872  0.00  0.00    +0.015 A 
ATOM     23  C   UNL     1      -0.220  -4.885   6.058  0.00  0.00    +0.025 A 
ATOM     24  C   UNL     1      -0.309  -6.272   6.048  0.00  0.00    +0.045 A 
ATOM     25  C   UNL     1      -0.309  -6.964   4.842  0.00  0.00    +0.025 A 
ATOM     26  C   UNL     1      -0.225  -6.277   3.652  0.00  0.00    +0.015 A 
BRANCH  21  28
ATOM     27  N   UNL     1       0.059  -2.798   2.392  0.00  0.00    -0.281 N 
ATOM     28  C   UNL     1      -0.034  -4.142   2.385  0.00  0.00    +0.248 C 
ATOM     29  O   UNL     1      -0.038  -4.745   1.329  0.00  0.00    -0.270 OA
ATOM     30  H   UNL     1       0.145  -2.322   3.233  0.00  0.00    +0.155 HD
BRANCH  27  36
ATOM     31  C   UNL     1       1.225   1.229  -0.175  0.00  0.00    +0.044 C 
ATOM     32  C   UNL     1       0.588  -0.134  -0.086  0.00  0.00    -0.046 A 
ATOM     33  C   UNL     1      -0.026  -0.684  -1.196  0.00  0.00    +0.004 A 
ATOM     34  C   UNL     1      -0.611  -1.934  -1.118  0.00  0.00    +0.002 A 
ATOM     35  C   UNL     1      -0.585  -2.638   0.070  0.00  0.00    +0.023 A 
ATOM     36  C   UNL     1       0.031  -2.088   1.187  0.00  0.00    +0.037 A 
ATOM     37  C   UNL     1       0.623  -0.835   1.104  0.00  0.00    -0.026 A 
ATOM     38  C   UNL     1       1.298  -0.237   2.312  0.00  0.00    +0.046 C 
ENDBRANCH  27  36
ENDBRANCH  21  28
ENDBRANCH   1  24
TORSDOF 3
