REMARK  Name = ZINC12339510
REMARK  11 active torsions:
REMARK  status: ('A' for Active; 'I' for Inactive)
REMARK    1  A    between atoms: C_1  and  O_2
REMARK    2  A    between atoms: O_2  and  C_3
REMARK    3  A    between atoms: C_8  and  O_9
REMARK    4  A    between atoms: O_9  and  C_10
REMARK    5  A    between atoms: C_12  and  O_25
REMARK    6  A    between atoms: C_14  and  O_24
REMARK    7  A    between atoms: C_16  and  O_23
REMARK    8  A    between atoms: C_18  and  C_21
REMARK    9  A    between atoms: C_21  and  O_22
REMARK   10  A    between atoms: C_30  and  O_37
REMARK   11  A    between atoms: O_37  and  C_38
REMARK                            x       y       z     vdW  Elec       q    Type
REMARK                         _______ _______ _______ _____ _____    ______ ____
ROOT
ATOM      1  C   UNL     1       3.456   1.588  -1.078  0.00  0.00    +0.162 A 
ATOM      2  C   UNL     1       4.272   1.135  -2.099  0.00  0.00    +0.052 A 
ATOM      3  C   UNL     1       3.784   0.246  -3.047  0.00  0.00    -0.047 A 
ATOM      4  C   UNL     1       2.478  -0.181  -2.984  0.00  0.00    -0.043 A 
ATOM      5  C   UNL     1       1.658   0.264  -1.953  0.00  0.00    +0.053 A 
ATOM      6  C   UNL     1       2.138   1.148  -1.005  0.00  0.00    +0.166 A 
ATOM      7  C   UNL     1       1.891  -1.117  -3.997  0.00  0.00    +0.017 C 
ATOM      8  C   UNL     1       2.845  -1.512  -5.093  0.00  0.00    -0.072 C 
ATOM      9  C   UNL     1       4.731  -0.242  -4.111  0.00  0.00    -0.011 C 
ATOM     10  C   UNL     1       5.066   0.876  -5.081  0.00  0.00    +0.033 C 
ATOM     11  C   UNL     1       5.905   1.967  -4.451  0.00  0.00    +0.140 C 
ATOM     12  C   UNL     1       6.984   1.500  -3.537  0.00  0.00    +0.004 C 
ATOM     13  C   UNL     1       7.061   0.274  -3.034  0.00  0.00    +0.000 C 
ATOM     14  C   UNL     1       6.016  -0.686  -3.428  0.00  0.00    -0.059 C 
ATOM     15  C   UNL     1       6.001  -2.001  -3.294  0.00  0.00    -0.043 C 
ATOM     16  C   UNL     1       4.718  -2.537  -3.901  0.00  0.00    -0.049 C 
ATOM     17  N   UNL     1       4.322  -1.455  -4.782  0.00  0.00    +0.391 N 
ATOM     18  H   UNL     1       4.835  -1.533  -5.668  0.00  0.00    -0.080 HD
ENDROOT
BRANCH   1  20
ATOM     19  C   UNL     1       5.302   2.865  -0.291  0.00  0.00    +0.277 C 
ATOM     20  O   UNL     1       3.939   2.458  -0.151  0.00  0.00    -0.491 OA
ENDBRANCH   1  20
BRANCH  11  21
ATOM     21  O   UNL     1       6.506   2.728  -5.501  0.00  0.00    -0.376 OA
ATOM     22  C   UNL     1       6.617   4.124  -5.216  0.00  0.00    +0.194 C 
ENDBRANCH  11  21
BRANCH   6  23
ATOM     23  O   UNL     1       1.328   1.581  -0.002  0.00  0.00    -0.457 OA
BRANCH  23  24
ATOM     24  C   UNL     1      -0.013   1.086   0.008  0.00  0.00    +0.339 C 
ATOM     25  C   UNL     1      -0.730   1.580   1.267  0.00  0.00    +0.214 C 
ATOM     26  C   UNL     1      -2.183   1.095   1.241  0.00  0.00    +0.180 C 
ATOM     27  C   UNL     1      -2.853   1.594  -0.043  0.00  0.00    +0.177 C 
ATOM     28  C   UNL     1      -2.054   1.100  -1.251  0.00  0.00    +0.179 C 
ATOM     29  O   UNL     1      -0.704   1.559  -1.149  0.00  0.00    -0.331 OA
BRANCH  27  30
ATOM     30  O   UNL     1      -4.187   1.088  -0.113  0.00  0.00    -0.386 OA
ATOM     31  H   UNL     1      -4.750   1.358   0.626  0.00  0.00    +0.210 HD
ENDBRANCH  27  30
BRANCH  26  32
ATOM     32  O   UNL     1      -2.880   1.613   2.376  0.00  0.00    -0.386 OA
ATOM     33  H   UNL     1      -2.504   1.342   3.225  0.00  0.00    +0.210 HD
ENDBRANCH  26  32
BRANCH  25  34
ATOM     34  O   UNL     1      -0.074   1.060   2.425  0.00  0.00    -0.383 OA
ATOM     35  H   UNL     1       0.854   1.323   2.504  0.00  0.00    +0.210 HD
ENDBRANCH  25  34
BRANCH  28  36
ATOM     36  C   UNL     1      -2.683   1.643  -2.536  0.00  0.00    +0.190 C 
BRANCH  36  37
ATOM     37  O   UNL     1      -2.009   1.089  -3.668  0.00  0.00    -0.392 OA
ATOM     38  H   UNL     1      -2.356   1.391  -4.518  0.00  0.00    +0.210 HD
ENDBRANCH  36  37
ENDBRANCH  28  36
ENDBRANCH  23  24
ENDBRANCH   6  23
TORSDOF 9
