REMARK  Name = ZINC04277847
REMARK  12 active torsions:
REMARK  status: ('A' for Active; 'I' for Inactive)
REMARK    1  A    between atoms: C_1  and  O_2
REMARK    2  A    between atoms: O_2  and  C_3
REMARK    3  A    between atoms: C_6  and  C_9
REMARK    4  A    between atoms: C_9  and  C_10
REMARK    5  A    between atoms: C_10  and  C_12
REMARK    6  A    between atoms: C_10  and  N_16
REMARK    7  A    between atoms: C_12  and  O_14
REMARK    8  A    between atoms: O_14  and  C_15
REMARK    9  A    between atoms: C_17  and  C_19
REMARK   10  A    between atoms: N_22  and  S_35
REMARK   11  A    between atoms: N_28  and  C_29
REMARK   12  A    between atoms: S_35  and  C_38
REMARK                            x       y       z     vdW  Elec       q    Type
REMARK                         _______ _______ _______ _____ _____    ______ ____
ROOT
ATOM      1  C   UNL     1      -4.182  -1.190  -1.921  0.00  0.00    +0.179 C 
ATOM      2  C   UNL     1      -5.508  -0.679  -1.345  0.00  0.00    +0.141 C 
ATOM      3  N   UNL     1      -6.084   0.295  -2.283  0.00  0.00    -0.173 NA
ATOM      4  C   UNL     1      -6.303  -0.110  -3.678  0.00  0.00    +0.128 C 
ATOM      5  C   UNL     1      -4.977  -0.620  -4.255  0.00  0.00    +0.127 C 
ATOM      6  N   UNL     1      -4.398  -1.597  -3.317  0.00  0.00    -0.272 N 
ATOM      7  C   UNL     1      -4.076  -2.841  -3.726  0.00  0.00    +0.303 C 
ATOM      8  O   UNL     1      -3.686  -3.664  -2.921  0.00  0.00    -0.253 OA
ATOM      9  N   UNL     1      -4.187  -3.171  -5.028  0.00  0.00    -0.296 N 
ATOM     10  H   UNL     1      -4.430  -2.496  -5.681  0.00  0.00    +0.151 HD
ENDROOT
BRANCH   9  11
ATOM     11  C   UNL     1      -3.942  -4.550  -5.457  0.00  0.00    +0.074 C 
ATOM     12  C   UNL     1      -2.442  -4.754  -5.684  0.00  0.00    +0.022 C 
ATOM     13  C   UNL     1      -2.186  -6.194  -6.132  0.00  0.00    +0.002 C 
ATOM     14  C   UNL     1      -2.941  -6.465  -7.436  0.00  0.00    +0.000 C 
ATOM     15  C   UNL     1      -4.440  -6.261  -7.208  0.00  0.00    +0.002 C 
ATOM     16  C   UNL     1      -4.696  -4.821  -6.760  0.00  0.00    +0.022 C 
ENDBRANCH   9  11
BRANCH   1  18
ATOM     17  N   UNL     1      -2.284  -0.031  -0.839  0.00  0.00    -0.301 N 
ATOM     18  C   UNL     1      -3.152  -0.092  -1.869  0.00  0.00    +0.236 C 
ATOM     19  O   UNL     1      -3.103   0.737  -2.753  0.00  0.00    -0.274 OA
ATOM     20  H   UNL     1      -2.278  -0.730  -0.167  0.00  0.00    +0.150 HD
BRANCH  17  21
ATOM     21  C   UNL     1      -1.349   1.093  -0.735  0.00  0.00    +0.186 C 
BRANCH  21  22
ATOM     22  C   UNL     1      -0.125   0.806  -1.567  0.00  0.00    +0.328 C 
ATOM     23  O   UNL     1      -0.042  -0.230  -2.183  0.00  0.00    -0.249 OA
BRANCH  22  24
ATOM     24  O   UNL     1       0.871   1.704  -1.627  0.00  0.00    -0.467 OA
ATOM     25  C   UNL     1       2.016   1.364  -2.452  0.00  0.00    +0.280 C 
ENDBRANCH  22  24
ENDBRANCH  21  22
BRANCH  21  26
ATOM     26  C   UNL     1      -0.939   1.281   0.727  0.00  0.00    +0.069 C 
BRANCH  26  30
ATOM     27  C   UNL     1      -4.351   2.442   3.023  0.00  0.00    +0.120 A 
ATOM     28  C   UNL     1      -4.000   1.104   2.929  0.00  0.00    +0.046 A 
ATOM     29  C   UNL     1      -2.897   0.731   2.186  0.00  0.00    +0.007 A 
ATOM     30  C   UNL     1      -2.143   1.691   1.537  0.00  0.00    -0.045 A 
ATOM     31  C   UNL     1      -2.487   3.026   1.634  0.00  0.00    +0.007 A 
ATOM     32  C   UNL     1      -3.593   3.404   2.371  0.00  0.00    +0.046 A 
BRANCH  27  34
ATOM     33  C   UNL     1      -5.739   4.207   3.806  0.00  0.00    +0.277 C 
ATOM     34  O   UNL     1      -5.436   2.812   3.753  0.00  0.00    -0.495 OA
ENDBRANCH  27  34
ENDBRANCH  26  30
ENDBRANCH  21  26
ENDBRANCH  17  21
ENDBRANCH   1  18
BRANCH   3  35
ATOM     35  S   UNL     1      -6.478   1.821  -1.775  0.00  0.00    +0.061 S 
ATOM     36  O   UNL     1      -7.607   2.224  -2.539  0.00  0.00    -0.153 OA
ATOM     37  O   UNL     1      -6.493   1.786  -0.355  0.00  0.00    -0.153 OA
BRANCH  35  38
ATOM     38  C   UNL     1      -5.151   2.884  -2.239  0.00  0.00    +0.105 A 
ATOM     39  C   UNL     1      -4.168   3.202  -1.321  0.00  0.00    +0.028 A 
ATOM     40  C   UNL     1      -3.124   4.032  -1.687  0.00  0.00    +0.002 A 
ATOM     41  C   UNL     1      -3.070   4.551  -2.966  0.00  0.00    +0.000 A 
ATOM     42  C   UNL     1      -4.056   4.237  -3.882  0.00  0.00    +0.002 A 
ATOM     43  C   UNL     1      -5.097   3.404  -3.519  0.00  0.00    +0.028 A 
ENDBRANCH  35  38
ENDBRANCH   3  35
TORSDOF 10
