REMARK  Name = ZINC39678296
REMARK  5 active torsions:
REMARK  status: ('A' for Active; 'I' for Inactive)
REMARK    1  A    between atoms: C_4  and  N_32
REMARK    2  A    between atoms: C_5  and  C_7
REMARK    3  A    between atoms: C_7  and  N_8
REMARK    4  A    between atoms: C_9  and  C_11
REMARK    5  A    between atoms: C_22  and  C_24
REMARK                            x       y       z     vdW  Elec       q    Type
REMARK                         _______ _______ _______ _____ _____    ______ ____
ROOT
ATOM      1  C   UNL     1       1.421  -4.642   3.446  0.00  0.00    +0.100 C 
ATOM      2  C   UNL     1       2.883  -4.194   3.665  0.00  0.00    +0.121 C 
ATOM      3  N   UNL     1       3.539  -5.357   4.308  0.00  0.00    -0.296 N 
ATOM      4  C   UNL     1       2.966  -6.535   3.612  0.00  0.00    +0.115 C 
ATOM      5  C   UNL     1       1.479  -6.179   3.412  0.00  0.00    -0.004 C 
ATOM      6  C   UNL     1       0.639  -6.765   4.542  0.00  0.00    -0.010 C 
ATOM      7  C   UNL     1       0.667  -8.293   4.453  0.00  0.00    -0.082 C 
ATOM      8  N   UNL     1       0.138  -8.719   3.152  0.00  0.00    +0.379 N 
ATOM      9  C   UNL     1       1.004  -8.228   2.074  0.00  0.00    -0.082 C 
ATOM     10  C   UNL     1       0.991  -6.697   2.062  0.00  0.00    -0.010 C 
ATOM     11  C   UNL     1       4.451  -5.347   5.300  0.00  0.00    +0.248 C 
ATOM     12  O   UNL     1       4.970  -6.386   5.659  0.00  0.00    -0.270 OA
ATOM     13  H   UNL     1       0.100  -9.727   3.119  0.00  0.00    -0.086 HD
ATOM     14  H   UNL     1      -0.792  -8.346   3.030  0.00  0.00    -0.086 HD
ENDROOT
BRANCH  11  15
ATOM     15  C   UNL     1       4.819  -4.073   5.952  0.00  0.00    +0.057 A 
ATOM     16  C   UNL     1       4.880  -2.895   5.205  0.00  0.00    +0.014 A 
ATOM     17  C   UNL     1       5.224  -1.709   5.819  0.00  0.00    +0.002 A 
ATOM     18  C   UNL     1       5.509  -1.683   7.173  0.00  0.00    +0.021 A 
ATOM     19  C   UNL     1       5.452  -2.846   7.921  0.00  0.00    +0.060 A 
ATOM     20  C   UNL     1       5.102  -4.041   7.319  0.00  0.00    +0.071 A 
ATOM     21 CL   UNL     1       5.022  -5.498   8.259  0.00  0.00    -0.081 Cl
ATOM     22 CL   UNL     1       5.812  -2.803   9.619  0.00  0.00    -0.082 Cl
ENDBRANCH  11  15
BRANCH   1  24
ATOM     23  N   UNL     1      -0.417  -3.854   1.990  0.00  0.00    -0.311 N 
ATOM     24  C   UNL     1       0.898  -4.108   2.138  0.00  0.00    +0.218 C 
ATOM     25  O   UNL     1       1.661  -3.906   1.217  0.00  0.00    -0.275 OA
ATOM     26  H   UNL     1      -1.028  -4.016   2.727  0.00  0.00    +0.149 HD
BRANCH  23  27
ATOM     27  C   UNL     1      -0.925  -3.335   0.718  0.00  0.00    +0.141 C 
BRANCH  27  32
ATOM     28  C   UNL     1      -4.642  -3.902   0.369  0.00  0.00    +0.000 A 
ATOM     29  C   UNL     1      -5.157  -2.779   0.992  0.00  0.00    +0.002 A 
ATOM     30  C   UNL     1      -4.306  -1.833   1.528  0.00  0.00    +0.023 A 
ATOM     31  C   UNL     1      -2.930  -2.010   1.441  0.00  0.00    +0.034 A 
ATOM     32  C   UNL     1      -2.416  -3.139   0.815  0.00  0.00    -0.009 A 
ATOM     33  C   UNL     1      -3.274  -4.081   0.281  0.00  0.00    +0.007 A 
BRANCH  31  34
ATOM     34  N   UNL     1      -2.066  -1.055   1.982  0.00  0.00    -0.330 N 
ATOM     35  C   UNL     1      -1.598   0.076   1.169  0.00  0.00    +0.105 C 
ATOM     36  C   UNL     1      -1.902   1.379   1.916  0.00  0.00    +0.019 C 
ATOM     37  C   UNL     1      -1.288   1.314   3.317  0.00  0.00    +0.003 C 
ATOM     38  C   UNL     1      -1.911   0.153   4.096  0.00  0.00    +0.019 C 
ATOM     39  C   UNL     1      -1.613  -1.160   3.375  0.00  0.00    +0.105 C 
ENDBRANCH  31  34
ENDBRANCH  27  32
ENDBRANCH  23  27
ENDBRANCH   1  24
TORSDOF 5
