REMARK  Name = ZINC60240867
REMARK  8 active torsions:
REMARK  status: ('A' for Active; 'I' for Inactive)
REMARK    1  A    between atoms: C_1  and  C_2
REMARK    2  A    between atoms: C_7  and  C_9
REMARK    3  A    between atoms: C_7  and  C_10
REMARK    4  A    between atoms: N_13  and  C_17
REMARK    5  A    between atoms: C_17  and  C_18
REMARK    6  A    between atoms: N_20  and  C_21
REMARK    7  A    between atoms: N_24  and  C_27
REMARK    8  A    between atoms: C_27  and  C_28
REMARK                            x       y       z     vdW  Elec       q    Type
REMARK                         _______ _______ _______ _____ _____    ______ ____
ROOT
ATOM      1  C   UNL     1      -0.365   1.256   0.396  0.00  0.00    +0.007 C 
ATOM      2  C   UNL     1      -0.314  -0.273   0.317  0.00  0.00    -0.011 C 
ATOM      3  C   UNL     1       0.460  -0.688  -0.936  0.00  0.00    +0.038 C 
ATOM      4  C   UNL     1       0.476  -2.206  -1.051  0.00  0.00    +0.113 C 
ATOM      5  C   UNL     1       0.999  -2.887   0.198  0.00  0.00    +0.041 C 
ATOM      6  C   UNL     1       0.468  -2.343   1.513  0.00  0.00    -0.032 C 
ATOM      7  C   UNL     1       0.417  -0.820   1.541  0.00  0.00    +0.009 C 
ATOM      8  C   UNL     1      -0.916  -2.921   1.819  0.00  0.00    +0.011 C 
ATOM      9  C   UNL     1       1.420  -2.802   2.639  0.00  0.00    +0.011 C 
ATOM     10  C   UNL     1      -0.878  -2.729  -1.461  0.00  0.00    +0.247 C 
ATOM     11  O   UNL     1      -1.951  -2.527  -0.934  0.00  0.00    -0.273 OA
ATOM     12  N   UNL     1      -0.666  -3.465  -2.574  0.00  0.00    -0.215 N 
ATOM     13  C   UNL     1       0.602  -3.369  -2.990  0.00  0.00    +0.310 C 
ATOM     14  O   UNL     1       1.032  -3.930  -3.979  0.00  0.00    -0.252 OA
ATOM     15  N   UNL     1       1.344  -2.585  -2.190  0.00  0.00    -0.285 N 
ATOM     16  H   UNL     1       2.264  -2.313  -2.318  0.00  0.00    +0.151 HD
ENDROOT
BRANCH  12  17
ATOM     17  C   UNL     1      -1.696  -4.266  -3.239  0.00  0.00    +0.213 C 
BRANCH  17  18
ATOM     18  C   UNL     1      -2.399  -3.423  -4.272  0.00  0.00    +0.231 C 
ATOM     19  O   UNL     1      -2.071  -2.267  -4.437  0.00  0.00    -0.274 OA
ATOM     20  N   UNL     1      -3.391  -3.954  -5.013  0.00  0.00    -0.311 N 
ATOM     21  H   UNL     1      -3.653  -4.879  -4.882  0.00  0.00    +0.149 HD
BRANCH  20  22
ATOM     22  C   UNL     1      -4.074  -3.135  -6.018  0.00  0.00    +0.069 C 
ATOM     23  C   UNL     1      -5.205  -2.345  -5.352  0.00  0.00    +0.003 C 
ATOM     24  C   UNL     1      -5.964  -1.554  -6.419  0.00  0.00    -0.077 C 
ATOM     25  N   UNL     1      -6.528  -2.478  -7.410  0.00  0.00    +0.383 N 
ATOM     26  C   UNL     1      -5.445  -3.187  -8.104  0.00  0.00    -0.077 C 
ATOM     27  C   UNL     1      -4.666  -4.041  -7.101  0.00  0.00    +0.003 C 
ATOM     28  H   UNL     1      -7.122  -3.147  -6.945  0.00  0.00    -0.082 HD
BRANCH  25  29
ATOM     29  C   UNL     1      -7.320  -1.720  -8.389  0.00  0.00    -0.006 C 
BRANCH  29  30
ATOM     30  C   UNL     1      -8.557  -1.139  -7.702  0.00  0.00    +0.325 C 
ATOM     31  F   UNL     1      -9.254  -2.163  -7.052  0.00  0.00    -0.211 F 
ATOM     32  F   UNL     1      -8.163  -0.176  -6.767  0.00  0.00    -0.211 F 
ENDBRANCH  29  30
ENDBRANCH  25  29
ENDBRANCH  20  22
ENDBRANCH  17  18
ENDBRANCH  12  17
TORSDOF 5
