REMARK  Name = ZINC02439843
REMARK  11 active torsions:
REMARK  status: ('A' for Active; 'I' for Inactive)
REMARK    1  A    between atoms: C_1  and  C_2
REMARK    2  A    between atoms: C_2  and  N_3
REMARK    3  A    between atoms: N_3  and  C_4
REMARK    4  A    between atoms: N_3  and  C_6
REMARK    5  A    between atoms: C_4  and  C_5
REMARK    6  A    between atoms: C_9  and  C_12
REMARK    7  A    between atoms: C_20  and  O_33
REMARK    8  A    between atoms: C_23  and  C_24
REMARK    9  A    between atoms: C_23  and  N_69
REMARK   10  A    between atoms: N_26  and  C_27
REMARK   11  A    between atoms: C_27  and  C_28
REMARK                            x       y       z     vdW  Elec       q    Type
REMARK                         _______ _______ _______ _____ _____    ______ ____
ROOT
ATOM      1  C   UNL     1      -2.205   1.456  -1.218  0.00  0.00    -0.031 C 
ATOM      2  C   UNL     1      -0.772   1.961  -1.394  0.00  0.00    +0.011 C 
ATOM      3  C   UNL     1      -0.207   1.473  -2.729  0.00  0.00    +0.005 C 
ATOM      4  C   UNL     1       1.224   1.994  -2.892  0.00  0.00    +0.000 C 
ATOM      5  C   UNL     1       2.093   1.476  -1.745  0.00  0.00    +0.003 C 
ATOM      6  C   UNL     1       1.521   1.954  -0.408  0.00  0.00    +0.035 C 
ATOM      7  C   UNL     1       0.095   1.425  -0.252  0.00  0.00    +0.066 C 
ATOM      8  C   UNL     1      -0.492   1.889   1.083  0.00  0.00    +0.016 C 
ATOM      9  C   UNL     1      -1.938   1.394   1.192  0.00  0.00    -0.075 C 
ATOM     10  N   UNL     1      -2.728   1.952   0.074  0.00  0.00    +0.390 N 
ATOM     11  H   UNL     1      -2.653   2.976   0.092  0.00  0.00    -0.080 HD
ENDROOT
BRANCH   1  15
ATOM     12  C   UNL     1      -2.234  -2.816  -1.319  0.00  0.00    +0.030 A 
ATOM     13  C   UNL     1      -1.750  -2.098  -2.404  0.00  0.00    +0.023 A 
ATOM     14  C   UNL     1      -1.742  -0.717  -2.369  0.00  0.00    +0.004 A 
ATOM     15  C   UNL     1      -2.215  -0.050  -1.254  0.00  0.00    -0.060 A 
ATOM     16  C   UNL     1      -2.693  -0.762  -0.169  0.00  0.00    +0.004 A 
ATOM     17  C   UNL     1      -2.709  -2.143  -0.200  0.00  0.00    +0.023 A 
BRANCH  12  18
ATOM     18  N   UNL     1      -2.243  -4.213  -1.351  0.00  0.00    -0.330 N 
BRANCH  18  20
ATOM     19  C   UNL     1      -4.255  -5.210  -0.382  0.00  0.00    +0.024 C 
ATOM     20  C   UNL     1      -2.755  -4.969  -0.205  0.00  0.00    +0.102 C 
ENDBRANCH  18  20
BRANCH  18  21
ATOM     21  C   UNL     1      -1.742  -4.921  -2.531  0.00  0.00    +0.102 C 
ATOM     22  C   UNL     1      -0.244  -5.190  -2.367  0.00  0.00    +0.024 C 
ENDBRANCH  18  21
ENDBRANCH  12  18
ENDBRANCH   1  15
BRANCH   7  23
ATOM     23  O   UNL     1       0.110  -0.004  -0.295  0.00  0.00    -0.388 OA
ATOM     24  H   UNL     1       0.644  -0.413   0.400  0.00  0.00    +0.210 HD
ENDBRANCH   7  23
BRANCH  10  25
ATOM     25  C   UNL     1      -4.148   1.573   0.221  0.00  0.00    +0.019 C 
BRANCH  25  26
ATOM     26  C   UNL     1      -4.752   2.388   1.336  0.00  0.00    +0.197 C 
ATOM     27  O   UNL     1      -4.066   3.181   1.947  0.00  0.00    -0.278 OA
ATOM     28  N   UNL     1      -6.052   2.236   1.654  0.00  0.00    -0.310 N 
ATOM     29  H   UNL     1      -6.600   1.601   1.166  0.00  0.00    +0.149 HD
BRANCH  28  30
ATOM     30  C   UNL     1      -6.639   3.028   2.738  0.00  0.00    +0.178 C 
BRANCH  30  31
ATOM     31  C   UNL     1      -8.095   2.671   2.890  0.00  0.00    +0.122 A 
ATOM     32  C   UNL     1      -8.589   1.700   3.680  0.00  0.00    +0.046 A 
ATOM     33  C   UNL     1      -9.993   1.715   3.518  0.00  0.00    +0.041 A 
ATOM     34  C   UNL     1     -10.273   2.688   2.632  0.00  0.00    +0.195 A 
ATOM     35  O   UNL     1      -9.120   3.264   2.255  0.00  0.00    -0.466 OA
ENDBRANCH  30  31
ENDBRANCH  28  30
ENDBRANCH  25  26
ENDBRANCH  10  25
TORSDOF 9
