REMARK  Name = ZINC63416387
REMARK  6 active torsions:
REMARK  status: ('A' for Active; 'I' for Inactive)
REMARK    1  A    between atoms: C_7  and  C_10
REMARK    2  A    between atoms: N_11  and  N_12
REMARK    3  A    between atoms: C_13  and  S_15
REMARK    4  A    between atoms: S_15  and  C_16
REMARK    5  A    between atoms: N_21  and  C_24
REMARK    6  A    between atoms: C_27  and  C_30
REMARK                            x       y       z     vdW  Elec       q    Type
REMARK                         _______ _______ _______ _____ _____    ______ ____
ROOT
ATOM      1  N   UNL     1      -0.657  -5.548  -0.365  0.00  0.00    -0.217 N 
ATOM      2  C   UNL     1       0.069  -6.721  -0.318  0.00  0.00    +0.146 C 
ATOM      3  N   UNL     1       1.369  -6.685  -0.402  0.00  0.00    -0.380 N 
ATOM      4  H   UNL     1      -1.625  -5.574  -0.302  0.00  0.00    +0.176 HD
ATOM      5  H   UNL     1       1.880  -7.510  -0.369  0.00  0.00    +0.158 HD
ATOM      6  H   UNL     1       1.826  -5.835  -0.498  0.00  0.00    +0.158 HD
ENDROOT
BRANCH   1   8
ATOM      7  C   UNL     1      -0.687  -3.206  -0.547  0.00  0.00    +0.136 C 
ATOM      8  N   UNL     1       0.003  -4.320  -0.502  0.00  0.00    -0.189 NA
BRANCH   7  15
ATOM      9  C   UNL     1      -2.227   1.052  -0.786  0.00  0.00    +0.001 A 
ATOM     10  C   UNL     1      -1.214   2.005  -0.925  0.00  0.00    +0.002 A 
ATOM     11  C   UNL     1       0.094   1.656  -0.979  0.00  0.00    +0.026 A 
ATOM     12  C   UNL     1       0.463   0.288  -0.894  0.00  0.00    +0.043 A 
ATOM     13  N   UNL     1       1.642  -0.300  -0.922  0.00  0.00    -0.380 N 
ATOM     14  C   UNL     1       1.464  -1.750  -0.797  0.00  0.00    +0.150 C 
ATOM     15  C   UNL     1      -0.028  -1.979  -0.685  0.00  0.00    +0.000 C 
ATOM     16  C   UNL     1      -0.608  -0.712  -0.748  0.00  0.00    +0.004 A 
ATOM     17  C   UNL     1      -1.948  -0.274  -0.699  0.00  0.00    +0.010 A 
ATOM     18  H   UNL     1       2.494   0.155  -1.012  0.00  0.00    +0.160 HD
ENDBRANCH   7  15
ENDBRANCH   1   8
BRANCH   2  19
ATOM     19  S   UNL     1      -0.761  -8.265  -0.144  0.00  0.00    -0.078 S 
BRANCH  19  20
ATOM     20  C   UNL     1       0.581  -9.486  -0.133  0.00  0.00    +0.149 C 
ATOM     21  C   UNL     1       0.020 -10.906   0.086  0.00  0.00    +0.120 C 
ATOM     22  C   UNL     1       0.419 -11.642  -1.174  0.00  0.00    +0.228 C 
ATOM     23  O   UNL     1       0.172 -12.804  -1.416  0.00  0.00    -0.275 OA
ATOM     24  N   UNL     1       1.087 -10.808  -1.979  0.00  0.00    -0.209 N 
ATOM     25  C   UNL     1       1.239  -9.566  -1.492  0.00  0.00    +0.240 C 
ATOM     26  O   UNL     1       1.811  -8.654  -2.051  0.00  0.00    -0.274 OA
BRANCH  24  27
ATOM     27  C   UNL     1       1.588 -11.197  -3.224  0.00  0.00    +0.044 A 
ATOM     28  C   UNL     1       0.711 -11.510  -4.257  0.00  0.00    +0.025 A 
ATOM     29  C   UNL     1       1.201 -11.894  -5.485  0.00  0.00    +0.017 A 
ATOM     30  C   UNL     1       2.582 -11.970  -5.693  0.00  0.00    +0.063 A 
ATOM     31  C   UNL     1       3.460 -11.654  -4.651  0.00  0.00    +0.017 A 
ATOM     32  C   UNL     1       2.963 -11.265  -3.428  0.00  0.00    +0.025 A 
BRANCH  30  33
ATOM     33  C   UNL     1       3.110 -12.381  -7.005  0.00  0.00    +0.387 C 
ATOM     34  O   UNL     1       2.340 -12.657  -7.915  0.00  0.00    -0.241 OA
ATOM     35  O   UNL     1       4.318 -12.446  -7.185  0.00  0.00    -0.241 OA
ENDBRANCH  30  33
ENDBRANCH  24  27
ENDBRANCH  19  20
ENDBRANCH   2  19
TORSDOF 6
