REMARK  Name = ZINC13064951
REMARK  11 active torsions:
REMARK  status: ('A' for Active; 'I' for Inactive)
REMARK    1  A    between atoms: C_1  and  C_2
REMARK    2  A    between atoms: C_2  and  C_3
REMARK    3  A    between atoms: C_3  and  C_5
REMARK    4  A    between atoms: C_3  and  N_69
REMARK    5  A    between atoms: N_9  and  C_10
REMARK    6  A    between atoms: C_10  and  C_11
REMARK    7  A    between atoms: C_18  and  C_19
REMARK    8  A    between atoms: C_18  and  N_69
REMARK    9  A    between atoms: C_22  and  C_32
REMARK   10  A    between atoms: C_24  and  C_31
REMARK   11  A    between atoms: C_33  and  N_69
REMARK                            x       y       z     vdW  Elec       q    Type
REMARK                         _______ _______ _______ _____ _____    ______ ____
ROOT
ATOM      1  N   UNL     1       0.809   3.906  -0.830  0.00  0.00    +0.391 N 
ATOM      2  H   UNL     1      -0.069   4.051  -0.318  0.00  0.00    -0.080 HD
ENDROOT
BRANCH   1   3
ATOM      3  C   UNL     1       0.512   3.229  -2.110  0.00  0.00    -0.067 C 
ATOM      4  C   UNL     1      -0.347   4.154  -2.996  0.00  0.00    -0.015 C 
ATOM      5  C   UNL     1      -1.347   3.194  -3.689  0.00  0.00    -0.002 C 
ATOM      6  C   UNL     1      -1.674   2.175  -2.570  0.00  0.00    -0.002 C 
ATOM      7  C   UNL     1      -0.331   1.971  -1.839  0.00  0.00    -0.015 C 
ENDBRANCH   1   3
BRANCH   1   8
ATOM      8  C   UNL     1       1.709   3.066  -0.011  0.00  0.00    +0.003 C 
BRANCH   8   9
ATOM      9  C   UNL     1       1.390   3.297   1.443  0.00  0.00    +0.138 A 
ATOM     10  N   UNL     1       0.959   4.412   1.982  0.00  0.00    -0.115 NA
ATOM     11  N   UNL     1       0.804   4.210   3.245  0.00  0.00    -0.023 NA
ATOM     12  N   UNL     1       1.124   2.995   3.526  0.00  0.00    -0.044 NA
ATOM     13  N   UNL     1       1.491   2.400   2.441  0.00  0.00    -0.226 N 
BRANCH  13  14
ATOM     14  C   UNL     1       1.933   1.009   2.319  0.00  0.00    +0.182 C 
BRANCH  14  15
ATOM     15  C   UNL     1       0.732   0.108   2.195  0.00  0.00    -0.026 A 
ATOM     16  C   UNL     1       0.071  -0.322   3.330  0.00  0.00    +0.008 A 
ATOM     17  C   UNL     1      -1.034  -1.144   3.218  0.00  0.00    +0.038 A 
ATOM     18  C   UNL     1      -1.474  -1.545   1.967  0.00  0.00    +0.123 A 
ATOM     19  C   UNL     1      -0.808  -1.117   0.831  0.00  0.00    +0.038 A 
ATOM     20  C   UNL     1       0.293  -0.291   0.946  0.00  0.00    +0.008 A 
ATOM     21  F   UNL     1      -2.551  -2.352   1.856  0.00  0.00    -0.205 F 
ENDBRANCH  14  15
ENDBRANCH  13  14
ENDBRANCH   8   9
BRANCH   8  23
ATOM     22  C   UNL     1       3.522   3.104  -1.730  0.00  0.00    +0.002 C 
ATOM     23  C   UNL     1       3.170   3.433  -0.278  0.00  0.00    -0.011 C 
ENDBRANCH   8  23
ENDBRANCH   1   8
BRANCH   1  24
ATOM     24  C   UNL     1       1.438   5.218  -1.086  0.00  0.00    -0.036 C 
BRANCH  24  25
ATOM     25  C   UNL     1       1.260   6.084   0.135  0.00  0.00    +0.001 A 
ATOM     26  C   UNL     1       2.306   6.294   0.972  0.00  0.00    +0.017 A 
ATOM     27  C   UNL     1       2.102   7.144   2.147  0.00  0.00    +0.002 A 
ATOM     28  C   UNL     1       3.144   7.401   3.044  0.00  0.00    -0.041 A 
ATOM     29  C   UNL     1       2.920   8.195   4.133  0.00  0.00    +0.007 A 
ATOM     30  C   UNL     1       1.667   8.748   4.358  0.00  0.00    -0.048 A 
ATOM     31  C   UNL     1       0.625   8.508   3.488  0.00  0.00    +0.029 A 
ATOM     32  C   UNL     1       0.830   7.703   2.372  0.00  0.00    +0.050 A 
ATOM     33  N   UNL     1      -0.194   7.447   1.484  0.00  0.00    -0.322 N 
ATOM     34  H   UNL     1      -1.069   7.833   1.641  0.00  0.00    +0.169 HD
ATOM     35  C   UNL     1       0.005   6.669   0.406  0.00  0.00    +0.251 A 
ATOM     36  O   UNL     1      -0.923   6.464  -0.357  0.00  0.00    -0.268 OA
ATOM     37  C   UNL     1       1.443   9.621   5.566  0.00  0.00    +0.044 C 
ATOM     38  C   UNL     1       4.508   6.805   2.810  0.00  0.00    +0.044 C 
ENDBRANCH  24  25
ENDBRANCH   1  24
TORSDOF 8
