REMARK  Name = ZINC36685121
REMARK  9 active torsions:
REMARK  status: ('A' for Active; 'I' for Inactive)
REMARK    1  A    between atoms: C_1  and  C_2
REMARK    2  A    between atoms: N_11  and  C_15
REMARK    3  A    between atoms: C_15  and  C_16
REMARK    4  A    between atoms: N_18  and  C_19
REMARK    5  A    between atoms: C_19  and  C_20
REMARK    6  A    between atoms: C_20  and  C_22
REMARK    7  A    between atoms: C_20  and  N_27
REMARK    8  A    between atoms: N_27  and  C_28
REMARK    9  A    between atoms: N_27  and  C_29
REMARK                            x       y       z     vdW  Elec       q    Type
REMARK                         _______ _______ _______ _____ _____    ______ ____
ROOT
ATOM      1  C   UNL     1       0.792   1.715   4.409  0.00  0.00    +0.213 C 
ENDROOT
BRANCH   1  11
ATOM      2  C   UNL     1      -0.194   1.838   0.088  0.00  0.00    +0.010 C 
ATOM      3  C   UNL     1       0.007   0.324   0.002  0.00  0.00    +0.018 C 
ATOM      4  C   UNL     1      -1.357  -0.371  -0.001  0.00  0.00    +0.006 C 
ATOM      5  C   UNL     1      -1.156  -1.887  -0.066  0.00  0.00    +0.000 C 
ATOM      6  C   UNL     1      -0.361  -2.349   1.157  0.00  0.00    +0.003 C 
ATOM      7  C   UNL     1       1.007  -1.662   1.165  0.00  0.00    +0.035 C 
ATOM      8  C   UNL     1       0.819  -0.150   1.203  0.00  0.00    +0.115 C 
ATOM      9  C   UNL     1       0.148   0.267   2.491  0.00  0.00    +0.247 C 
ATOM     10  O   UNL     1      -0.953  -0.057   2.884  0.00  0.00    -0.273 OA
ATOM     11  N   UNL     1       1.031   1.076   3.113  0.00  0.00    -0.215 N 
ATOM     12  C   UNL     1       2.154   1.222   2.397  0.00  0.00    +0.310 C 
ATOM     13  O   UNL     1       3.096   1.903   2.750  0.00  0.00    -0.252 OA
ATOM     14  N   UNL     1       2.120   0.529   1.243  0.00  0.00    -0.285 N 
ATOM     15  H   UNL     1       2.819   0.486   0.571  0.00  0.00    +0.151 HD
ENDBRANCH   1  11
BRANCH   1  16
ATOM     16  C   UNL     1       1.276   0.810   5.512  0.00  0.00    +0.231 C 
ATOM     17  O   UNL     1       1.772  -0.264   5.242  0.00  0.00    -0.274 OA
ATOM     18  N   UNL     1       1.158   1.193   6.799  0.00  0.00    -0.315 N 
ATOM     19  H   UNL     1       0.761   2.052   7.015  0.00  0.00    +0.149 HD
BRANCH  18  20
ATOM     20  C   UNL     1       1.628   0.313   7.872  0.00  0.00    +0.094 C 
BRANCH  20  21
ATOM     21  C   UNL     1       1.483   1.027   9.217  0.00  0.00    -0.014 C 
BRANCH  21  22
ATOM     22  C   UNL     1       0.024   1.275   9.500  0.00  0.00    -0.022 A 
ATOM     23  C   UNL     1      -0.697   2.411   9.333  0.00  0.00    +0.009 A 
ATOM     24  C   UNL     1      -2.039   2.407   9.662  0.00  0.00    +0.008 A 
ATOM     25  C   UNL     1      -2.595   1.268  10.142  0.00  0.00    +0.045 A 
ATOM     26  S   UNL     1      -1.206   0.147  10.133  0.00  0.00    -0.103 S 
ENDBRANCH  21  22
BRANCH  21  27
ATOM     27  N   UNL     1       2.052   0.188  10.280  0.00  0.00    +0.382 N 
ATOM     28  C   UNL     1       3.482  -0.026  10.023  0.00  0.00    -0.096 C 
ATOM     29  C   UNL     1       1.883   0.858  11.576  0.00  0.00    -0.096 C 
ATOM     30  H   UNL     1       1.577  -0.702  10.297  0.00  0.00    -0.082 HD
ENDBRANCH  21  27
ENDBRANCH  20  21
ENDBRANCH  18  20
ENDBRANCH   1  16
TORSDOF 6
