REMARK  Name = ZINC35457903
REMARK  9 active torsions:
REMARK  status: ('A' for Active; 'I' for Inactive)
REMARK    1  A    between atoms: C_1  and  C_2
REMARK    2  A    between atoms: C_6  and  C_26
REMARK    3  A    between atoms: C_9  and  C_10
REMARK    4  A    between atoms: C_9  and  C_11
REMARK    5  A    between atoms: C_11  and  C_12
REMARK    6  A    between atoms: C_12  and  C_13
REMARK    7  A    between atoms: C_13  and  C_18
REMARK    8  A    between atoms: C_14  and  C_15
REMARK    9  A    between atoms: C_24  and  C_25
REMARK                            x       y       z     vdW  Elec       q    Type
REMARK                         _______ _______ _______ _____ _____    ______ ____
ROOT
ATOM      1  C   UNL     1      -0.073   1.343  -0.152  0.00  0.00    +0.008 C 
ATOM      2  C   UNL     1      -0.115  -0.184  -0.043  0.00  0.00    -0.008 C 
ATOM      3  C   UNL     1       0.378  -0.815  -1.334  0.00  0.00    +0.004 C 
ATOM      4  C   UNL     1       1.879  -0.601  -1.528  0.00  0.00    +0.011 C 
ATOM      5  C   UNL     1       2.641  -1.215  -0.360  0.00  0.00    -0.008 C 
ATOM      6  C   UNL     1       2.166  -0.620   0.955  0.00  0.00    +0.005 C 
ATOM      7  C   UNL     1       0.674  -0.635   1.185  0.00  0.00    -0.026 C 
ATOM      8  C   UNL     1       0.171  -2.003   1.652  0.00  0.00    +0.012 C 
ATOM      9  C   UNL     1       2.962  -1.240   2.105  0.00  0.00    +0.009 C 
ATOM     10  C   UNL     1       4.414  -0.763   1.985  0.00  0.00    +0.027 C 
ATOM     11  C   UNL     1       4.873  -0.750   0.560  0.00  0.00    -0.027 C 
ATOM     12  C   UNL     1       4.121  -0.945  -0.477  0.00  0.00    -0.070 C 
ATOM     13  C   UNL     1       4.751  -0.909  -1.843  0.00  0.00    +0.039 C 
ATOM     14  C   UNL     1       2.470  -2.733  -0.403  0.00  0.00    +0.016 C 
ENDROOT
BRANCH   7  15
ATOM     15  C   UNL     1       0.351   0.375   2.315  0.00  0.00    +0.012 C 
BRANCH  15  16
ATOM     16  C   UNL     1      -1.150   0.348   2.609  0.00  0.00    +0.043 C 
BRANCH  16  17
ATOM     17  C   UNL     1      -1.474   1.380   3.658  0.00  0.00    +0.048 C 
ATOM     18  C   UNL     1      -1.499   1.034   4.955  0.00  0.00    +0.106 C 
BRANCH  18  19
ATOM     19  C   UNL     1      -1.054  -0.313   5.369  0.00  0.00    +0.380 C 
ATOM     20  O   UNL     1      -0.558  -1.071   4.549  0.00  0.00    -0.241 OA
ATOM     21  O   UNL     1      -1.182  -0.668   6.531  0.00  0.00    -0.241 OA
ENDBRANCH  18  19
BRANCH  17  22
ATOM     22  C   UNL     1      -1.766   2.773   3.260  0.00  0.00    +0.383 C 
ATOM     23  O   UNL     1      -2.029   3.610   4.111  0.00  0.00    -0.241 OA
ATOM     24  O   UNL     1      -1.743   3.088   2.079  0.00  0.00    -0.241 OA
ENDBRANCH  17  22
ENDBRANCH  16  17
ENDBRANCH  15  16
ENDBRANCH   7  15
TORSDOF 5
