REMARK  Name = ZINC11266594
REMARK  7 active torsions:
REMARK  status: ('A' for Active; 'I' for Inactive)
REMARK    1  A    between atoms: C_1  and  C_2
REMARK    2  A    between atoms: C_5  and  C_8
REMARK    3  A    between atoms: C_8  and  C_34
REMARK    4  A    between atoms: N_11  and  C_15
REMARK    5  A    between atoms: C_15  and  C_16
REMARK    6  A    between atoms: N_18  and  C_19
REMARK    7  A    between atoms: C_19  and  C_24
REMARK                            x       y       z     vdW  Elec       q    Type
REMARK                         _______ _______ _______ _____ _____    ______ ____
ROOT
ATOM      1  C   UNL     1      -2.527  -2.943   0.055  0.00  0.00    +0.232 C 
ATOM      2  O   UNL     1      -1.787  -2.525  -0.810  0.00  0.00    -0.274 OA
ATOM      3  N   UNL     1      -3.479  -2.142   0.574  0.00  0.00    -0.304 N 
ATOM      4  H   UNL     1      -4.022  -2.451   1.316  0.00  0.00    +0.150 HD
ENDROOT
BRANCH   3   5
ATOM      5  C   UNL     1      -3.694  -0.804   0.016  0.00  0.00    +0.060 C 
ATOM      6  C   UNL     1      -4.003  -0.904  -1.492  0.00  0.00    +0.030 C 
ATOM      7  C   UNL     1      -5.551  -0.885  -1.563  0.00  0.00    +0.002 C 
ATOM      8  C   UNL     1      -5.933   0.128  -0.455  0.00  0.00    +0.002 C 
ATOM      9  C   UNL     1      -4.920  -0.149   0.675  0.00  0.00    +0.030 C 
BRANCH   5  10
ATOM     10  C   UNL     1      -2.471   0.049   0.237  0.00  0.00    -0.020 A 
ATOM     11  C   UNL     1      -1.528  -0.326   1.175  0.00  0.00    +0.009 A 
ATOM     12  C   UNL     1      -0.408   0.456   1.384  0.00  0.00    +0.050 A 
ATOM     13  C   UNL     1      -0.224   1.617   0.647  0.00  0.00    +0.162 A 
ATOM     14  C   UNL     1      -1.171   1.993  -0.298  0.00  0.00    +0.162 A 
ATOM     15  C   UNL     1      -2.295   1.206  -0.499  0.00  0.00    +0.055 A 
ATOM     16  O   UNL     1      -1.010   3.128  -1.032  0.00  0.00    -0.485 OA
ATOM     17  C   UNL     1      -0.065   4.084  -0.540  0.00  0.00    +0.270 C 
ATOM     18  C   UNL     1       1.216   3.334  -0.148  0.00  0.00    +0.270 C 
ATOM     19  O   UNL     1       0.883   2.378   0.864  0.00  0.00    -0.485 OA
ENDBRANCH   5  10
ENDBRANCH   3   5
BRANCH   1  20
ATOM     20  C   UNL     1      -2.383  -4.359   0.550  0.00  0.00    +0.213 C 
BRANCH  20  24
ATOM     21  C   UNL     1       0.764  -5.806  -0.791  0.00  0.00    +0.135 C 
ATOM     22  C   UNL     1      -0.003  -5.011   0.246  0.00  0.00    +0.251 C 
ATOM     23  O   UNL     1       0.445  -4.479   1.239  0.00  0.00    -0.272 OA
ATOM     24  N   UNL     1      -1.286  -5.017  -0.165  0.00  0.00    -0.215 N 
ATOM     25  C   UNL     1      -1.436  -5.703  -1.304  0.00  0.00    +0.310 C 
ATOM     26  O   UNL     1      -2.503  -5.852  -1.867  0.00  0.00    -0.252 OA
ATOM     27  N   UNL     1      -0.274  -6.206  -1.757  0.00  0.00    -0.281 N 
ATOM     28  C   UNL     1       1.823  -4.932  -1.465  0.00  0.00    +0.047 C 
ATOM     29  H   UNL     1      -0.145  -6.732  -2.562  0.00  0.00    +0.152 HD
BRANCH  21  34
ATOM     30  C   UNL     1       3.206 -10.460   1.611  0.00  0.00    +0.044 C 
ATOM     31  C   UNL     1       2.569  -9.246   0.984  0.00  0.00    -0.050 A 
ATOM     32  C   UNL     1       2.180  -9.277  -0.342  0.00  0.00    +0.004 A 
ATOM     33  C   UNL     1       1.596  -8.164  -0.916  0.00  0.00    +0.006 A 
ATOM     34  C   UNL     1       1.400  -7.020  -0.165  0.00  0.00    -0.015 A 
ATOM     35  C   UNL     1       1.794  -6.988   1.160  0.00  0.00    +0.006 A 
ATOM     36  C   UNL     1       2.374  -8.103   1.736  0.00  0.00    +0.004 A 
ENDBRANCH  21  34
ENDBRANCH  20  24
ENDBRANCH   1  20
TORSDOF 5
