REMARK  Name = ZINC39660260
REMARK  8 active torsions:
REMARK  status: ('A' for Active; 'I' for Inactive)
REMARK    1  A    between atoms: C_1  and  C_2
REMARK    2  A    between atoms: C_2  and  C_3
REMARK    3  A    between atoms: C_3  and  C_4
REMARK    4  A    between atoms: C_4  and  C_5
REMARK    5  A    between atoms: C_5  and  C_6
REMARK    6  A    between atoms: C_6  and  N_7
REMARK    7  A    between atoms: C_8  and  C_10
REMARK    8  A    between atoms: C_21  and  C_23
REMARK                            x       y       z     vdW  Elec       q    Type
REMARK                         _______ _______ _______ _____ _____    ______ ____
ROOT
ATOM      1  C   UNL     1      -6.114  -6.431   0.044  0.00  0.00    +0.100 C 
ATOM      2  C   UNL     1      -6.821  -5.924  -1.234  0.00  0.00    +0.121 C 
ATOM      3  N   UNL     1      -6.598  -6.994  -2.234  0.00  0.00    -0.296 N 
ATOM      4  C   UNL     1      -6.743  -8.254  -1.466  0.00  0.00    +0.115 C 
ATOM      5  C   UNL     1      -6.068  -7.960  -0.111  0.00  0.00    -0.004 C 
ATOM      6  C   UNL     1      -4.622  -8.446  -0.127  0.00  0.00    -0.010 C 
ATOM      7  C   UNL     1      -4.603  -9.974  -0.224  0.00  0.00    -0.082 C 
ATOM      8  N   UNL     1      -5.320 -10.548   0.921  0.00  0.00    +0.379 N 
ATOM      9  C   UNL     1      -6.733 -10.150   0.877  0.00  0.00    -0.082 C 
ATOM     10  C   UNL     1      -6.842  -8.630   1.021  0.00  0.00    -0.010 C 
ATOM     11  C   UNL     1      -6.326  -6.854  -3.547  0.00  0.00    +0.247 C 
ATOM     12  O   UNL     1      -6.255  -7.835  -4.261  0.00  0.00    -0.270 OA
ATOM     13  H   UNL     1      -5.254 -11.554   0.887  0.00  0.00    -0.086 HD
ATOM     14  H   UNL     1      -4.905 -10.215   1.778  0.00  0.00    -0.086 HD
ENDROOT
BRANCH  11  15
ATOM     15  C   UNL     1      -6.113  -5.508  -4.117  0.00  0.00    +0.045 A 
ATOM     16  C   UNL     1      -7.040  -4.488  -3.876  0.00  0.00    +0.014 A 
ATOM     17  C   UNL     1      -6.844  -3.231  -4.406  0.00  0.00    +0.001 A 
ATOM     18  C   UNL     1      -5.729  -2.963  -5.184  0.00  0.00    +0.012 A 
ATOM     19  C   UNL     1      -4.796  -3.963  -5.437  0.00  0.00    +0.031 A 
ATOM     20  C   UNL     1      -4.979  -5.246  -4.897  0.00  0.00    +0.006 A 
ATOM     21  C   UNL     1      -3.843  -6.105  -5.314  0.00  0.00    -0.006 A 
ATOM     22  C   UNL     1      -3.547  -7.438  -5.060  0.00  0.00    +0.009 A 
ATOM     23  C   UNL     1      -2.394  -8.004  -5.582  0.00  0.00    +0.001 A 
ATOM     24  C   UNL     1      -1.533  -7.250  -6.355  0.00  0.00    +0.001 A 
ATOM     25  C   UNL     1      -1.814  -5.919  -6.618  0.00  0.00    +0.012 A 
ATOM     26  C   UNL     1      -2.966  -5.339  -6.101  0.00  0.00    +0.030 A 
ATOM     27  C   UNL     1      -3.534  -3.974  -6.215  0.00  0.00    +0.194 C 
ATOM     28  O   UNL     1      -3.050  -3.039  -6.820  0.00  0.00    -0.287 OA
ENDBRANCH  11  15
BRANCH   1  30
ATOM     29  N   UNL     1      -4.149  -5.658   1.332  0.00  0.00    -0.315 N 
ATOM     30  C   UNL     1      -4.718  -5.869   0.129  0.00  0.00    +0.218 C 
ATOM     31  O   UNL     1      -4.107  -5.608  -0.885  0.00  0.00    -0.275 OA
ATOM     32  H   UNL     1      -4.638  -5.867   2.143  0.00  0.00    +0.149 HD
BRANCH  29  33
ATOM     33  C   UNL     1      -2.792  -5.112   1.415  0.00  0.00    +0.104 C 
BRANCH  33  34
ATOM     34  C   UNL     1      -2.388  -4.971   2.884  0.00  0.00    +0.019 C 
BRANCH  34  35
ATOM     35  C   UNL     1      -0.971  -4.401   2.970  0.00  0.00    +0.002 C 
BRANCH  35  36
ATOM     36  C   UNL     1      -0.567  -4.259   4.439  0.00  0.00    -0.000 C 
BRANCH  36  38
ATOM     37  C   UNL     1       1.254  -3.548   5.995  0.00  0.00    +0.004 C 
ATOM     38  C   UNL     1       0.850  -3.689   4.526  0.00  0.00    -0.003 C 
ENDBRANCH  36  38
ENDBRANCH  35  36
ENDBRANCH  34  35
ENDBRANCH  33  34
ENDBRANCH  29  33
ENDBRANCH   1  30
TORSDOF 7
