REMARK  Name = ZINC67294696
REMARK  8 active torsions:
REMARK  status: ('A' for Active; 'I' for Inactive)
REMARK    1  A    between atoms: C_1  and  C_2
REMARK    2  A    between atoms: C_6  and  N_8
REMARK    3  A    between atoms: C_9  and  C_11
REMARK    4  A    between atoms: N_21  and  C_22
REMARK    5  A    between atoms: C_24  and  O_30
REMARK    6  A    between atoms: C_26  and  O_28
REMARK    7  A    between atoms: O_28  and  C_29
REMARK    8  A    between atoms: O_30  and  C_31
REMARK                            x       y       z     vdW  Elec       q    Type
REMARK                         _______ _______ _______ _____ _____    ______ ____
ROOT
ATOM      1  C   UNL     1      -0.171  -4.648   3.755  0.00  0.00    +0.098 A 
ATOM      2  C   UNL     1      -0.142  -6.035   3.830  0.00  0.00    +0.030 A 
ATOM      3  C   UNL     1      -0.197  -6.637   5.165  0.00  0.00    +0.019 A 
ATOM      4  C   UNL     1       0.092  -7.994   5.350  0.00  0.00    +0.026 A 
ATOM      5  C   UNL     1       0.037  -8.535   6.615  0.00  0.00    +0.019 A 
ATOM      6  C   UNL     1      -0.303  -7.742   7.703  0.00  0.00    +0.019 A 
ATOM      7  C   UNL     1      -0.593  -6.403   7.535  0.00  0.00    +0.048 A 
ATOM      8  C   UNL     1      -0.545  -5.838   6.270  0.00  0.00    +0.137 A 
ATOM      9  O   UNL     1      -0.833  -4.526   6.089  0.00  0.00    -0.439 OA
ATOM     10  C   UNL     1      -0.248  -3.907   5.029  0.00  0.00    +0.212 A 
ATOM     11  N   UNL     1       0.231  -2.686   5.134  0.00  0.00    -0.325 N 
ATOM     12 BR   UNL     1       0.425 -10.368   6.872  0.00  0.00    -0.050 Br
ATOM     13  H   UNL     1       0.733  -2.298   4.400  0.00  0.00    +0.169 HD
ENDROOT
BRANCH  11  14
ATOM     14  C   UNL     1       0.022  -1.965   6.277  0.00  0.00    +0.049 A 
ATOM     15  C   UNL     1      -1.242  -1.943   6.870  0.00  0.00    +0.071 A 
ATOM     16  C   UNL     1      -1.448  -1.211   8.027  0.00  0.00    +0.126 A 
ATOM     17  C   UNL     1      -0.402  -0.500   8.597  0.00  0.00    +0.091 A 
ATOM     18  C   UNL     1       0.856  -0.519   8.011  0.00  0.00    +0.126 A 
ATOM     19  C   UNL     1       1.074  -1.252   6.857  0.00  0.00    +0.071 A 
BRANCH  18  20
ATOM     20  O   UNL     1       1.877   0.180   8.574  0.00  0.00    -0.495 OA
ATOM     21  C   UNL     1       1.583   0.910   9.767  0.00  0.00    +0.277 C 
ENDBRANCH  18  20
BRANCH  16  22
ATOM     22  O   UNL     1      -2.678  -1.190   8.605  0.00  0.00    -0.495 OA
ATOM     23  C   UNL     1      -2.821  -0.414   9.797  0.00  0.00    +0.277 C 
ENDBRANCH  16  22
ENDBRANCH  11  14
BRANCH   1  25
ATOM     24  N   UNL     1      -0.288  -2.612   2.410  0.00  0.00    -0.266 N 
ATOM     25  C   UNL     1      -0.119  -3.948   2.461  0.00  0.00    +0.254 C 
ATOM     26  O   UNL     1       0.076  -4.575   1.437  0.00  0.00    -0.270 OA
ATOM     27  H   UNL     1      -0.396  -2.105   3.230  0.00  0.00    +0.157 HD
BRANCH  24  33
ATOM     28  C   UNL     1      -1.555   1.251  -0.122  0.00  0.00    +0.065 C 
ATOM     29  C   UNL     1      -0.908  -0.109  -0.063  0.00  0.00    +0.040 A 
ATOM     30  C   UNL     1      -0.366  -0.656  -1.210  0.00  0.00    +0.023 A 
ATOM     31  C   UNL     1       0.228  -1.909  -1.150  0.00  0.00    +0.005 A 
ATOM     32  C   UNL     1       0.256  -2.569   0.066  0.00  0.00    +0.044 A 
ATOM     33  C   UNL     1      -0.309  -1.958   1.180  0.00  0.00    +0.125 A 
ATOM     34  N   UNL     1      -0.862  -0.759   1.083  0.00  0.00    -0.237 NA
ENDBRANCH  24  33
ENDBRANCH   1  25
TORSDOF 5
