REMARK  Name = ZINC12883060
REMARK  7 active torsions:
REMARK  status: ('A' for Active; 'I' for Inactive)
REMARK    1  A    between atoms: C_1  and  C_2
REMARK    2  A    between atoms: C_4  and  C_35
REMARK    3  A    between atoms: C_13  and  C_15
REMARK    4  A    between atoms: C_15  and  C_16
REMARK    5  A    between atoms: N_21  and  C_24
REMARK    6  A    between atoms: C_24  and  C_25
REMARK    7  A    between atoms: C_25  and  C_26
REMARK                            x       y       z     vdW  Elec       q    Type
REMARK                         _______ _______ _______ _____ _____    ______ ____
ROOT
ATOM      1  C   UNL     1       3.969  -2.436   1.941  0.00  0.00    +0.044 C 
ATOM      2  C   UNL     1       3.541  -0.991   1.903  0.00  0.00    -0.050 A 
ATOM      3  C   UNL     1       4.026  -0.100   2.843  0.00  0.00    +0.008 A 
ATOM      4  C   UNL     1       3.638   1.224   2.813  0.00  0.00    -0.029 A 
ATOM      5  C   UNL     1       2.753   1.673   1.834  0.00  0.00    +0.039 A 
ATOM      6  C   UNL     1       2.272   0.766   0.894  0.00  0.00    -0.027 A 
ATOM      7  C   UNL     1       2.663  -0.554   0.928  0.00  0.00    +0.008 A 
ATOM      8  C   UNL     1       1.358   1.552  -0.003  0.00  0.00    +0.050 C 
ATOM      9  C   UNL     1       1.820   1.503  -1.464  0.00  0.00    +0.088 C 
ATOM     10  C   UNL     1       0.504   1.480  -2.290  0.00  0.00    +0.073 C 
ATOM     11  C   UNL     1      -0.625   1.536  -1.238  0.00  0.00    -0.049 C 
ATOM     12  C   UNL     1       0.544   2.789  -3.045  0.00  0.00    +0.224 C 
ATOM     13  O   UNL     1      -0.304   3.177  -3.821  0.00  0.00    -0.275 OA
ATOM     14  N   UNL     1       1.661   3.453  -2.725  0.00  0.00    -0.241 N 
ATOM     15  C   UNL     1       2.449   2.824  -1.846  0.00  0.00    +0.225 C 
ATOM     16  O   UNL     1       3.503   3.247  -1.423  0.00  0.00    -0.275 OA
ATOM     17  C   UNL     1       1.391   2.956   0.538  0.00  0.00    +0.211 C 
ATOM     18  O   UNL     1       0.789   3.914   0.102  0.00  0.00    -0.277 OA
ATOM     19  N   UNL     1       2.220   2.942   1.599  0.00  0.00    -0.286 N 
ATOM     20  C   UNL     1       4.172   2.187   3.841  0.00  0.00    +0.045 C 
ATOM     21  H   UNL     1       2.423   3.722   2.138  0.00  0.00    +0.155 HD
ATOM     22  N   UNL     1       0.004   1.027  -0.018  0.00  0.00    +0.394 N 
ATOM     23  H   UNL     1      -0.512   1.351   0.809  0.00  0.00    -0.083 HD
ATOM     24  H   UNL     1       0.021   0.000  -0.030  0.00  0.00    -0.083 HD
ENDROOT
BRANCH  11  25
ATOM     25  C   UNL     1      -1.800   0.657  -1.670  0.00  0.00    +0.080 C 
BRANCH  25  26
ATOM     26  C   UNL     1      -2.907   0.763  -0.653  0.00  0.00    +0.209 C 
ATOM     27  O   UNL     1      -2.770   1.472   0.321  0.00  0.00    -0.276 OA
ATOM     28  N   UNL     1      -4.050   0.070  -0.827  0.00  0.00    -0.329 N 
ATOM     29  H   UNL     1      -4.160  -0.497  -1.606  0.00  0.00    +0.145 HD
ATOM     30  H   UNL     1      -4.763   0.138  -0.172  0.00  0.00    +0.145 HD
ENDBRANCH  25  26
ENDBRANCH  11  25
BRANCH  14  31
ATOM     31  C   UNL     1       1.993   4.763  -3.291  0.00  0.00    +0.121 C 
BRANCH  31  32
ATOM     32  C   UNL     1       2.804   4.573  -4.574  0.00  0.00    +0.054 C 
BRANCH  32  33
ATOM     33  C   UNL     1       3.146   5.921  -5.156  0.00  0.00    -0.046 A 
ATOM     34  C   UNL     1       2.293   6.518  -6.065  0.00  0.00    +0.004 A 
ATOM     35  C   UNL     1       2.604   7.755  -6.596  0.00  0.00    +0.000 A 
ATOM     36  C   UNL     1       3.774   8.392  -6.224  0.00  0.00    +0.000 A 
ATOM     37  C   UNL     1       4.629   7.793  -5.319  0.00  0.00    +0.000 A 
ATOM     38  C   UNL     1       4.316   6.557  -4.785  0.00  0.00    +0.004 A 
ENDBRANCH  32  33
ENDBRANCH  31  32
ENDBRANCH  14  31
TORSDOF 5
