REMARK  Name = ZINC08411388
REMARK  3 active torsions:
REMARK  status: ('A' for Active; 'I' for Inactive)
REMARK    1  A    between atoms: C_2  and  C_10
REMARK    2  A    between atoms: C_5  and  O_8
REMARK    3  A    between atoms: C_20  and  C_22
REMARK                            x       y       z     vdW  Elec       q    Type
REMARK                         _______ _______ _______ _____ _____    ______ ____
ROOT
ATOM      1  C   UNL     1      -2.473   6.428  -1.277  0.00  0.00    +0.024 C 
ATOM      2  C   UNL     1      -1.592   5.841  -0.396  0.00  0.00    +0.081 C 
ATOM      3  C   UNL     1      -2.009   4.734   0.510  0.00  0.00    +0.152 C 
ATOM      4  N   UNL     1      -3.211   4.633   1.011  0.00  0.00    -0.283 NA
ATOM      5  N   UNL     1      -0.979   3.806   0.776  0.00  0.00    -0.152 N 
ATOM      6  C   UNL     1       0.321   4.221   0.587  0.00  0.00    +0.181 C 
ATOM      7  N   UNL     1       0.731   5.378   0.129  0.00  0.00    -0.152 NA
ATOM      8  C   UNL     1      -0.177   6.276  -0.299  0.00  0.00    +0.273 C 
ATOM      9  O   UNL     1       0.154   7.412  -0.597  0.00  0.00    -0.268 OA
ATOM     10  S   UNL     1       1.246   2.811   1.134  0.00  0.00    -0.037 S 
ATOM     11  C   UNL     1      -0.143   1.753   1.516  0.00  0.00    +0.106 C 
ATOM     12  N   UNL     1      -1.159   2.515   1.228  0.00  0.00    -0.169 NA
ATOM     13  H   UNL     1      -3.855   5.345   0.873  0.00  0.00    +0.188 HD
ENDROOT
BRANCH  11  14
ATOM     14  C   UNL     1      -0.141   0.337   2.032  0.00  0.00    +0.022 C 
ATOM     15  C   UNL     1      -1.582  -0.146   2.204  0.00  0.00    +0.017 C 
ATOM     16  C   UNL     1      -1.579  -1.584   2.728  0.00  0.00    -0.010 C 
ATOM     17  C   UNL     1      -0.853  -2.489   1.731  0.00  0.00    +0.007 C 
ATOM     18  C   UNL     1       0.589  -2.006   1.560  0.00  0.00    -0.010 C 
ATOM     19  C   UNL     1       0.586  -0.568   1.035  0.00  0.00    +0.017 C 
ATOM     20  C   UNL     1       1.307  -2.054   2.910  0.00  0.00    +0.007 C 
ATOM     21  C   UNL     1       0.581  -1.149   3.907  0.00  0.00    -0.010 C 
ATOM     22  C   UNL     1      -0.861  -1.633   4.078  0.00  0.00    +0.007 C 
ATOM     23  C   UNL     1       0.578   0.288   3.382  0.00  0.00    +0.017 C 
ENDBRANCH  11  14
BRANCH   1  25
ATOM     24  C   UNL     1      -4.897   6.690  -1.757  0.00  0.00    +0.031 A 
ATOM     25  C   UNL     1      -3.807   5.855  -1.469  0.00  0.00    -0.021 A 
ATOM     26  C   UNL     1      -3.999   4.470  -1.372  0.00  0.00    +0.031 A 
ATOM     27  C   UNL     1      -5.256   3.937  -1.548  0.00  0.00    +0.084 A 
ATOM     28  C   UNL     1      -6.334   4.770  -1.834  0.00  0.00    +0.153 A 
ATOM     29  C   UNL     1      -6.149   6.146  -1.938  0.00  0.00    +0.084 A 
ATOM     30 CL   UNL     1      -7.498   7.177  -2.294  0.00  0.00    -0.080 Cl
ATOM     31 CL   UNL     1      -5.497   2.223  -1.421  0.00  0.00    -0.080 Cl
BRANCH  28  32
ATOM     32  O   UNL     1      -7.570   4.239  -2.012  0.00  0.00    -0.504 OA
ATOM     33  H   UNL     1      -7.767   3.999  -2.928  0.00  0.00    +0.292 HD
ENDBRANCH  28  32
ENDBRANCH   1  25
TORSDOF 3
