REMARK  Name = ZINC03011199
REMARK  4 active torsions:
REMARK  status: ('A' for Active; 'I' for Inactive)
REMARK    1  A    between atoms: C_6  and  C_7
REMARK    2  A    between atoms: C_10  and  C_29
REMARK    3  A    between atoms: C_15  and  C_17
REMARK    4  A    between atoms: N_19  and  C_20
REMARK                            x       y       z     vdW  Elec       q    Type
REMARK                         _______ _______ _______ _____ _____    ______ ____
ROOT
ATOM      1  C   UNL     1      -1.287  -0.817  -0.019  0.00  0.00    +0.104 C 
ATOM      2  C   UNL     1      -1.843  -0.863   1.408  0.00  0.00    +0.063 C 
ATOM      3  C   UNL     1      -3.130  -1.694   1.441  0.00  0.00    +0.215 C 
ATOM      4  N   UNL     1      -4.025  -1.224   0.380  0.00  0.00    -0.238 N 
ATOM      5  C   UNL     1      -3.607  -0.495  -0.697  0.00  0.00    +0.119 A 
ATOM      6  C   UNL     1      -4.681  -0.231  -1.467  0.00  0.00    +0.078 A 
ATOM      7  C   UNL     1      -5.807  -0.819  -0.847  0.00  0.00    +0.149 A 
ATOM      8  N   UNL     1      -5.402  -1.414   0.262  0.00  0.00    -0.164 NA
ATOM      9  N   UNL     1      -2.268  -0.137  -0.888  0.00  0.00    -0.322 N 
ATOM     10  H   UNL     1      -2.001   0.521  -1.548  0.00  0.00    +0.148 HD
ENDROOT
BRANCH   1  16
ATOM     11  C   UNL     1       0.003   1.327  -0.022  0.00  0.00    +0.009 A 
ATOM     12  C   UNL     1       1.193   2.030  -0.034  0.00  0.00    +0.050 A 
ATOM     13  C   UNL     1       2.400   1.350  -0.056  0.00  0.00    +0.166 A 
ATOM     14  C   UNL     1       2.410  -0.043  -0.066  0.00  0.00    +0.167 A 
ATOM     15  C   UNL     1       1.214  -0.741  -0.054  0.00  0.00    +0.055 A 
ATOM     16  C   UNL     1       0.013  -0.055  -0.032  0.00  0.00    -0.024 A 
ATOM     17  O   UNL     1       3.707  -0.469  -0.088  0.00  0.00    -0.453 OA
ATOM     18  C   UNL     1       4.480   0.672  -0.503  0.00  0.00    +0.466 C 
ATOM     19  O   UNL     1       3.690   1.796  -0.071  0.00  0.00    -0.453 OA
ENDBRANCH   1  16
BRANCH   7  20
ATOM     20  C   UNL     1      -7.195  -0.775  -1.350  0.00  0.00    +0.268 C 
ATOM     21  O   UNL     1      -7.447  -0.194  -2.388  0.00  0.00    -0.268 OA
ATOM     22  N   UNL     1      -8.181  -1.380  -0.659  0.00  0.00    -0.279 N 
ATOM     23  H   UNL     1      -7.971  -1.899   0.133  0.00  0.00    +0.155 HD
BRANCH  22  24
ATOM     24  C   UNL     1      -9.508  -1.260  -1.085  0.00  0.00    +0.054 A 
ATOM     25  C   UNL     1      -9.802  -1.200  -2.440  0.00  0.00    +0.044 A 
ATOM     26  C   UNL     1     -11.114  -1.082  -2.857  0.00  0.00    +0.043 A 
ATOM     27  C   UNL     1     -12.136  -1.024  -1.925  0.00  0.00    +0.021 A 
ATOM     28  C   UNL     1     -11.847  -1.083  -0.574  0.00  0.00    +0.023 A 
ATOM     29  C   UNL     1     -10.537  -1.207  -0.151  0.00  0.00    +0.062 A 
ATOM     30 CL   UNL     1     -10.176  -1.289   1.545  0.00  0.00    -0.082 Cl
ATOM     31 CL   UNL     1     -11.482  -1.006  -4.552  0.00  0.00    -0.083 Cl
ENDBRANCH  22  24
ENDBRANCH   7  20
BRANCH   3  32
ATOM     32  C   UNL     1      -3.812  -1.530   2.801  0.00  0.00    +0.412 C 
ATOM     33  F   UNL     1      -4.124  -0.182   3.006  0.00  0.00    -0.168 F 
ATOM     34  F   UNL     1      -4.986  -2.290   2.828  0.00  0.00    -0.168 F 
ATOM     35  F   UNL     1      -2.949  -1.968   3.811  0.00  0.00    -0.168 F 
ENDBRANCH   3  32
TORSDOF 4
