REMARK  Name = ZINC23710362
REMARK  10 active torsions:
REMARK  status: ('A' for Active; 'I' for Inactive)
REMARK    1  A    between atoms: C_1  and  S_2
REMARK    2  A    between atoms: S_2  and  C_3
REMARK    3  A    between atoms: C_3  and  C_4
REMARK    4  A    between atoms: C_4  and  C_5
REMARK    5  A    between atoms: C_5  and  C_7
REMARK    6  A    between atoms: C_5  and  N_20
REMARK    7  A    between atoms: N_9  and  N_10
REMARK    8  A    between atoms: C_11  and  C_13
REMARK    9  A    between atoms: N_20  and  S_21
REMARK   10  A    between atoms: S_21  and  C_24
REMARK                            x       y       z     vdW  Elec       q    Type
REMARK                         _______ _______ _______ _____ _____    ______ ____
ROOT
ATOM      1  C   UNL     1       4.504  -0.058  -2.543  0.00  0.00    +0.164 C 
ENDROOT
BRANCH   1   2
ATOM      2  C   UNL     1       5.454  -0.436  -3.650  0.00  0.00    +0.248 C 
ATOM      3  O   UNL     1       5.891  -1.566  -3.714  0.00  0.00    -0.273 OA
ATOM      4  N   UNL     1       5.819   0.480  -4.568  0.00  0.00    -0.233 N 
ATOM      5  H   UNL     1       5.423   1.505  -4.510  0.00  0.00    +0.173 HD
BRANCH   4   6
ATOM      6  N   UNL     1       6.703   0.128  -5.597  0.00  0.00    -0.230 N 
ATOM      7  C   UNL     1       7.068   1.044  -6.515  0.00  0.00    +0.260 C 
ATOM      8  O   UNL     1       6.630   2.177  -6.451  0.00  0.00    -0.269 OA
ATOM      9  H   UNL     1       7.099  -0.897  -5.655  0.00  0.00    +0.173 HD
BRANCH   7  10
ATOM     10  C   UNL     1       8.000   0.673  -7.600  0.00  0.00    +0.038 A 
ATOM     11  C   UNL     1       8.508  -0.626  -7.673  0.00  0.00    +0.014 A 
ATOM     12  C   UNL     1       9.373  -0.968  -8.692  0.00  0.00    +0.021 A 
ATOM     13  C   UNL     1       9.746  -0.024  -9.634  0.00  0.00    +0.041 A 
ATOM     14  C   UNL     1       9.249   1.267  -9.563  0.00  0.00    +0.021 A 
ATOM     15  C   UNL     1       8.379   1.620  -8.553  0.00  0.00    +0.014 A 
ATOM     16 CL   UNL     1      10.841  -0.460 -10.908  0.00  0.00    -0.084 Cl
ENDBRANCH   7  10
ENDBRANCH   4   6
ENDBRANCH   1   2
BRANCH   1  17
ATOM     17  N   UNL     1       4.267  -1.220  -1.684  0.00  0.00    -0.178 NA
ATOM     18  H   UNL     1       3.398  -1.870  -1.865  0.00  0.00    +0.149 HD
BRANCH  17  19
ATOM     19  S   UNL     1       5.152  -1.419  -0.298  0.00  0.00    +0.059 S 
ATOM     20  O   UNL     1       6.518  -1.278  -0.665  0.00  0.00    -0.153 OA
ATOM     21  O   UNL     1       4.651  -2.586   0.339  0.00  0.00    -0.153 OA
BRANCH  19  22
ATOM     22  C   UNL     1       4.772  -0.064   0.762  0.00  0.00    +0.109 A 
ATOM     23  C   UNL     1       3.659  -0.119   1.580  0.00  0.00    +0.032 A 
ATOM     24  C   UNL     1       3.357   0.943   2.412  0.00  0.00    +0.051 A 
ATOM     25  C   UNL     1       4.170   2.066   2.428  0.00  0.00    +0.162 A 
ATOM     26  C   UNL     1       5.291   2.120   1.607  0.00  0.00    +0.164 A 
ATOM     27  C   UNL     1       5.588   1.052   0.774  0.00  0.00    +0.078 A 
ATOM     28  O   UNL     1       6.107   3.209   1.613  0.00  0.00    -0.485 OA
ATOM     29  C   UNL     1       5.573   4.410   2.182  0.00  0.00    +0.270 C 
ATOM     30  C   UNL     1       4.898   4.053   3.513  0.00  0.00    +0.270 C 
ATOM     31  O   UNL     1       3.856   3.107   3.246  0.00  0.00    -0.485 OA
ENDBRANCH  19  22
ENDBRANCH  17  19
ENDBRANCH   1  17
BRANCH   1  32
ATOM     32  C   UNL     1       3.178   0.409  -3.148  0.00  0.00    +0.040 C 
BRANCH  32  33
ATOM     33  C   UNL     1       2.262   0.920  -2.034  0.00  0.00    +0.071 C 
BRANCH  33  35
ATOM     34  C   UNL     1      -0.260   2.070  -1.333  0.00  0.00    +0.084 C 
ATOM     35  S   UNL     1       0.643   1.349  -2.731  0.00  0.00    -0.164 S 
ENDBRANCH  33  35
ENDBRANCH  32  33
ENDBRANCH   1  32
TORSDOF 9
