REMARK  Name = ZINC63375292
REMARK  12 active torsions:
REMARK  status: ('A' for Active; 'I' for Inactive)
REMARK    1  A    between atoms: C_1  and  C_2
REMARK    2  A    between atoms: C_3  and  O_40
REMARK    3  A    between atoms: C_11  and  C_16
REMARK    4  A    between atoms: C_13  and  C_15
REMARK    5  A    between atoms: C_16  and  C_17
REMARK    6  A    between atoms: C_17  and  C_18
REMARK    7  A    between atoms: N_20  and  CA_21
REMARK    8  A    between atoms: CA_21  and  CB_23
REMARK    9  A    between atoms: CA_21  and  C_33
REMARK   10  A    between atoms: CB_23  and  CG_24
REMARK   11  A    between atoms: N_35  and  CA_36
REMARK   12  A    between atoms: CA_36  and  C_37
REMARK                            x       y       z     vdW  Elec       q    Type
REMARK                         _______ _______ _______ _____ _____    ______ ____
ROOT
ATOM      1  C   UNK A   0      -3.922  -0.982   4.734  0.00  0.00    +0.214 C 
ATOM      2  O   UNK A   0      -4.537  -1.472   3.811  0.00  0.00    -0.276 OA
ATOM      3  N   TRP A   1      -4.580  -0.320   5.706  0.00  0.00    -0.304 N 
ATOM      4  H   TRP A   1      -4.088   0.072   6.445  0.00  0.00    +0.149 HD
ENDROOT
BRANCH   1   5
ATOM      5  C   UNK A   0      -2.421  -1.112   4.793  0.00  0.00    +0.096 C 
BRANCH   5   6
ATOM      6  C   UNK A   0      -1.929  -1.902   3.579  0.00  0.00    +0.024 C 
BRANCH   6  17
ATOM      7  C   UNK A   0      -0.018   1.503   0.010  0.00  0.00    +0.051 C 
ATOM      8  C   UNK A   0       0.002  -0.004   0.002  0.00  0.00    +0.034 A 
ATOM      9  C   UNK A   0       0.006  -0.688  -1.202  0.00  0.00    +0.123 A 
ATOM     10  C   UNK A   0       0.026  -2.075  -1.207  0.00  0.00    +0.046 A 
ATOM     11  C   UNK A   0       0.046  -2.768  -0.013  0.00  0.00    +0.011 A 
ATOM     12  C   UNK A   0       0.044  -2.088   1.194  0.00  0.00    -0.001 A 
ATOM     13  C   UNK A   0       0.023  -0.704   1.203  0.00  0.00    +0.141 A 
ATOM     14  O   UNK A   0       0.005   0.007   2.364  0.00  0.00    -0.425 OA
ATOM     15  C   UNK A   0       0.234  -0.666   3.509  0.00  0.00    +0.316 C 
ATOM     16  O   UNK A   0       0.917  -0.201   4.390  0.00  0.00    -0.250 OA
ATOM     17  C   UNK A   0      -0.406  -2.034   3.639  0.00  0.00    +0.106 C 
ATOM     18  C   UNK A   0       0.077  -2.890   2.471  0.00  0.00    +0.033 C 
ATOM     19  C   UNK A   0      -0.820  -4.120   2.321  0.00  0.00    +0.013 C 
BRANCH   9  20
ATOM     20  O   UNK A   0      -0.011  -0.003  -2.376  0.00  0.00    -0.506 OA
ATOM     21  H   UNK A   0       0.868   0.209  -2.720  0.00  0.00    +0.292 HD
ENDBRANCH   9  20
ENDBRANCH   6  17
ENDBRANCH   5   6
ENDBRANCH   1   5
BRANCH   3  22
ATOM     22  CA  TRP A   1      -6.038  -0.194   5.649  0.00  0.00    +0.163 C 
BRANCH  22  23
ATOM     23  C   TRP A   1      -6.406   0.991   4.793  0.00  0.00    +0.234 C 
ATOM     24  O   TRP A   1      -5.536   1.663   4.282  0.00  0.00    -0.274 OA
ATOM     25  N   GLY A   2      -7.702   1.303   4.596  0.00  0.00    -0.303 N 
ATOM     26  H   GLY A   2      -8.398   0.765   5.005  0.00  0.00    +0.149 HD
BRANCH  25  27
ATOM     27  CA  GLY A   2      -8.060   2.455   3.764  0.00  0.00    +0.229 C 
BRANCH  27  28
ATOM     28  C   GLY A   2      -9.560   2.585   3.704  0.00  0.00    +0.373 C 
ATOM     29  O   GLY A   2     -10.265   1.789   4.301  0.00  0.00    -0.245 OA
ATOM     30  OXT GLY A   2     -10.069   3.486   3.059  0.00  0.00    -0.245 OA
ENDBRANCH  27  28
ENDBRANCH  25  27
ENDBRANCH  22  23
BRANCH  22  31
ATOM     31  CB  TRP A   1      -6.589   0.007   7.062  0.00  0.00    +0.065 C 
BRANCH  31  32
ATOM     32  CG  TRP A   1      -6.328  -1.229   7.883  0.00  0.00    -0.039 C 
ATOM     33  CD2 TRP A   1      -5.285  -1.447   8.716  0.00  0.00    -0.001 A 
ATOM     34  CE3 TRP A   1      -4.125  -0.630   9.091  0.00  0.00    +0.010 A 
ATOM     35  CZ3 TRP A   1      -3.227  -1.131   9.970  0.00  0.00    +0.001 A 
ATOM     36  CH2 TRP A   1      -3.376  -2.407  10.529  0.00  0.00    +0.002 A 
ATOM     37  CZ2 TRP A   1      -4.415  -3.217  10.233  0.00  0.00    +0.026 A 
ATOM     38  CE2 TRP A   1      -5.420  -2.792   9.321  0.00  0.00    +0.043 A 
ATOM     39  NE1 TRP A   1      -6.504  -3.382   8.879  0.00  0.00    -0.380 N 
ATOM     40  CD1 TRP A   1      -7.184  -2.475   7.948  0.00  0.00    +0.144 C 
ATOM     41  HE1 TRP A   1      -6.808  -4.268   9.130  0.00  0.00    +0.160 HD
ENDBRANCH  31  32
ENDBRANCH  22  31
ENDBRANCH   3  22
TORSDOF 10
