REMARK  Name = ZINC05353149
REMARK  6 active torsions:
REMARK  status: ('A' for Active; 'I' for Inactive)
REMARK    1  A    between atoms: C_1  and  C_2
REMARK    2  A    between atoms: C_2  and  C_3
REMARK    3  A    between atoms: C_2  and  C_4
REMARK    4  A    between atoms: C_2  and  C_5
REMARK    5  A    between atoms: C_11  and  C_15
REMARK    6  A    between atoms: N_17  and  N_18
REMARK                            x       y       z     vdW  Elec       q    Type
REMARK                         _______ _______ _______ _____ _____    ______ ____
ROOT
ATOM      1  C   UNL     1       5.271   0.060  -2.173  0.00  0.00    +0.284 C 
ATOM      2  O   UNL     1       5.118   0.332  -0.999  0.00  0.00    -0.267 OA
ATOM      3  N   UNL     1       6.511   0.028  -2.701  0.00  0.00    -0.201 N 
ATOM      4  H   UNL     1       6.633  -0.190  -3.639  0.00  0.00    +0.178 HD
ENDROOT
BRANCH   3   5
ATOM      5  N   UNL     1       7.623   0.308  -1.896  0.00  0.00    -0.174 NA
ATOM      6  C   UNL     1       8.829   0.277  -2.410  0.00  0.00    +0.153 C 
ATOM      7  C   UNL     1      10.111   0.538  -1.716  0.00  0.00    +0.029 A 
ATOM      8  C   UNL     1      10.434   0.873  -0.406  0.00  0.00    +0.027 A 
ATOM      9  C   UNL     1      11.757   1.056  -0.052  0.00  0.00    +0.019 A 
ATOM     10  C   UNL     1      12.756   0.906  -1.000  0.00  0.00    +0.017 A 
ATOM     11  C   UNL     1      12.445   0.574  -2.303  0.00  0.00    +0.025 A 
ATOM     12  C   UNL     1      11.119   0.385  -2.677  0.00  0.00    +0.043 A 
ATOM     13  N   UNL     1      10.543   0.052  -3.899  0.00  0.00    -0.280 N 
ATOM     14  C   UNL     1       9.205  -0.031  -3.804  0.00  0.00    +0.269 C 
ATOM     15  O   UNL     1       8.438  -0.309  -4.708  0.00  0.00    -0.268 OA
ATOM     16 BR   UNL     1      12.204   1.513   1.728  0.00  0.00    -0.050 Br
ATOM     17  H   UNL     1      11.043  -0.103  -4.715  0.00  0.00    +0.155 HD
ENDBRANCH   3   5
BRANCH   1  23
ATOM     18  C   UNL     1       0.718  -0.497  -1.257  0.00  0.00    -0.001 C 
ATOM     19  C   UNL     1      -0.023   0.009  -2.497  0.00  0.00    +0.010 C 
ATOM     20  C   UNL     1       0.534  -0.681  -3.749  0.00  0.00    +0.055 C 
ATOM     21  C   UNL     1       2.037  -0.563  -3.726  0.00  0.00    +0.040 A 
ATOM     22  C   UNL     1       2.753  -0.243  -2.620  0.00  0.00    +0.006 A 
ATOM     23  C   UNL     1       4.100  -0.236  -3.022  0.00  0.00    +0.152 A 
ATOM     24  N   UNL     1       4.114  -0.545  -4.308  0.00  0.00    -0.169 NA
ATOM     25  N   UNL     1       2.912  -0.740  -4.730  0.00  0.00    -0.281 N 
ATOM     26  H   UNL     1       2.674  -0.978  -5.639  0.00  0.00    +0.189 HD
ATOM     27  C   UNL     1       2.158   0.034  -1.267  0.00  0.00    +0.043 C 
BRANCH  18  29
ATOM     28  C   UNL     1      -0.019   1.526   0.010  0.00  0.00    +0.011 C 
ATOM     29  C   UNL     1       0.002  -0.004   0.002  0.00  0.00    -0.035 C 
ATOM     30  C   UNL     1       0.742  -0.511   1.242  0.00  0.00    +0.011 C 
ATOM     31  C   UNL     1      -1.433  -0.534   0.013  0.00  0.00    +0.011 C 
ENDBRANCH  18  29
ENDBRANCH   1  23
TORSDOF 3
