REMARK  Name = ZINC63617090
REMARK  10 active torsions:
REMARK  status: ('A' for Active; 'I' for Inactive)
REMARK    1  A    between atoms: C_1  and  C_2
REMARK    2  A    between atoms: C_5  and  C_8
REMARK    3  A    between atoms: C_8  and  C_10
REMARK    4  A    between atoms: C_8  and  N_22
REMARK    5  A    between atoms: N_12  and  C_13
REMARK    6  A    between atoms: C_16  and  C_19
REMARK    7  A    between atoms: C_19  and  C_20
REMARK    8  A    between atoms: C_19  and  C_21
REMARK    9  A    between atoms: C_23  and  C_25
REMARK   10  A    between atoms: C_25  and  C_26
REMARK                            x       y       z     vdW  Elec       q    Type
REMARK                         _______ _______ _______ _____ _____    ______ ____
ROOT
ATOM      1  C   UNL     1       0.058  -4.269  -0.018  0.00  0.00    +0.190 C 
ENDROOT
BRANCH   1   6
ATOM      2  C   UNL     1      -0.043   1.508   0.051  0.00  0.00    +0.044 C 
ATOM      3  C   UNL     1      -0.017   0.001   0.033  0.00  0.00    -0.050 A 
ATOM      4  C   UNL     1      -0.009  -0.676  -1.172  0.00  0.00    +0.004 A 
ATOM      5  C   UNL     1       0.015  -2.058  -1.189  0.00  0.00    +0.006 A 
ATOM      6  C   UNL     1       0.033  -2.763   0.000  0.00  0.00    -0.018 A 
ATOM      7  C   UNL     1       0.026  -2.086   1.205  0.00  0.00    +0.006 A 
ATOM      8  C   UNL     1       0.006  -0.704   1.222  0.00  0.00    +0.004 A 
ENDBRANCH   1   6
BRANCH   1   9
ATOM      9  C   UNL     1      -1.331  -4.798   0.229  0.00  0.00    +0.242 C 
ATOM     10  O   UNL     1      -1.548  -5.511   1.187  0.00  0.00    -0.273 OA
ATOM     11  N   UNL     1      -2.333  -4.480  -0.614  0.00  0.00    -0.284 N 
ATOM     12  H   UNL     1      -2.176  -3.857  -1.341  0.00  0.00    +0.155 HD
BRANCH  11  13
ATOM     13  C   UNL     1      -3.601  -5.047  -0.441  0.00  0.00    +0.033 A 
ATOM     14  C   UNL     1      -4.380  -5.361  -1.547  0.00  0.00    +0.023 A 
ATOM     15  C   UNL     1      -5.630  -5.921  -1.373  0.00  0.00    +0.006 A 
ATOM     16  C   UNL     1      -6.106  -6.170  -0.098  0.00  0.00    -0.045 A 
ATOM     17  C   UNL     1      -5.333  -5.858   1.005  0.00  0.00    +0.006 A 
ATOM     18  C   UNL     1      -4.080  -5.303   0.837  0.00  0.00    +0.023 A 
BRANCH  16  19
ATOM     19  C   UNL     1      -7.471  -6.781   0.088  0.00  0.00    +0.013 C 
ATOM     20  C   UNL     1      -7.337  -8.110   0.834  0.00  0.00    +0.012 C 
ATOM     21  C   UNL     1      -8.351  -5.827   0.900  0.00  0.00    +0.012 C 
ENDBRANCH  16  19
ENDBRANCH  11  13
ENDBRANCH   1   9
BRANCH   1  22
ATOM     22  N   UNL     1       0.959  -4.755   1.030  0.00  0.00    -0.300 N 
ATOM     23  C   UNL     1       2.281  -4.859   0.788  0.00  0.00    +0.218 C 
ATOM     24  O   UNL     1       2.724  -4.550  -0.297  0.00  0.00    -0.275 OA
ATOM     25  H   UNL     1       0.604  -5.002   1.899  0.00  0.00    +0.150 HD
BRANCH  23  26
ATOM     26  C   UNL     1       3.207  -5.358   1.867  0.00  0.00    +0.129 C 
BRANCH  26  27
ATOM     27  C   UNL     1       4.621  -5.379   1.345  0.00  0.00    -0.033 C 
ATOM     28  C   UNL     1       5.558  -4.415   1.496  0.00  0.00    -0.001 A 
ATOM     29  C   UNL     1       5.542  -3.109   2.165  0.00  0.00    +0.010 A 
ATOM     30  C   UNL     1       6.660  -2.348   2.147  0.00  0.00    +0.001 A 
ATOM     31  C   UNL     1       7.831  -2.775   1.506  0.00  0.00    +0.002 A 
ATOM     32  C   UNL     1       7.923  -3.962   0.870  0.00  0.00    +0.026 A 
ATOM     33  C   UNL     1       6.807  -4.843   0.827  0.00  0.00    +0.043 A 
ATOM     34  N   UNL     1       6.648  -6.025   0.282  0.00  0.00    -0.380 N 
ATOM     35  C   UNL     1       5.281  -6.484   0.551  0.00  0.00    +0.145 C 
ATOM     36  H   UNL     1       7.324  -6.516  -0.211  0.00  0.00    +0.160 HD
ENDBRANCH  26  27
ENDBRANCH  23  26
ENDBRANCH   1  22
TORSDOF 7
