REMARK  Name = ZINC26688505
REMARK  9 active torsions:
REMARK  status: ('A' for Active; 'I' for Inactive)
REMARK    1  A    between atoms: C_1  and  C_2
REMARK    2  A    between atoms: C_2  and  O_3
REMARK    3  A    between atoms: O_3  and  C_4
REMARK    4  A    between atoms: C_9  and  N_10
REMARK    5  A    between atoms: C_11  and  C_13
REMARK    6  A    between atoms: C_13  and  C_14
REMARK    7  A    between atoms: C_26  and  C_28
REMARK    8  A    between atoms: C_29  and  C_30
REMARK    9  A    between atoms: C_33  and  C_36
REMARK                            x       y       z     vdW  Elec       q    Type
REMARK                         _______ _______ _______ _____ _____    ______ ____
ROOT
ATOM      1  C   UNL     1       3.395   3.141  -0.650  0.00  0.00    +0.176 C 
ATOM      2  C   UNL     1       2.249   4.084  -0.383  0.00  0.00    +0.239 C 
ATOM      3  O   UNL     1       2.461   5.275  -0.296  0.00  0.00    -0.273 OA
ATOM      4  N   UNL     1       0.994   3.619  -0.240  0.00  0.00    -0.282 N 
ATOM      5  C   UNL     1       0.730   2.246  -0.287  0.00  0.00    +0.055 A 
ATOM      6  C   UNL     1      -0.566   1.777  -0.430  0.00  0.00    +0.025 A 
ATOM      7  C   UNL     1      -0.806   0.416  -0.462  0.00  0.00    +0.002 A 
ATOM      8  C   UNL     1       0.241  -0.481  -0.354  0.00  0.00    +0.002 A 
ATOM      9  C   UNL     1       1.538  -0.023  -0.215  0.00  0.00    +0.025 A 
ATOM     10  C   UNL     1       1.786   1.338  -0.182  0.00  0.00    +0.059 A 
ATOM     11  N   UNL     1       3.090   1.834  -0.048  0.00  0.00    -0.254 N 
ATOM     12  C   UNL     1       4.036   1.136   0.611  0.00  0.00    +0.244 C 
ATOM     13  O   UNL     1       3.762   0.058   1.106  0.00  0.00    -0.270 OA
ATOM     14  H   UNL     1       0.162   4.322  -0.084  0.00  0.00    +0.155 HD
ENDROOT
BRANCH  12  15
ATOM     15  C   UNL     1       5.392   1.673   0.733  0.00  0.00    +0.068 C 
ATOM     16  C   UNL     1       6.366   0.925   1.288  0.00  0.00    +0.013 C 
BRANCH  16  17
ATOM     17  C   UNL     1       7.730   1.466   1.411  0.00  0.00    -0.025 A 
ATOM     18  C   UNL     1       8.020   2.753   0.947  0.00  0.00    +0.008 A 
ATOM     19  C   UNL     1       9.299   3.254   1.071  0.00  0.00    +0.004 A 
ATOM     20  C   UNL     1      10.296   2.483   1.641  0.00  0.00    -0.050 A 
ATOM     21  C   UNL     1      10.018   1.206   2.097  0.00  0.00    +0.004 A 
ATOM     22  C   UNL     1       8.743   0.693   1.986  0.00  0.00    +0.008 A 
ATOM     23  C   UNL     1      11.692   3.036   1.766  0.00  0.00    +0.044 C 
ENDBRANCH  16  17
ENDBRANCH  12  15
BRANCH   1  24
ATOM     24  C   UNL     1       3.582   2.978  -2.160  0.00  0.00    +0.128 C 
BRANCH  24  26
ATOM     25  N   UNL     1       5.100   1.748  -3.677  0.00  0.00    -0.283 N 
ATOM     26  C   UNL     1       4.828   2.174  -2.427  0.00  0.00    +0.220 C 
ATOM     27  O   UNL     1       5.587   1.910  -1.518  0.00  0.00    -0.275 OA
ATOM     28  H   UNL     1       4.459   2.058  -4.515  0.00  0.00    +0.155 HD
BRANCH  25  34
ATOM     29  C   UNL     1       6.884   0.974  -5.119  0.00  0.00    +0.142 A 
ATOM     30  C   UNL     1       7.970   0.144  -5.342  0.00  0.00    +0.047 A 
ATOM     31  C   UNL     1       8.373  -0.746  -4.363  0.00  0.00    +0.004 A 
ATOM     32  C   UNL     1       7.694  -0.810  -3.160  0.00  0.00    +0.002 A 
ATOM     33  C   UNL     1       6.613   0.019  -2.928  0.00  0.00    +0.027 A 
ATOM     34  C   UNL     1       6.200   0.910  -3.908  0.00  0.00    +0.076 A 
BRANCH  29  35
ATOM     35  O   UNL     1       6.487   1.850  -6.081  0.00  0.00    -0.490 OA
BRANCH  35  37
ATOM     36  C   UNL     1       6.645   2.901  -8.251  0.00  0.00    +0.048 C 
ATOM     37  C   UNL     1       7.235   1.860  -7.298  0.00  0.00    +0.226 C 
ENDBRANCH  35  37
ENDBRANCH  29  35
ENDBRANCH  25  34
ENDBRANCH  24  26
ENDBRANCH   1  24
TORSDOF 7
