REMARK  Name = ZINC01873087
REMARK  11 active torsions:
REMARK  status: ('A' for Active; 'I' for Inactive)
REMARK    1  A    between atoms: C_1  and  C_2
REMARK    2  A    between atoms: C_5  and  S_8
REMARK    3  A    between atoms: S_8  and  N_11
REMARK    4  A    between atoms: N_11  and  C_12
REMARK    5  A    between atoms: C_12  and  C_14
REMARK    6  A    between atoms: C_12  and  C_21
REMARK    7  A    between atoms: C_14  and  C_15
REMARK    8  A    between atoms: C_21  and  O_23
REMARK    9  A    between atoms: O_23  and  C_24
REMARK   10  A    between atoms: C_31  and  C_42
REMARK   11  A    between atoms: C_32  and  C_35
REMARK                            x       y       z     vdW  Elec       q    Type
REMARK                         _______ _______ _______ _____ _____    ______ ____
ROOT
ATOM      1  C   UNL     1      -0.015   1.208   0.053  0.00  0.00    +0.331 C 
ATOM      2  O   UNL     1      -0.002   0.000   0.086  0.00  0.00    -0.249 OA
ENDROOT
BRANCH   1   3
ATOM      3  C   UNL     1      -1.329   1.947   0.064  0.00  0.00    +0.189 C 
BRANCH   3   4
ATOM      4  N   UNL     1      -2.431   0.984   0.117  0.00  0.00    -0.176 NA
ATOM      5  H   UNL     1      -2.332   0.160   0.620  0.00  0.00    +0.149 HD
BRANCH   4   6
ATOM      6  S   UNL     1      -3.847   1.301  -0.681  0.00  0.00    +0.059 S 
ATOM      7  O   UNL     1      -4.695   0.182  -0.464  0.00  0.00    -0.153 OA
ATOM      8  O   UNL     1      -4.225   2.624  -0.328  0.00  0.00    -0.153 OA
BRANCH   6  13
ATOM      9  C   UNL     1      -2.588   1.387  -6.582  0.00  0.00    +0.044 C 
ATOM     10  C   UNL     1      -2.902   1.365  -5.108  0.00  0.00    -0.050 A 
ATOM     11  C   UNL     1      -3.272   0.182  -4.497  0.00  0.00    +0.005 A 
ATOM     12  C   UNL     1      -3.561   0.162  -3.146  0.00  0.00    +0.029 A 
ATOM     13  C   UNL     1      -3.479   1.326  -2.405  0.00  0.00    +0.105 A 
ATOM     14  C   UNL     1      -3.114   2.511  -3.016  0.00  0.00    +0.029 A 
ATOM     15  C   UNL     1      -2.821   2.530  -4.367  0.00  0.00    +0.005 A 
ENDBRANCH   6  13
ENDBRANCH   4   6
ENDBRANCH   3   4
BRANCH   3  16
ATOM     16  C   UNL     1      -1.390   2.860   1.290  0.00  0.00    +0.067 C 
BRANCH  16  17
ATOM     17  C   UNL     1      -2.647   3.689   1.236  0.00  0.00    -0.045 A 
ATOM     18  C   UNL     1      -2.635   4.923   0.613  0.00  0.00    +0.004 A 
ATOM     19  C   UNL     1      -3.790   5.682   0.559  0.00  0.00    +0.000 A 
ATOM     20  C   UNL     1      -4.953   5.211   1.139  0.00  0.00    +0.000 A 
ATOM     21  C   UNL     1      -4.964   3.980   1.767  0.00  0.00    +0.000 A 
ATOM     22  C   UNL     1      -3.811   3.219   1.816  0.00  0.00    +0.004 A 
ENDBRANCH  16  17
ENDBRANCH   3  16
ENDBRANCH   1   3
BRANCH   1  23
ATOM     23  O   UNL     1       1.139   1.891   0.001  0.00  0.00    -0.425 OA
BRANCH  23  24
ATOM     24  C   UNL     1       2.287   1.171   0.092  0.00  0.00    +0.135 A 
ATOM     25  C   UNL     1       2.999   1.155   1.289  0.00  0.00    +0.047 A 
ATOM     26  C   UNL     1       4.151   0.429   1.396  0.00  0.00    +0.019 A 
ATOM     27  C   UNL     1       4.622  -0.289   0.296  0.00  0.00    +0.065 A 
ATOM     28  C   UNL     1       3.914  -0.275  -0.918  0.00  0.00    +0.142 A 
ATOM     29  C   UNL     1       2.741   0.463  -1.008  0.00  0.00    +0.093 A 
ATOM     30  O   UNL     1       4.370  -0.970  -1.979  0.00  0.00    -0.459 OA
ATOM     31  C   UNL     1       5.490  -1.696  -1.953  0.00  0.00    +0.114 A 
ATOM     32  C   UNL     1       6.271  -1.797  -0.846  0.00  0.00    +0.067 A 
ATOM     33  C   UNL     1       5.865  -1.077   0.373  0.00  0.00    +0.200 A 
ATOM     34  O   UNL     1       6.526  -1.131   1.396  0.00  0.00    -0.286 OA
ATOM     35  C   UNL     1       5.904  -2.433  -3.201  0.00  0.00    +0.087 C 
BRANCH  32  36
ATOM     36  C   UNL     1       7.507  -2.617  -0.865  0.00  0.00    -0.011 A 
ATOM     37  C   UNL     1       8.572  -2.257  -1.689  0.00  0.00    +0.010 A 
ATOM     38  C   UNL     1       9.722  -3.019  -1.699  0.00  0.00    +0.020 A 
ATOM     39  C   UNL     1       9.815  -4.146  -0.900  0.00  0.00    +0.041 A 
ATOM     40  C   UNL     1       8.758  -4.511  -0.084  0.00  0.00    +0.020 A 
ATOM     41  C   UNL     1       7.606  -3.752  -0.063  0.00  0.00    +0.010 A 
ATOM     42 CL   UNL     1      11.262  -5.104  -0.922  0.00  0.00    -0.084 Cl
ENDBRANCH  32  36
ENDBRANCH  23  24
ENDBRANCH   1  23
TORSDOF 9
