REMARK  Name = ZINC63448212
REMARK  3 active torsions:
REMARK  status: ('A' for Active; 'I' for Inactive)
REMARK    1  A    between atoms: C_1  and  C_2
REMARK    2  A    between atoms: N_4  and  C_29
REMARK    3  A    between atoms: C_9  and  C_21
REMARK                            x       y       z     vdW  Elec       q    Type
REMARK                         _______ _______ _______ _____ _____    ______ ____
ROOT
ATOM      1  C   UNL     1      -0.160   2.072   0.421  0.00  0.00    +0.063 C 
ATOM      2  C   UNL     1      -0.421   0.598   0.249  0.00  0.00    +0.041 C 
ATOM      3  N   UNL     1      -0.663  -0.018  -0.866  0.00  0.00    -0.187 NA
ATOM      4  N   UNL     1      -0.849  -1.415  -0.685  0.00  0.00    -0.203 N 
ATOM      5  C   UNL     1      -0.076  -1.713   0.524  0.00  0.00    +0.191 C 
ATOM      6  C   UNL     1      -0.445  -0.435   1.329  0.00  0.00    +0.084 C 
ATOM      7  C   UNL     1       0.467  -0.303   2.515  0.00  0.00    +0.053 C 
ATOM      8  C   UNL     1       1.094  -1.676   2.817  0.00  0.00    +0.144 C 
ATOM      9  C   UNL     1       0.062  -2.762   2.611  0.00  0.00    +0.103 C 
ATOM     10  N   UNL     1      -0.286  -3.586   3.547  0.00  0.00    -0.152 NA
ATOM     11  C   UNL     1       0.234  -3.533   4.781  0.00  0.00    +0.331 C 
ATOM     12  O   UNL     1      -0.126  -4.345   5.613  0.00  0.00    -0.250 OA
ATOM     13  N   UNL     1       1.141  -2.604   5.120  0.00  0.00    -0.238 N 
ATOM     14  C   UNL     1       1.578  -1.700   4.239  0.00  0.00    +0.231 C 
ATOM     15  O   UNL     1       2.393  -0.878   4.601  0.00  0.00    -0.275 OA
ATOM     16  N   UNL     1      -0.498  -2.847   1.340  0.00  0.00    -0.313 N 
ATOM     17  H   UNL     1       1.484  -2.587   6.027  0.00  0.00    +0.159 HD
ATOM     18  H   UNL     1      -1.089  -3.554   1.037  0.00  0.00    +0.149 HD
ENDROOT
BRANCH   7  19
ATOM     19  C   UNL     1       1.554   0.695   2.208  0.00  0.00    -0.006 A 
ATOM     20  C   UNL     1       2.584   0.353   1.351  0.00  0.00    +0.046 A 
ATOM     21  C   UNL     1       3.582   1.269   1.069  0.00  0.00    +0.020 A 
ATOM     22  C   UNL     1       3.550   2.525   1.645  0.00  0.00    +0.003 A 
ATOM     23  C   UNL     1       2.521   2.867   2.502  0.00  0.00    +0.020 A 
ATOM     24  C   UNL     1       1.519   1.954   2.779  0.00  0.00    +0.046 A 
ATOM     25 CL   UNL     1       0.222   2.386   3.850  0.00  0.00    -0.083 Cl
ATOM     26 CL   UNL     1       2.625  -1.225   0.629  0.00  0.00    -0.083 Cl
ENDBRANCH   7  19
BRANCH   4  27
ATOM     27  C   UNL     1      -1.593  -2.295  -1.472  0.00  0.00    +0.054 A 
ATOM     28  C   UNL     1      -2.875  -1.949  -1.884  0.00  0.00    +0.025 A 
ATOM     29  C   UNL     1      -3.608  -2.822  -2.662  0.00  0.00    +0.002 A 
ATOM     30  C   UNL     1      -3.068  -4.041  -3.032  0.00  0.00    +0.000 A 
ATOM     31  C   UNL     1      -1.793  -4.389  -2.625  0.00  0.00    +0.002 A 
ATOM     32  C   UNL     1      -1.052  -3.518  -1.851  0.00  0.00    +0.025 A 
ENDBRANCH   4  27
TORSDOF 2
