REMARK  Name = ZINC01437637
REMARK  9 active torsions:
REMARK  status: ('A' for Active; 'I' for Inactive)
REMARK    1  A    between atoms: C_1  and  C_2
REMARK    2  A    between atoms: C_7  and  O_8
REMARK    3  A    between atoms: O_8  and  C_9
REMARK    4  A    between atoms: C_9  and  C_10
REMARK    5  A    between atoms: N_12  and  N_13
REMARK    6  A    between atoms: C_14  and  C_15
REMARK    7  A    between atoms: C_20  and  O_21
REMARK    8  A    between atoms: O_21  and  C_22
REMARK    9  A    between atoms: C_22  and  C_24
REMARK                            x       y       z     vdW  Elec       q    Type
REMARK                         _______ _______ _______ _____ _____    ______ ____
ROOT
ATOM      1  C   UNL     1       0.084   0.798   9.505  0.00  0.00    +0.039 A 
ATOM      2  C   UNL     1       0.109   0.259  10.793  0.00  0.00    +0.028 A 
ATOM      3  C   UNL     1       0.109   1.097  11.889  0.00  0.00    +0.020 A 
ATOM      4  C   UNL     1       0.084   2.472  11.717  0.00  0.00    +0.034 A 
ATOM      5  C   UNL     1       0.058   3.017  10.447  0.00  0.00    +0.062 A 
ATOM      6  C   UNL     1       0.063   2.189   9.335  0.00  0.00    +0.155 A 
ATOM      7 BR   UNL     1       0.023   4.894  10.225  0.00  0.00    -0.046 Br
ATOM      8 BR   UNL     1       0.143   0.367  13.633  0.00  0.00    -0.050 Br
ENDROOT
BRANCH   1  10
ATOM      9  N   UNL     1       0.066   0.412   7.134  0.00  0.00    -0.188 NA
ATOM     10  C   UNL     1       0.084  -0.092   8.330  0.00  0.00    +0.142 C 
BRANCH   9  13
ATOM     11  C   UNL     1       0.047   0.090   4.775  0.00  0.00    +0.270 C 
ATOM     12  O   UNL     1       0.030   1.294   4.624  0.00  0.00    -0.270 OA
ATOM     13  N   UNL     1       0.066  -0.433   6.017  0.00  0.00    -0.204 N 
ATOM     14  H   UNL     1       0.080  -1.396   6.137  0.00  0.00    +0.177 HD
BRANCH  11  15
ATOM     15  C   UNL     1       0.048  -0.820   3.574  0.00  0.00    +0.326 C 
BRANCH  15  16
ATOM     16  O   UNL     1       0.025  -0.033   2.381  0.00  0.00    -0.482 OA
BRANCH  16  23
ATOM     17  C   UNL     1      -0.018   1.503   0.010  0.00  0.00    +0.047 C 
ATOM     18  C   UNL     1       0.002  -0.004   0.002  0.00  0.00    -0.009 A 
ATOM     19  C   UNL     1       0.006  -0.689  -1.198  0.00  0.00    +0.007 A 
ATOM     20  C   UNL     1       0.024  -2.071  -1.206  0.00  0.00    +0.000 A 
ATOM     21  C   UNL     1       0.039  -2.772  -0.014  0.00  0.00    +0.004 A 
ATOM     22  C   UNL     1       0.036  -2.092   1.188  0.00  0.00    +0.046 A 
ATOM     23  C   UNL     1       0.023  -0.705   1.199  0.00  0.00    +0.124 A 
ENDBRANCH  16  23
ENDBRANCH  15  16
ENDBRANCH  11  15
ENDBRANCH   9  13
ENDBRANCH   1  10
BRANCH   6  24
ATOM     24  O   UNL     1       0.044   2.723   8.086  0.00  0.00    -0.418 OA
BRANCH  24  25
ATOM     25  C   UNL     1      -1.156   2.957   7.516  0.00  0.00    +0.380 C 
ATOM     26  O   UNL     1      -2.178   2.689   8.119  0.00  0.00    -0.241 OA
BRANCH  25  27
ATOM     27  C   UNL     1      -1.228   3.532   6.171  0.00  0.00    +0.212 A 
ATOM     28  C   UNL     1      -2.372   3.823   5.482  0.00  0.00    +0.056 A 
ATOM     29  C   UNL     1      -1.975   4.353   4.246  0.00  0.00    +0.042 A 
ATOM     30  C   UNL     1      -0.623   4.363   4.233  0.00  0.00    +0.196 A 
ATOM     31  O   UNL     1      -0.177   3.873   5.397  0.00  0.00    -0.456 OA
ENDBRANCH  25  27
ENDBRANCH  24  25
ENDBRANCH   6  24
TORSDOF 8
