REMARK  Name = ZINC13572388
REMARK  2 active torsions:
REMARK  status: ('A' for Active; 'I' for Inactive)
REMARK    1  A    between atoms: C_6  and  C_7
REMARK    2  A    between atoms: N_16  and  C_19
REMARK                            x       y       z     vdW  Elec       q    Type
REMARK                         _______ _______ _______ _____ _____    ______ ____
ROOT
ATOM      1  C   UNL     1       0.451  -1.830  -1.078  0.00  0.00    +0.108 C 
ATOM      2  C   UNL     1      -0.626  -1.977  -2.179  0.00  0.00    +0.077 C 
ATOM      3  C   UNL     1      -1.256  -3.315  -1.837  0.00  0.00    +0.038 C 
ATOM      4  C   UNL     1      -2.457  -3.798  -2.325  0.00  0.00    +0.119 C 
ATOM      5  C   UNL     1      -3.273  -3.018  -3.277  0.00  0.00    +0.278 C 
ATOM      6  N   UNL     1      -4.429  -3.548  -3.711  0.00  0.00    -0.123 NA
ATOM      7  C   UNL     1      -4.844  -4.725  -3.315  0.00  0.00    +0.340 C 
ATOM      8  O   UNL     1      -6.015  -5.182  -3.799  0.00  0.00    -0.250 OA
ATOM      9  N   UNL     1      -4.159  -5.512  -2.442  0.00  0.00    -0.188 N 
ATOM     10  C   UNL     1      -2.977  -5.115  -1.924  0.00  0.00    +0.265 C 
ATOM     11  O   UNL     1      -2.363  -5.823  -1.147  0.00  0.00    -0.269 OA
ATOM     12  O   UNL     1      -2.908  -1.919  -3.659  0.00  0.00    -0.268 OA
ATOM     13  N   UNL     1      -0.440  -3.948  -0.974  0.00  0.00    -0.283 N 
ATOM     14  N   UNL     1       0.693  -3.241  -0.696  0.00  0.00    -0.235 NA
ATOM     15  H   UNL     1      -0.637  -4.816  -0.589  0.00  0.00    +0.166 HD
ATOM     16  H   UNL     1       1.485  -3.619  -1.193  0.00  0.00    +0.145 HD
ENDROOT
BRANCH   1  22
ATOM     17  C   UNL     1       1.978   0.131  -1.374  0.00  0.00    +0.006 A 
ATOM     18  C   UNL     1       3.127   0.710  -1.880  0.00  0.00    +0.020 A 
ATOM     19  C   UNL     1       4.002  -0.043  -2.643  0.00  0.00    +0.041 A 
ATOM     20  C   UNL     1       3.727  -1.374  -2.899  0.00  0.00    +0.020 A 
ATOM     21  C   UNL     1       2.578  -1.952  -2.392  0.00  0.00    +0.006 A 
ATOM     22  C   UNL     1       1.704  -1.200  -1.630  0.00  0.00    -0.028 A 
ATOM     23 CL   UNL     1       5.445   0.683  -3.279  0.00  0.00    -0.084 Cl
ENDBRANCH   1  22
BRANCH   9  24
ATOM     24  C   UNL     1      -4.686  -6.758  -2.079  0.00  0.00    +0.046 A 
ATOM     25  C   UNL     1      -4.367  -7.890  -2.817  0.00  0.00    +0.025 A 
ATOM     26  C   UNL     1      -4.888  -9.118  -2.457  0.00  0.00    +0.022 A 
ATOM     27  C   UNL     1      -5.728  -9.220  -1.362  0.00  0.00    +0.041 A 
ATOM     28  C   UNL     1      -6.047  -8.093  -0.625  0.00  0.00    +0.022 A 
ATOM     29  C   UNL     1      -5.524  -6.865  -0.977  0.00  0.00    +0.025 A 
ATOM     30 CL   UNL     1      -6.381 -10.764  -0.912  0.00  0.00    -0.084 Cl
ENDBRANCH   9  24
TORSDOF 2
