REMARK  Name = ZINC16032962
REMARK  10 active torsions:
REMARK  status: ('A' for Active; 'I' for Inactive)
REMARK    1  A    between atoms: C_1  and  C_2
REMARK    2  A    between atoms: C_13  and  C_16
REMARK    3  A    between atoms: C_16  and  C_17
REMARK    4  A    between atoms: N_22  and  C_25
REMARK    5  A    between atoms: C_25  and  C_26
REMARK    6  A    between atoms: C_26  and  C_27
REMARK    7  A    between atoms: C_30  and  O_35
REMARK    8  A    between atoms: C_31  and  O_33
REMARK    9  A    between atoms: O_33  and  C_34
REMARK   10  A    between atoms: O_35  and  C_36
REMARK                            x       y       z     vdW  Elec       q    Type
REMARK                         _______ _______ _______ _____ _____    ______ ____
ROOT
ATOM      1  C   UNL     1      -2.646   1.679   0.632  0.00  0.00    +0.044 C 
ATOM      2  C   UNL     1      -2.561   0.179   0.514  0.00  0.00    -0.050 A 
ATOM      3  C   UNL     1      -3.150  -0.466  -0.558  0.00  0.00    +0.005 A 
ATOM      4  C   UNL     1      -3.075  -1.839  -0.671  0.00  0.00    +0.024 A 
ATOM      5  C   UNL     1      -2.405  -2.586   0.295  0.00  0.00    +0.039 A 
ATOM      6  C   UNL     1      -1.818  -1.926   1.370  0.00  0.00    +0.004 A 
ATOM      7  C   UNL     1      -1.890  -0.555   1.475  0.00  0.00    +0.011 A 
ATOM      8  C   UNL     1      -1.193  -2.997   2.218  0.00  0.00    +0.136 C 
ATOM      9  C   UNL     1       0.317  -2.783   2.379  0.00  0.00    +0.122 C 
ATOM     10  C   UNL     1       0.627  -3.261   3.825  0.00  0.00    +0.107 C 
ATOM     11  C   UNL     1      -0.730  -3.741   4.384  0.00  0.00    +0.076 C 
ATOM     12  N   UNL     1      -1.750  -3.000   3.584  0.00  0.00    -0.295 NA
ATOM     13  C   UNL     1       1.053  -1.993   4.528  0.00  0.00    +0.227 C 
ATOM     14  O   UNL     1       1.379  -1.914   5.693  0.00  0.00    -0.275 OA
ATOM     15  N   UNL     1       1.014  -0.972   3.665  0.00  0.00    -0.241 N 
ATOM     16  C   UNL     1       0.619  -1.302   2.414  0.00  0.00    +0.228 C 
ATOM     17  O   UNL     1       0.518  -0.544   1.473  0.00  0.00    -0.275 OA
ATOM     18  C   UNL     1      -1.492  -4.286   1.502  0.00  0.00    +0.243 C 
ATOM     19  O   UNL     1      -1.164  -5.401   1.850  0.00  0.00    -0.273 OA
ATOM     20  N   UNL     1      -2.195  -3.962   0.400  0.00  0.00    -0.283 N 
ATOM     21  H   UNL     1      -1.876  -2.058   3.925  0.00  0.00    +0.124 HD
ATOM     22  H   UNL     1      -2.519  -4.610  -0.246  0.00  0.00    +0.155 HD
ENDROOT
BRANCH  11  23
ATOM     23  C   UNL     1      -0.874  -5.254   4.205  0.00  0.00    +0.115 C 
BRANCH  23  24
ATOM     24  C   UNL     1      -0.360  -5.956   5.435  0.00  0.00    +0.212 C 
ATOM     25  O   UNL     1       0.079  -5.311   6.364  0.00  0.00    -0.276 OA
ATOM     26  N   UNL     1      -0.387  -7.302   5.504  0.00  0.00    -0.329 N 
ATOM     27  H   UNL     1      -0.738  -7.819   4.761  0.00  0.00    +0.145 HD
ATOM     28  H   UNL     1      -0.056  -7.754   6.296  0.00  0.00    +0.145 HD
ENDBRANCH  23  24
ENDBRANCH  11  23
BRANCH  15  29
ATOM     29  C   UNL     1       1.377   0.397   4.041  0.00  0.00    +0.121 C 
BRANCH  29  30
ATOM     30  C   UNL     1       2.873   0.612   3.800  0.00  0.00    +0.054 C 
BRANCH  30  31
ATOM     31  C   UNL     1       3.247   2.020   4.186  0.00  0.00    -0.042 A 
ATOM     32  C   UNL     1       3.180   3.034   3.248  0.00  0.00    +0.007 A 
ATOM     33  C   UNL     1       3.521   4.327   3.598  0.00  0.00    +0.049 A 
ATOM     34  C   UNL     1       3.932   4.609   4.891  0.00  0.00    +0.161 A 
ATOM     35  C   UNL     1       3.998   3.590   5.835  0.00  0.00    +0.162 A 
ATOM     36  C   UNL     1       3.650   2.296   5.479  0.00  0.00    +0.053 A 
BRANCH  35  37
ATOM     37  O   UNL     1       4.401   3.862   7.105  0.00  0.00    -0.491 OA
ATOM     38  C   UNL     1       4.445   2.766   8.021  0.00  0.00    +0.277 C 
ENDBRANCH  35  37
BRANCH  34  39
ATOM     39  O   UNL     1       4.268   5.881   5.236  0.00  0.00    -0.491 OA
ATOM     40  C   UNL     1       4.176   6.877   4.215  0.00  0.00    +0.277 C 
ENDBRANCH  34  39
ENDBRANCH  30  31
ENDBRANCH  29  30
ENDBRANCH  15  29
TORSDOF 7
