REMARK  Name = ZINC65329859
REMARK  7 active torsions:
REMARK  status: ('A' for Active; 'I' for Inactive)
REMARK    1  A    between atoms: C_1  and  C_2
REMARK    2  A    between atoms: C_7  and  C_8
REMARK    3  A    between atoms: C_8  and  N_10
REMARK    4  A    between atoms: N_12  and  C_13
REMARK    5  A    between atoms: N_20  and  C_21
REMARK    6  A    between atoms: C_21  and  C_22
REMARK    7  A    between atoms: C_22  and  C_23
REMARK                            x       y       z     vdW  Elec       q    Type
REMARK                         _______ _______ _______ _____ _____    ______ ____
ROOT
ATOM      1  N   UNL     1      -0.162  -0.793   3.818  0.00  0.00    -0.143 NA
ATOM      2  C   UNL     1      -0.361   0.049   4.821  0.00  0.00    +0.194 C 
ATOM      3  N   UNL     1       0.186   1.299   4.781  0.00  0.00    -0.328 N 
ATOM      4  N   UNL     1      -1.113  -0.332   5.893  0.00  0.00    -0.357 N 
ATOM      5  H   UNL     1       0.246   1.776   3.939  0.00  0.00    +0.169 HD
ATOM      6  H   UNL     1      -1.222  -1.274   6.099  0.00  0.00    +0.162 HD
ENDROOT
BRANCH   3   7
ATOM      7  C   UNL     1       0.660   1.893   5.957  0.00  0.00    +0.042 A 
ATOM      8  C   UNL     1       1.227   1.109   6.953  0.00  0.00    +0.028 A 
ATOM      9  C   UNL     1       1.694   1.697   8.111  0.00  0.00    +0.040 A 
ATOM     10  C   UNL     1       1.598   3.068   8.280  0.00  0.00    +0.124 A 
ATOM     11  C   UNL     1       1.033   3.852   7.289  0.00  0.00    +0.040 A 
ATOM     12  C   UNL     1       0.569   3.269   6.126  0.00  0.00    +0.028 A 
ATOM     13  F   UNL     1       2.056   3.642   9.415  0.00  0.00    -0.205 F 
ENDBRANCH   3   7
BRANCH   1  14
ATOM     14  C   UNL     1       0.558  -0.411   2.755  0.00  0.00    +0.270 C 
ATOM     15  O   UNL     1       1.101   0.680   2.748  0.00  0.00    -0.268 OA
BRANCH  14  22
ATOM     16  C   UNL     1       2.247   0.359   0.536  0.00  0.00    +0.044 C 
ATOM     17  C   UNL     1       1.504  -0.952   0.514  0.00  0.00    -0.038 A 
ATOM     18  C   UNL     1       1.630  -1.799  -0.568  0.00  0.00    +0.004 A 
ATOM     19  C   UNL     1       0.949  -3.003  -0.590  0.00  0.00    +0.000 A 
ATOM     20  C   UNL     1       0.138  -3.365   0.471  0.00  0.00    +0.001 A 
ATOM     21  C   UNL     1       0.004  -2.526   1.558  0.00  0.00    +0.013 A 
ATOM     22  C   UNL     1       0.693  -1.313   1.589  0.00  0.00    +0.042 A 
ENDBRANCH  14  22
ENDBRANCH   1  14
BRANCH   4  23
ATOM     23  C   UNL     1      -1.758   0.680   6.734  0.00  0.00    +0.120 C 
BRANCH  23  24
ATOM     24  C   UNL     1      -2.494  -0.007   7.886  0.00  0.00    +0.054 C 
BRANCH  24  25
ATOM     25  C   UNL     1      -3.256   1.023   8.679  0.00  0.00    -0.040 C 
ATOM     26  C   UNL     1      -4.550   1.381   8.515  0.00  0.00    -0.001 A 
ATOM     27  C   UNL     1      -5.595   0.938   7.585  0.00  0.00    +0.010 A 
ATOM     28  C   UNL     1      -6.824   1.495   7.664  0.00  0.00    +0.001 A 
ATOM     29  C   UNL     1      -7.125   2.484   8.611  0.00  0.00    +0.002 A 
ATOM     30  C   UNL     1      -6.219   2.943   9.499  0.00  0.00    +0.026 A 
ATOM     31  C   UNL     1      -4.894   2.426   9.506  0.00  0.00    +0.043 A 
ATOM     32  N   UNL     1      -3.853   2.703  10.253  0.00  0.00    -0.380 N 
ATOM     33  C   UNL     1      -2.731   1.859   9.824  0.00  0.00    +0.144 C 
ATOM     34  H   UNL     1      -3.829   3.354  10.972  0.00  0.00    +0.160 HD
ENDBRANCH  24  25
ENDBRANCH  23  24
ENDBRANCH   4  23
TORSDOF 6
