REMARK  Name = ZINC36954746
REMARK  5 active torsions:
REMARK  status: ('A' for Active; 'I' for Inactive)
REMARK    1  A    between atoms: C_1  and  C_2
REMARK    2  A    between atoms: C_5  and  C_7
REMARK    3  A    between atoms: C_7  and  C_9
REMARK    4  A    between atoms: C_7  and  N_10
REMARK    5  A    between atoms: N_10  and  C_11
REMARK                            x       y       z     vdW  Elec       q    Type
REMARK                         _______ _______ _______ _____ _____    ______ ____
ROOT
ATOM      1  C   UNL     1       3.520  -4.014  -1.504  0.00  0.00    +0.046 A 
ATOM      2  C   UNL     1       3.152  -5.328  -1.248  0.00  0.00    +0.073 A 
ATOM      3  C   UNL     1       3.854  -6.371  -1.833  0.00  0.00    +0.164 A 
ATOM      4  C   UNL     1       4.925  -6.099  -2.676  0.00  0.00    +0.163 A 
ATOM      5  C   UNL     1       5.292  -4.785  -2.928  0.00  0.00    +0.066 A 
ATOM      6  C   UNL     1       4.589  -3.745  -2.349  0.00  0.00    +0.042 A 
ATOM      7 BR   UNL     1       5.088  -1.956  -2.703  0.00  0.00    -0.048 Br
ATOM      8  O   UNL     1       5.621  -7.111  -3.265  0.00  0.00    -0.485 OA
ATOM      9  C   UNL     1       5.464  -8.416  -2.699  0.00  0.00    +0.270 C 
ATOM     10  C   UNL     1       3.967  -8.661  -2.465  0.00  0.00    +0.270 C 
ATOM     11  O   UNL     1       3.483  -7.654  -1.570  0.00  0.00    -0.485 OA
ENDROOT
BRANCH   1  12
ATOM     12  N   UNL     1       2.811  -2.961  -0.914  0.00  0.00    -0.333 N 
ATOM     13  H   UNL     1       3.066  -2.043  -1.096  0.00  0.00    +0.147 HD
BRANCH  12  14
ATOM     14  C   UNL     1       1.684  -3.245  -0.023  0.00  0.00    +0.133 C 
ATOM     15  C   UNL     1       2.205  -3.494   1.394  0.00  0.00    +0.036 C 
BRANCH  14  20
ATOM     16  C   UNL     1      -0.018   1.503   0.010  0.00  0.00    +0.086 C 
ATOM     17  C   UNL     1       0.002  -0.004   0.002  0.00  0.00    +0.102 A 
ATOM     18  C   UNL     1      -1.078  -0.805   0.003  0.00  0.00    +0.045 A 
ATOM     19  C   UNL     1      -0.601  -2.136  -0.007  0.00  0.00    +0.047 A 
ATOM     20  C   UNL     1       0.742  -2.069  -0.013  0.00  0.00    +0.125 A 
ATOM     21  O   UNL     1       1.102  -0.775  -0.013  0.00  0.00    -0.463 OA
ENDBRANCH  14  20
ENDBRANCH  12  14
ENDBRANCH   1  12
TORSDOF 3
