REMARK  Name = ZINC03352190
REMARK  13 active torsions:
REMARK  status: ('A' for Active; 'I' for Inactive)
REMARK    1  A    between atoms: C_1  and  C_2
REMARK    2  A    between atoms: C_4  and  O_12
REMARK    3  A    between atoms: C_5  and  C_9
REMARK    4  A    between atoms: C_9  and  C_10
REMARK    5  A    between atoms: C_9  and  C_11
REMARK    6  A    between atoms: O_12  and  C_13
REMARK    7  A    between atoms: C_13  and  C_14
REMARK    8  A    between atoms: C_14  and  C_16
REMARK    9  A    between atoms: C_14  and  O_27
REMARK   10  A    between atoms: C_16  and  N_52
REMARK   11  A    between atoms: C_17  and  C_18
REMARK   12  A    between atoms: C_17  and  N_52
REMARK   13  A    between atoms: C_18  and  C_19
REMARK                            x       y       z     vdW  Elec       q    Type
REMARK                         _______ _______ _______ _____ _____    ______ ____
ROOT
ATOM      1  C   UNL     1       0.685   5.645   3.778  0.00  0.00    +0.135 C 
ENDROOT
BRANCH   1   2
ATOM      2  O   UNL     1       1.383   5.938   2.566  0.00  0.00    -0.390 OA
ATOM      3  H   UNL     1       2.341   5.826   2.627  0.00  0.00    +0.210 HD
ENDBRANCH   1   2
BRANCH   1   4
ATOM      4  C   UNL     1       0.945   4.191   4.178  0.00  0.00    +0.258 C 
BRANCH   4   5
ATOM      5  O   UNL     1       0.380   3.319   3.196  0.00  0.00    -0.489 OA
BRANCH   5   9
ATOM      6  C   UNL     1       2.066  -0.339   5.952  0.00  0.00    +0.045 C 
ATOM      7  C   UNL     1       1.338   0.163   4.731  0.00  0.00    -0.029 A 
ATOM      8  C   UNL     1       1.194   1.522   4.524  0.00  0.00    +0.050 A 
ATOM      9  C   UNL     1       0.524   1.983   3.401  0.00  0.00    +0.124 A 
ATOM     10  C   UNL     1       0.000   1.080   2.488  0.00  0.00    -0.002 A 
ATOM     11  C   UNL     1       0.142  -0.277   2.701  0.00  0.00    +0.027 A 
ATOM     12  C   UNL     1       0.815  -0.736   3.820  0.00  0.00    +0.044 A 
ATOM     13 CL   UNL     1       0.998  -2.442   4.082  0.00  0.00    -0.083 Cl
BRANCH  10  14
ATOM     14  C   UNL     1      -0.729   1.579   1.267  0.00  0.00    +0.016 C 
ATOM     15  C   UNL     1      -0.013   1.086   0.008  0.00  0.00    +0.012 C 
ATOM     16  C   UNL     1      -2.164   1.050   1.278  0.00  0.00    +0.012 C 
ENDBRANCH  10  14
ENDBRANCH   5   9
ENDBRANCH   4   5
ENDBRANCH   1   4
BRANCH   1  17
ATOM     17  C   UNL     1       1.179   6.574   4.889  0.00  0.00    -0.048 C 
BRANCH  17  18
ATOM     18  N   UNL     1       0.817   7.964   4.552  0.00  0.00    +0.381 N 
ATOM     19  H   UNL     1      -0.204   8.037   4.465  0.00  0.00    -0.086 HD
ATOM     20  H   UNL     1       1.256   8.222   3.661  0.00  0.00    -0.086 HD
BRANCH  18  21
ATOM     21  C   UNL     1       1.281   8.884   5.607  0.00  0.00    -0.078 C 
BRANCH  21  22
ATOM     22  C   UNL     1       0.893  10.316   5.231  0.00  0.00    +0.017 C 
BRANCH  22  23
ATOM     23  C   UNL     1       1.364  11.263   6.305  0.00  0.00    -0.031 A 
ATOM     24  C   UNL     1       2.527  11.987   6.125  0.00  0.00    +0.006 A 
ATOM     25  C   UNL     1       2.960  12.856   7.109  0.00  0.00    +0.020 A 
ATOM     26  C   UNL     1       2.228  13.002   8.275  0.00  0.00    +0.042 A 
ATOM     27  C   UNL     1       1.064  12.277   8.455  0.00  0.00    +0.040 A 
ATOM     28  C   UNL     1       0.629  11.411   7.467  0.00  0.00    +0.045 A 
ATOM     29 CL   UNL     1      -0.836  10.506   7.690  0.00  0.00    -0.083 Cl
ATOM     30 CL   UNL     1       2.772  14.093   9.511  0.00  0.00    -0.083 Cl
ENDBRANCH  22  23
ENDBRANCH  21  22
ENDBRANCH  18  21
ENDBRANCH  17  18
ENDBRANCH   1  17
TORSDOF 10
