REMARK  Name = ZINC36545365
REMARK  14 active torsions:
REMARK  status: ('A' for Active; 'I' for Inactive)
REMARK    1  A    between atoms: C_1  and  C_2
REMARK    2  A    between atoms: C_2  and  C_3
REMARK    3  A    between atoms: C_2  and  C_4
REMARK    4  A    between atoms: C_2  and  N_5
REMARK    5  A    between atoms: C_6  and  C_8
REMARK    6  A    between atoms: C_8  and  C_10
REMARK    7  A    between atoms: C_8  and  N_19
REMARK    8  A    between atoms: C_11  and  O_18
REMARK    9  A    between atoms: C_13  and  O_17
REMARK   10  A    between atoms: C_15  and  O_16
REMARK   11  A    between atoms: N_19  and  C_20
REMARK   12  A    between atoms: C_27  and  C_29
REMARK   13  A    between atoms: C_33  and  O_36
REMARK   14  A    between atoms: C_34  and  O_35
REMARK                            x       y       z     vdW  Elec       q    Type
REMARK                         _______ _______ _______ _____ _____    ______ ____
ROOT
ATOM      1  C   UNL     1       3.167  -0.364  -2.332  0.00  0.00    +0.204 C 
ENDROOT
BRANCH   1   2
ATOM      2  C   UNL     1       3.498  -1.816  -2.098  0.00  0.00    +0.065 A 
ATOM      3  C   UNL     1       4.581  -2.161  -1.303  0.00  0.00    +0.129 A 
ATOM      4  C   UNL     1       4.886  -3.497  -1.089  0.00  0.00    +0.091 A 
ATOM      5  C   UNL     1       4.108  -4.487  -1.669  0.00  0.00    +0.124 A 
ATOM      6  C   UNL     1       3.025  -4.142  -2.463  0.00  0.00    +0.091 A 
ATOM      7  C   UNL     1       2.717  -2.807  -2.674  0.00  0.00    +0.129 A 
BRANCH   7   8
ATOM      8  O   UNL     1       1.653  -2.469  -3.449  0.00  0.00    -0.506 OA
ATOM      9  H   UNL     1       1.865  -2.366  -4.386  0.00  0.00    +0.292 HD
ENDBRANCH   7   8
BRANCH   5  10
ATOM     10  O   UNL     1       4.407  -5.796  -1.459  0.00  0.00    -0.507 OA
ATOM     11  H   UNL     1       3.970  -6.181  -0.687  0.00  0.00    +0.292 HD
ENDBRANCH   5  10
BRANCH   3  12
ATOM     12  O   UNL     1       5.343  -1.190  -0.735  0.00  0.00    -0.506 OA
ATOM     13  H   UNL     1       5.040  -0.914   0.141  0.00  0.00    +0.292 HD
ENDBRANCH   3  12
ENDBRANCH   1   2
BRANCH   1  15
ATOM     14  N   UNL     1       1.723  -0.007  -0.355  0.00  0.00    -0.309 N 
ATOM     15  C   UNL     1       2.859   0.299  -1.014  0.00  0.00    +0.239 C 
ATOM     16  O   UNL     1       3.632   1.107  -0.546  0.00  0.00    -0.273 OA
ATOM     17  H   UNL     1       1.105  -0.653  -0.729  0.00  0.00    +0.149 HD
BRANCH  14  19
ATOM     18  C   UNL     1       1.340   2.152   0.728  0.00  0.00    +0.031 C 
ATOM     19  C   UNL     1       1.424   0.638   0.926  0.00  0.00    +0.026 C 
ATOM     20  C   UNL     1       2.532   0.315   1.931  0.00  0.00    +0.031 C 
ATOM     21  C   UNL     1       0.087   0.118   1.458  0.00  0.00    +0.031 C 
ENDBRANCH  14  19
ENDBRANCH   1  15
BRANCH   1  22
ATOM     22  N   UNL     1       4.311   0.303  -2.958  0.00  0.00    -0.250 N 
ATOM     23  C   UNL     1       4.208   1.588  -3.352  0.00  0.00    +0.255 C 
ATOM     24  O   UNL     1       3.196   2.218  -3.113  0.00  0.00    -0.269 OA
BRANCH  22  25
ATOM     25  C   UNL     1       5.509  -0.394  -3.148  0.00  0.00    +0.056 A 
ATOM     26  C   UNL     1       5.575  -1.425  -4.076  0.00  0.00    +0.025 A 
ATOM     27  C   UNL     1       6.760  -2.110  -4.261  0.00  0.00    +0.002 A 
ATOM     28  C   UNL     1       7.880  -1.771  -3.525  0.00  0.00    +0.002 A 
ATOM     29  C   UNL     1       7.818  -0.745  -2.600  0.00  0.00    +0.022 A 
ATOM     30  C   UNL     1       6.638  -0.051  -2.413  0.00  0.00    +0.062 A 
ATOM     31 CL   UNL     1       6.563   1.242  -1.257  0.00  0.00    -0.082 Cl
ENDBRANCH  22  25
BRANCH  23  32
ATOM     32  C   UNL     1       5.324   2.230  -4.073  0.00  0.00    +0.082 A 
ATOM     33  C   UNL     1       6.032   1.519  -5.047  0.00  0.00    +0.017 A 
ATOM     34  C   UNL     1       7.073   2.122  -5.718  0.00  0.00    +0.005 A 
ATOM     35  C   UNL     1       7.425   3.431  -5.433  0.00  0.00    +0.049 A 
ATOM     36  C   UNL     1       6.734   4.147  -4.471  0.00  0.00    +0.159 A 
ATOM     37  C   UNL     1       5.676   3.554  -3.789  0.00  0.00    +0.171 A 
BRANCH  37  38
ATOM     38  O   UNL     1       4.992   4.255  -2.849  0.00  0.00    -0.503 OA
ATOM     39  H   UNL     1       5.356   4.176  -1.957  0.00  0.00    +0.292 HD
ENDBRANCH  37  38
BRANCH  36  40
ATOM     40  O   UNL     1       7.086   5.432  -4.196  0.00  0.00    -0.503 OA
ATOM     41  H   UNL     1       6.625   6.090  -4.734  0.00  0.00    +0.292 HD
ENDBRANCH  36  40
ENDBRANCH  23  32
ENDBRANCH   1  22
TORSDOF 11
