REMARK  Name = ZINC17287962
REMARK  3 active torsions:
REMARK  status: ('A' for Active; 'I' for Inactive)
REMARK    1  A    between atoms: C_4  and  C_7
REMARK    2  A    between atoms: C_7  and  O_28
REMARK    3  A    between atoms: N_14  and  C_22
REMARK                            x       y       z     vdW  Elec       q    Type
REMARK                         _______ _______ _______ _____ _____    ______ ____
ROOT
ATOM      1  C   UNL     1       2.797   1.062  -0.133  0.00  0.00    +0.145 C 
ATOM      2  C   UNL     1       1.534   1.663   0.413  0.00  0.00    +0.015 A 
ATOM      3  C   UNL     1       0.534   0.826   0.882  0.00  0.00    +0.009 A 
ATOM      4  C   UNL     1      -0.635   1.354   1.394  0.00  0.00    +0.000 A 
ATOM      5  C   UNL     1      -0.812   2.725   1.452  0.00  0.00    +0.002 A 
ATOM      6  C   UNL     1       0.177   3.567   0.985  0.00  0.00    +0.024 A 
ATOM      7  C   UNL     1       1.352   3.037   0.463  0.00  0.00    +0.045 A 
ATOM      8  N   UNL     1       2.343   3.897  -0.016  0.00  0.00    -0.268 N 
ATOM      9  C   UNL     1       3.330   3.409  -0.877  0.00  0.00    +0.045 A 
ATOM     10  C   UNL     1       3.571   2.045  -0.964  0.00  0.00    +0.016 A 
ATOM     11  C   UNL     1       4.548   1.579  -1.827  0.00  0.00    +0.029 A 
ATOM     12  C   UNL     1       5.280   2.465  -2.596  0.00  0.00    +0.041 A 
ATOM     13  C   UNL     1       5.042   3.825  -2.506  0.00  0.00    +0.022 A 
ATOM     14  C   UNL     1       4.068   4.298  -1.649  0.00  0.00    +0.025 A 
ATOM     15 CL   UNL     1       6.503   1.870  -3.675  0.00  0.00    -0.084 Cl
ENDROOT
BRANCH   1  19
ATOM     16  C   UNL     1       5.241  -0.236   3.121  0.00  0.00    +0.000 A 
ATOM     17  C   UNL     1       5.301  -0.894   1.907  0.00  0.00    +0.000 A 
ATOM     18  C   UNL     1       4.510  -0.474   0.854  0.00  0.00    +0.007 A 
ATOM     19  C   UNL     1       3.659   0.604   1.015  0.00  0.00    -0.007 A 
ATOM     20  C   UNL     1       3.604   1.265   2.228  0.00  0.00    +0.007 A 
ATOM     21  C   UNL     1       4.391   0.842   3.282  0.00  0.00    +0.000 A 
ENDBRANCH   1  19
BRANCH   8  22
ATOM     22  C   UNL     1       2.349   5.242   0.365  0.00  0.00    +0.039 A 
ATOM     23  C   UNL     1       1.660   6.182  -0.391  0.00  0.00    +0.024 A 
ATOM     24  C   UNL     1       1.663   7.509  -0.008  0.00  0.00    +0.002 A 
ATOM     25  C   UNL     1       2.359   7.904   1.120  0.00  0.00    +0.000 A 
ATOM     26  C   UNL     1       3.050   6.971   1.872  0.00  0.00    +0.002 A 
ATOM     27  C   UNL     1       3.047   5.642   1.498  0.00  0.00    +0.024 A 
ENDBRANCH   8  22
BRANCH   1  28
ATOM     28  O   UNL     1       2.463  -0.069  -0.941  0.00  0.00    -0.375 OA
ATOM     29  H   UNL     1       3.228  -0.513  -1.331  0.00  0.00    +0.211 HD
ENDBRANCH   1  28
TORSDOF 3
