REMARK  Name = ZINC35747274
REMARK  13 active torsions:
REMARK  status: ('A' for Active; 'I' for Inactive)
REMARK    1  A    between atoms: C_1  and  C_2
REMARK    2  A    between atoms: C_7  and  C_8
REMARK    3  A    between atoms: C_17  and  C_19
REMARK    4  A    between atoms: C_19  and  N_20
REMARK    5  A    between atoms: N_20  and  C_21
REMARK    6  A    between atoms: N_20  and  C_22
REMARK    7  A    between atoms: C_22  and  C_23
REMARK    8  A    between atoms: C_23  and  C_25
REMARK    9  A    between atoms: C_23  and  O_35
REMARK   10  A    between atoms: C_25  and  O_26
REMARK   11  A    between atoms: O_26  and  C_27
REMARK   12  A    between atoms: C_30  and  O_33
REMARK   13  A    between atoms: O_33  and  C_34
REMARK                            x       y       z     vdW  Elec       q    Type
REMARK                         _______ _______ _______ _____ _____    ______ ____
ROOT
ATOM      1  C   UNL     1      -0.140  -0.872   3.192  0.00  0.00    +0.004 A 
ATOM      2  C   UNL     1       0.919  -0.906   4.036  0.00  0.00    +0.056 A 
ATOM      3  S   UNL     1       0.522   0.342   5.246  0.00  0.00    -0.076 S 
ATOM      4  C   UNL     1      -1.041   0.874   4.596  0.00  0.00    +0.116 A 
ATOM      5  C   UNL     1      -1.216   0.076   3.454  0.00  0.00    +0.080 A 
ATOM      6  C   UNL     1      -2.422   0.304   2.717  0.00  0.00    +0.260 A 
ATOM      7  O   UNL     1      -2.666  -0.343   1.713  0.00  0.00    -0.267 OA
ATOM      8  N   UNL     1      -3.283   1.244   3.150  0.00  0.00    -0.312 N 
ATOM      9  H   UNL     1      -4.102   1.402   2.655  0.00  0.00    +0.170 HD
ATOM     10  C   UNL     1      -3.029   1.973   4.266  0.00  0.00    +0.094 A 
ATOM     11  N   UNL     1      -1.941   1.782   4.964  0.00  0.00    -0.229 NA
ENDROOT
BRANCH   1  18
ATOM     12  C   UNL     1      -0.066   0.233   0.519  0.00  0.00    +0.044 C 
ATOM     13  C   UNL     1      -0.166  -1.256   0.729  0.00  0.00    -0.043 A 
ATOM     14  C   UNL     1      -0.217  -2.106  -0.358  0.00  0.00    +0.004 A 
ATOM     15  C   UNL     1      -0.309  -3.472  -0.167  0.00  0.00    +0.000 A 
ATOM     16  C   UNL     1      -0.350  -3.997   1.113  0.00  0.00    +0.001 A 
ATOM     17  C   UNL     1      -0.300  -3.157   2.207  0.00  0.00    +0.009 A 
ATOM     18  C   UNL     1      -0.201  -1.779   2.021  0.00  0.00    -0.014 A 
ENDBRANCH   1  18
BRANCH  10  19
ATOM     19  C   UNL     1      -4.022   3.014   4.713  0.00  0.00    -0.003 C 
BRANCH  19  20
ATOM     20  N   UNL     1      -3.531   3.667   5.934  0.00  0.00    +0.384 N 
ATOM     21  C   UNL     1      -2.300   4.409   5.632  0.00  0.00    -0.095 C 
ATOM     22  H   UNL     1      -3.339   2.968   6.636  0.00  0.00    -0.082 HD
BRANCH  20  23
ATOM     23  C   UNL     1      -4.552   4.597   6.437  0.00  0.00    -0.044 C 
BRANCH  23  24
ATOM     24  C   UNL     1      -5.777   3.806   6.902  0.00  0.00    +0.135 C 
BRANCH  24  25
ATOM     25  O   UNL     1      -5.420   2.990   8.020  0.00  0.00    -0.390 OA
ATOM     26  H   UNL     1      -5.095   3.488   8.783  0.00  0.00    +0.210 HD
ENDBRANCH  24  25
BRANCH  24  27
ATOM     27  C   UNL     1      -6.885   4.778   7.313  0.00  0.00    +0.258 C 
BRANCH  27  28
ATOM     28  O   UNL     1      -8.067   4.043   7.636  0.00  0.00    -0.489 OA
BRANCH  28  29
ATOM     29  C   UNL     1      -9.154   4.761   8.024  0.00  0.00    +0.121 A 
ATOM     30  C   UNL     1      -9.085   6.145   8.085  0.00  0.00    +0.049 A 
ATOM     31  C   UNL     1     -10.189   6.875   8.479  0.00  0.00    +0.049 A 
ATOM     32  C   UNL     1     -11.368   6.224   8.812  0.00  0.00    +0.120 A 
ATOM     33  C   UNL     1     -11.438   4.841   8.750  0.00  0.00    +0.049 A 
ATOM     34  C   UNL     1     -10.334   4.111   8.352  0.00  0.00    +0.049 A 
BRANCH  32  35
ATOM     35  O   UNL     1     -12.455   6.943   9.201  0.00  0.00    -0.495 OA
ATOM     36  C   UNL     1     -13.635   6.208   9.530  0.00  0.00    +0.277 C 
ENDBRANCH  32  35
ENDBRANCH  28  29
ENDBRANCH  27  28
ENDBRANCH  24  27
ENDBRANCH  23  24
ENDBRANCH  20  23
ENDBRANCH  19  20
ENDBRANCH  10  19
TORSDOF 10
