REMARK  Name = ZINC63154548
REMARK  9 active torsions:
REMARK  status: ('A' for Active; 'I' for Inactive)
REMARK    1  A    between atoms: C_1  and  C_2
REMARK    2  A    between atoms: C_2  and  O_3
REMARK    3  A    between atoms: O_3  and  C_4
REMARK    4  A    between atoms: C_4  and  C_5
REMARK    5  A    between atoms: C_5  and  S_6
REMARK    6  A    between atoms: S_6  and  N_9
REMARK    7  A    between atoms: N_9  and  C_10
REMARK    8  A    between atoms: C_12  and  S_17
REMARK    9  A    between atoms: S_17  and  N_20
REMARK                            x       y       z     vdW  Elec       q    Type
REMARK                         _______ _______ _______ _____ _____    ______ ____
ROOT
ATOM      1  C   UNL     1       2.719  -5.656  -4.489  0.00  0.00    +0.094 A 
ATOM      2  C   UNL     1       2.289  -6.729  -3.719  0.00  0.00    +0.056 A 
ATOM      3  C   UNL     1       2.627  -8.018  -4.082  0.00  0.00    +0.107 A 
ATOM      4  C   UNL     1       3.393  -8.242  -5.212  0.00  0.00    +0.030 A 
ATOM      5  C   UNL     1       3.824  -7.176  -5.981  0.00  0.00    +0.024 A 
ATOM      6  C   UNL     1       3.484  -5.884  -5.626  0.00  0.00    +0.065 A 
ATOM      7 CL   UNL     1       4.019  -4.547  -6.596  0.00  0.00    -0.082 Cl
ENDROOT
BRANCH   3   8
ATOM      8  S   UNL     1       2.082  -9.380  -3.106  0.00  0.00    +0.056 S 
ATOM      9  O   UNL     1       2.988 -10.445  -3.353  0.00  0.00    -0.153 OA
ATOM     10  O   UNL     1       1.840  -8.872  -1.801  0.00  0.00    -0.153 OA
BRANCH   8  11
ATOM     11  N   UNL     1       0.615  -9.857  -3.707  0.00  0.00    -0.204 NA
ATOM     12  H   UNL     1       0.227  -9.392  -4.465  0.00  0.00    +0.144 HD
ATOM     13  H   UNL     1       0.143 -10.601  -3.301  0.00  0.00    +0.144 HD
ENDBRANCH   8  11
ENDBRANCH   3   8
BRANCH   1  14
ATOM     14  N   UNL     1       2.378  -4.351  -4.124  0.00  0.00    -0.101 NA
BRANCH  14  15
ATOM     15  S   UNL     1       1.604  -4.069  -2.687  0.00  0.00    +0.065 S 
ATOM     16  O   UNL     1       2.491  -4.562  -1.694  0.00  0.00    -0.153 OA
ATOM     17  O   UNL     1       0.312  -4.638  -2.853  0.00  0.00    -0.153 OA
BRANCH  15  18
ATOM     18  C   UNL     1       1.479  -2.263  -2.572  0.00  0.00    +0.218 C 
BRANCH  18  19
ATOM     19  C   UNL     1       0.773  -1.882  -1.270  0.00  0.00    +0.184 C 
BRANCH  19  20
ATOM     20  O   UNL     1       0.675  -0.459  -1.179  0.00  0.00    -0.378 OA
BRANCH  20  22
ATOM     21  C   UNL     1      -0.021   1.534  -0.002  0.00  0.00    +0.034 C 
ATOM     22  C   UNL     1       0.028   0.004   0.007  0.00  0.00    +0.156 C 
ENDBRANCH  20  22
ENDBRANCH  19  20
ENDBRANCH  18  19
ENDBRANCH  15  18
ENDBRANCH  14  15
ENDBRANCH   1  14
TORSDOF 8
