REMARK  Name = ZINC39773344
REMARK  9 active torsions:
REMARK  status: ('A' for Active; 'I' for Inactive)
REMARK    1  A    between atoms: C_1  and  C_2
REMARK    2  A    between atoms: C_2  and  C_3
REMARK    3  A    between atoms: C_2  and  C_4
REMARK    4  A    between atoms: C_2  and  C_5
REMARK    5  A    between atoms: C_8  and  C_11
REMARK    6  A    between atoms: C_15  and  S_19
REMARK    7  A    between atoms: N_17  and  C_18
REMARK    8  A    between atoms: S_19  and  C_20
REMARK    9  A    between atoms: C_20  and  C_21
REMARK                            x       y       z     vdW  Elec       q    Type
REMARK                         _______ _______ _______ _____ _____    ______ ____
ROOT
ATOM      1  C   UNL     1       2.707  -1.868  -4.752  0.00  0.00    +0.049 C 
ATOM      2  N   UNL     1       2.317  -3.268  -5.064  0.00  0.00    -0.267 NA
ATOM      3  N   UNL     1       3.436  -3.793  -5.852  0.00  0.00    -0.262 NA
ATOM      4  C   UNL     1       4.621  -2.982  -5.508  0.00  0.00    +0.077 C 
ATOM      5  N   UNL     1       4.172  -1.973  -4.517  0.00  0.00    +0.409 N 
ATOM      6  C   UNL     1       4.826  -0.681  -4.760  0.00  0.00    -0.090 C 
ATOM      7  H   UNL     1       1.458  -3.295  -5.593  0.00  0.00    +0.139 HD
ATOM      8  H   UNL     1       3.237  -3.742  -6.840  0.00  0.00    +0.140 HD
ATOM      9  H   UNL     1       4.357  -2.295  -3.579  0.00  0.00    -0.076 HD
ENDROOT
BRANCH   1  13
ATOM     10  C   UNL     1       0.705  -0.489  -1.239  0.00  0.00    -0.042 A 
ATOM     11  C   UNL     1       0.718   0.292  -2.380  0.00  0.00    +0.004 A 
ATOM     12  C   UNL     1       1.365  -0.154  -3.516  0.00  0.00    +0.003 A 
ATOM     13  C   UNL     1       2.002  -1.381  -3.513  0.00  0.00    -0.046 A 
ATOM     14  C   UNL     1       1.990  -2.162  -2.372  0.00  0.00    +0.003 A 
ATOM     15  C   UNL     1       1.346  -1.714  -1.234  0.00  0.00    +0.004 A 
BRANCH  10  17
ATOM     16  C   UNL     1       1.003   0.110   1.148  0.00  0.00    +0.015 C 
ATOM     17  C   UNL     1      -0.001  -0.003  -0.000  0.00  0.00    -0.013 C 
ATOM     18  C   UNL     1      -1.103  -0.994   0.381  0.00  0.00    +0.015 C 
ATOM     19  C   UNL     1      -0.622   1.369  -0.272  0.00  0.00    +0.015 C 
ENDBRANCH  10  17
ENDBRANCH   1  13
BRANCH   4  20
ATOM     20  S   UNL     1       5.908  -4.037  -4.787  0.00  0.00    -0.152 S 
BRANCH  20  21
ATOM     21  C   UNL     1       5.107  -4.779  -3.338  0.00  0.00    +0.143 C 
BRANCH  21  22
ATOM     22  C   UNL     1       6.082  -5.691  -2.638  0.00  0.00    +0.120 A 
ATOM     23  N   UNL     1       5.663  -6.348  -1.525  0.00  0.00    -0.310 N 
ATOM     24  H   UNL     1       4.757  -6.221  -1.204  0.00  0.00    +0.170 HD
ATOM     25  C   UNL     1       6.499  -7.179  -0.860  0.00  0.00    +0.259 A 
ATOM     26  O   UNL     1       6.138  -7.774   0.138  0.00  0.00    -0.267 OA
ATOM     27  C   UNL     1       7.862  -7.334  -1.391  0.00  0.00    +0.065 A 
ATOM     28  C   UNL     1       8.800  -8.165  -0.781  0.00  0.00    +0.015 A 
ATOM     29  C   UNL     1      10.063  -8.273  -1.320  0.00  0.00    +0.001 A 
ATOM     30  C   UNL     1      10.406  -7.563  -2.463  0.00  0.00    +0.002 A 
ATOM     31  C   UNL     1       9.494  -6.736  -3.081  0.00  0.00    +0.028 A 
ATOM     32  C   UNL     1       8.207  -6.610  -2.553  0.00  0.00    +0.078 A 
ATOM     33  N   UNL     1       7.276  -5.812  -3.132  0.00  0.00    -0.233 NA
ENDBRANCH  21  22
ENDBRANCH  20  21
ENDBRANCH   4  20
TORSDOF 5
