REMARK  Name = ZINC40752172
REMARK  5 active torsions:
REMARK  status: ('A' for Active; 'I' for Inactive)
REMARK    1  A    between atoms: C_5  and  C_7
REMARK    2  A    between atoms: N_9  and  N_10
REMARK    3  A    between atoms: C_12  and  N_28
REMARK    4  A    between atoms: C_13  and  O_17
REMARK    5  A    between atoms: O_17  and  C_18
REMARK                            x       y       z     vdW  Elec       q    Type
REMARK                         _______ _______ _______ _____ _____    ______ ____
ROOT
ATOM      1  N   UNL     1       0.099  -4.249  -0.218  0.00  0.00    -0.246 N 
ATOM      2  C   UNL     1      -1.087  -4.972  -0.203  0.00  0.00    +0.163 A 
ATOM      3  C   UNL     1      -1.066  -6.367  -0.110  0.00  0.00    +0.129 A 
ATOM      4  C   UNL     1      -2.285  -7.044  -0.099  0.00  0.00    +0.246 A 
ATOM      5  N   UNL     1      -3.412  -6.343  -0.176  0.00  0.00    -0.199 NA
ATOM      6  C   UNL     1      -3.389  -5.029  -0.262  0.00  0.00    +0.227 A 
ATOM      7  N   UNL     1      -2.260  -4.349  -0.271  0.00  0.00    -0.217 NA
ATOM      8  H   UNL     1       0.950  -4.711  -0.169  0.00  0.00    +0.172 HD
ENDROOT
BRANCH   1  11
ATOM      9  C   UNL     1       1.216  -2.149  -0.321  0.00  0.00    +0.261 C 
ATOM     10  O   UNL     1       2.282  -2.728  -0.258  0.00  0.00    -0.269 OA
ATOM     11  N   UNL     1       0.065  -2.851  -0.306  0.00  0.00    -0.231 N 
ATOM     12  H   UNL     1      -0.786  -2.388  -0.355  0.00  0.00    +0.173 HD
BRANCH   9  17
ATOM     13  C   UNL     1      -0.069   1.371  -0.572  0.00  0.00    +0.001 A 
ATOM     14  C   UNL     1       1.114   2.090  -0.586  0.00  0.00    +0.001 A 
ATOM     15  C   UNL     1       2.329   1.434  -0.515  0.00  0.00    +0.016 A 
ATOM     16  C   UNL     1       2.370   0.057  -0.429  0.00  0.00    +0.030 A 
ATOM     17  C   UNL     1       1.180  -0.674  -0.413  0.00  0.00    +0.052 A 
ATOM     18  C   UNL     1      -0.043  -0.005  -0.485  0.00  0.00    +0.014 A 
ATOM     19 BR   UNL     1       4.034  -0.838  -0.332  0.00  0.00    -0.050 Br
ENDBRANCH   9  17
ENDBRANCH   1  11
BRANCH   3  20
ATOM     20  N   UNL     1       0.148  -7.066  -0.031  0.00  0.00    -0.351 N 
ATOM     21  H   UNL     1       0.988  -6.582  -0.041  0.00  0.00    +0.143 HD
ATOM     22  H   UNL     1       0.147  -8.034   0.033  0.00  0.00    +0.143 HD
ENDBRANCH   3  20
BRANCH   4  23
ATOM     23  O   UNL     1      -2.319  -8.397  -0.011  0.00  0.00    -0.434 OA
BRANCH  23  24
ATOM     24  C   UNL     1      -3.532  -8.998   0.102  0.00  0.00    +0.156 A 
ATOM     25  C   UNL     1      -4.039  -9.309   1.343  0.00  0.00    +0.048 A 
ATOM     26  C   UNL     1      -5.280  -9.925   1.474  0.00  0.00    +0.004 A 
ATOM     27  C   UNL     1      -6.027 -10.235   0.378  0.00  0.00    +0.010 A 
ATOM     28  C   UNL     1      -5.545  -9.932  -0.906  0.00  0.00    +0.004 A 
ATOM     29  C   UNL     1      -4.285  -9.301  -1.052  0.00  0.00    +0.113 A 
ATOM     30  N   UNL     1      -3.825  -9.007  -2.272  0.00  0.00    -0.251 NA
ATOM     31  C   UNL     1      -4.520  -9.287  -3.348  0.00  0.00    +0.111 A 
ATOM     32  C   UNL     1      -5.768  -9.902  -3.275  0.00  0.00    +0.020 A 
ATOM     33  C   UNL     1      -6.291 -10.239  -2.059  0.00  0.00    +0.011 A 
ENDBRANCH  23  24
ENDBRANCH   4  23
TORSDOF 5
