REMARK  Name = ZINC39587530
REMARK  7 active torsions:
REMARK  status: ('A' for Active; 'I' for Inactive)
REMARK    1  A    between atoms: C_3  and  O_27
REMARK    2  A    between atoms: C_4  and  C_8
REMARK    3  A    between atoms: C_8  and  O_10
REMARK    4  A    between atoms: O_10  and  C_11
REMARK    5  A    between atoms: C_11  and  C_12
REMARK    6  A    between atoms: N_14  and  C_15
REMARK    7  A    between atoms: C_16  and  C_24
REMARK                            x       y       z     vdW  Elec       q    Type
REMARK                         _______ _______ _______ _____ _____    ______ ____
ROOT
ATOM      1  C   UNL     1       4.815  -4.166  -0.067  0.00  0.00    +0.255 C 
ATOM      2  O   UNL     1       3.701  -4.645  -0.059  0.00  0.00    -0.272 OA
ATOM      3  N   UNL     1       5.895  -4.972  -0.082  0.00  0.00    -0.277 N 
ATOM      4  H   UNL     1       6.786  -4.589  -0.089  0.00  0.00    +0.155 HD
ENDROOT
BRANCH   3   5
ATOM      5  C   UNL     1       5.732  -6.349  -0.088  0.00  0.00    +0.084 A 
ATOM      6  C   UNL     1       6.718  -7.324  -0.098  0.00  0.00    +0.068 A 
ATOM      7  C   UNL     1       6.282  -8.709  -0.102  0.00  0.00    -0.023 A 
ATOM      8  C   UNL     1       4.941  -8.866  -0.097  0.00  0.00    -0.004 A 
ATOM      9  S   UNL     1       4.296  -7.219  -0.078  0.00  0.00    -0.077 S 
ATOM     10  C   UNL     1       4.186 -10.160  -0.102  0.00  0.00    +0.043 C 
ATOM     11  C   UNL     1       5.158 -11.283  -0.494  0.00  0.00    +0.005 C 
ATOM     12  C   UNL     1       6.437 -11.145   0.338  0.00  0.00    +0.005 C 
ATOM     13  C   UNL     1       7.218  -9.908  -0.111  0.00  0.00    +0.037 C 
BRANCH   6  14
ATOM     14  C   UNL     1       8.141  -6.971  -0.103  0.00  0.00    +0.244 C 
ATOM     15  O   UNL     1       8.737  -6.830   0.949  0.00  0.00    -0.270 OA
ATOM     16  N   UNL     1       8.789  -6.803  -1.273  0.00  0.00    -0.325 N 
ATOM     17  H   UNL     1       8.314  -6.915  -2.111  0.00  0.00    +0.145 HD
ATOM     18  H   UNL     1       9.731  -6.569  -1.276  0.00  0.00    +0.145 HD
ENDBRANCH   6  14
ENDBRANCH   3   5
BRANCH   1  19
ATOM     19  C   UNL     1       4.992  -2.670  -0.061  0.00  0.00    +0.328 C 
BRANCH  19  20
ATOM     20  O   UNL     1       3.710  -2.038  -0.045  0.00  0.00    -0.452 OA
BRANCH  20  21
ATOM     21  C   UNL     1       3.691  -0.691  -0.037  0.00  0.00    +0.343 C 
ATOM     22  O   UNL     1       4.735  -0.069  -0.044  0.00  0.00    -0.245 OA
BRANCH  21  26
ATOM     23  C   UNL     1      -0.017   1.382   0.010  0.00  0.00    +0.019 A 
ATOM     24  C   UNL     1       1.165   2.096   0.002  0.00  0.00    +0.047 A 
ATOM     25  C   UNL     1       2.381   1.430  -0.013  0.00  0.00    +0.131 A 
ATOM     26  C   UNL     1       2.405   0.028  -0.021  0.00  0.00    +0.101 A 
ATOM     27  C   UNL     1       1.202  -0.683  -0.013  0.00  0.00    +0.034 A 
ATOM     28  C   UNL     1       0.002  -0.004   0.002  0.00  0.00    +0.019 A 
ATOM     29 BR   UNL     1      -1.625  -0.968   0.013  0.00  0.00    -0.050 Br
BRANCH  25  30
ATOM     30  O   UNL     1       3.542   2.131  -0.021  0.00  0.00    -0.506 OA
ATOM     31  H   UNL     1       3.887   2.330   0.860  0.00  0.00    +0.292 HD
ENDBRANCH  25  30
ENDBRANCH  21  26
ENDBRANCH  20  21
ENDBRANCH  19  20
ENDBRANCH   1  19
TORSDOF 7
