REMARK  Name = ZINC12446211
REMARK  5 active torsions:
REMARK  status: ('A' for Active; 'I' for Inactive)
REMARK    1  A    between atoms: C_1  and  C_2
REMARK    2  A    between atoms: N_10  and  C_11
REMARK    3  A    between atoms: C_14  and  O_17
REMARK    4  A    between atoms: O_17  and  C_18
REMARK    5  A    between atoms: C_18  and  C_20
REMARK                            x       y       z     vdW  Elec       q    Type
REMARK                         _______ _______ _______ _____ _____    ______ ____
ROOT
ATOM      1  C   UNL     1       5.896  -1.702   0.067  0.00  0.00    +0.040 A 
ATOM      2  C   UNL     1       5.827  -0.311   0.150  0.00  0.00    +0.029 A 
ATOM      3  C   UNL     1       6.985   0.430   0.253  0.00  0.00    +0.048 A 
ATOM      4  C   UNL     1       8.219  -0.206   0.273  0.00  0.00    +0.132 A 
ATOM      5  C   UNL     1       8.291  -1.590   0.190  0.00  0.00    +0.048 A 
ATOM      6  C   UNL     1       7.137  -2.339   0.093  0.00  0.00    +0.029 A 
ENDROOT
BRANCH   1  16
ATOM      7  C   UNL     1       6.333  -8.420   0.269  0.00  0.00    +0.066 C 
ATOM      8  C   UNL     1       4.974  -7.772   0.208  0.00  0.00    +0.047 A 
ATOM      9  C   UNL     1       3.849  -8.545   0.217  0.00  0.00    +0.093 A 
ATOM     10  C   UNL     1       2.592  -7.916   0.161  0.00  0.00    +0.253 A 
ATOM     11  N   UNL     1       2.544  -6.568   0.099  0.00  0.00    -0.295 N 
ATOM     12  C   UNL     1       3.699  -5.850   0.093  0.00  0.00    +0.201 A 
ATOM     13  N   UNL     1       4.872  -6.446   0.152  0.00  0.00    -0.221 NA
ATOM     14  N   UNL     1       3.641  -4.479   0.030  0.00  0.00    -0.277 N 
ATOM     15  C   UNL     1       4.800  -3.742   0.024  0.00  0.00    +0.162 C 
ATOM     16  N   UNL     1       4.745  -2.443  -0.036  0.00  0.00    -0.349 N 
ATOM     17  O   UNL     1       1.566  -8.576   0.166  0.00  0.00    -0.268 OA
ATOM     18  H   UNL     1       2.781  -4.031  -0.009  0.00  0.00    +0.156 HD
ATOM     19  H   UNL     1       1.688  -6.113   0.059  0.00  0.00    +0.172 HD
ATOM     20  H   UNL     1       3.891  -1.999  -0.153  0.00  0.00    +0.166 HD
ENDBRANCH   1  16
BRANCH   4  21
ATOM     21  O   UNL     1       9.358   0.528   0.374  0.00  0.00    -0.420 OA
BRANCH  21  22
ATOM     22  C   UNL     1       9.684   1.029   1.583  0.00  0.00    +0.380 C 
ATOM     23  O   UNL     1       8.923   0.895   2.522  0.00  0.00    -0.241 OA
BRANCH  22  24
ATOM     24  C   UNL     1      10.954   1.733   1.766  0.00  0.00    +0.213 A 
ATOM     25  C   UNL     1      11.408   2.282   2.932  0.00  0.00    +0.058 A 
ATOM     26  C   UNL     1      12.659   2.851   2.651  0.00  0.00    +0.058 A 
ATOM     27  C   UNL     1      12.912   2.628   1.340  0.00  0.00    +0.171 A 
ATOM     28  O   UNL     1      11.885   1.949   0.812  0.00  0.00    -0.442 OA
ATOM     29 BR   UNL     1      14.464   3.178   0.410  0.00  0.00    -0.008 Br
ENDBRANCH  22  24
ENDBRANCH  21  22
ENDBRANCH   4  21
TORSDOF 4
