REMARK  Name = ZINC36206451
REMARK  16 active torsions:
REMARK  status: ('A' for Active; 'I' for Inactive)
REMARK    1  A    between atoms: C_1  and  C_2
REMARK    2  A    between atoms: C_5  and  C_9
REMARK    3  A    between atoms: C_6  and  C_8
REMARK    4  A    between atoms: C_18  and  C_20
REMARK    5  A    between atoms: C_20  and  N_21
REMARK    6  A    between atoms: N_21  and  C_22
REMARK    7  A    between atoms: N_21  and  C_29
REMARK    8  A    between atoms: C_22  and  C_23
REMARK    9  A    between atoms: C_29  and  C_30
REMARK   10  A    between atoms: C_30  and  C_32
REMARK   11  A    between atoms: C_30  and  O_38
REMARK   12  A    between atoms: C_32  and  O_33
REMARK   13  A    between atoms: O_33  and  C_34
REMARK   14  A    between atoms: C_34  and  C_35
REMARK   15  A    between atoms: C_34  and  C_36
REMARK   16  A    between atoms: C_34  and  C_37
REMARK                            x       y       z     vdW  Elec       q    Type
REMARK                         _______ _______ _______ _____ _____    ______ ____
ROOT
ATOM      1  C   UNL     1      -3.865  -7.738   1.970  0.00  0.00    -0.003 C 
ENDROOT
BRANCH   1  11
ATOM      2  C   UNL     1      -3.909  -7.100   7.634  0.00  0.00    +0.004 A 
ATOM      3  C   UNL     1      -3.399  -8.176   8.281  0.00  0.00    +0.056 A 
ATOM      4  S   UNL     1      -2.954  -9.282   6.955  0.00  0.00    -0.076 S 
ATOM      5  C   UNL     1      -3.457  -8.284   5.577  0.00  0.00    +0.116 A 
ATOM      6  C   UNL     1      -3.963  -7.119   6.177  0.00  0.00    +0.080 A 
ATOM      7  C   UNL     1      -4.455  -6.121   5.276  0.00  0.00    +0.260 A 
ATOM      8  O   UNL     1      -4.910  -5.074   5.701  0.00  0.00    -0.267 OA
ATOM      9  N   UNL     1      -4.405  -6.357   3.952  0.00  0.00    -0.312 N 
ATOM     10  H   UNL     1      -4.737  -5.684   3.336  0.00  0.00    +0.170 HD
ATOM     11  C   UNL     1      -3.901  -7.518   3.460  0.00  0.00    +0.094 A 
ATOM     12  N   UNL     1      -3.436  -8.443   4.257  0.00  0.00    -0.229 NA
BRANCH   2  17
ATOM     13  C   UNL     1      -5.840  -2.547  10.582  0.00  0.00    +0.044 C 
ATOM     14  C   UNL     1      -5.335  -3.739   9.810  0.00  0.00    -0.050 A 
ATOM     15  C   UNL     1      -3.991  -4.065   9.849  0.00  0.00    +0.004 A 
ATOM     16  C   UNL     1      -3.522  -5.155   9.145  0.00  0.00    +0.009 A 
ATOM     17  C   UNL     1      -4.406  -5.928   8.393  0.00  0.00    -0.014 A 
ATOM     18  C   UNL     1      -5.759  -5.594   8.357  0.00  0.00    -0.042 A 
ATOM     19  C   UNL     1      -6.217  -4.505   9.070  0.00  0.00    +0.007 A 
ATOM     20  C   UNL     1      -6.720  -6.425   7.547  0.00  0.00    +0.044 C 
ENDBRANCH   2  17
ENDBRANCH   1  11
BRANCH   1  21
ATOM     21  N   UNL     1      -3.414  -9.107   1.687  0.00  0.00    +0.389 N 
ATOM     22  H   UNL     1      -2.541  -9.278   2.163  0.00  0.00    -0.081 HD
BRANCH  21  23
ATOM     23  C   UNL     1      -3.223  -9.271   0.240  0.00  0.00    -0.042 C 
BRANCH  23  24
ATOM     24  C   UNL     1      -2.094  -8.385  -0.221  0.00  0.00    -0.064 A 
ATOM     25  C   UNL     1      -2.367  -7.144  -0.765  0.00  0.00    +0.002 A 
ATOM     26  C   UNL     1      -1.332  -6.331  -1.188  0.00  0.00    +0.000 A 
ATOM     27  C   UNL     1      -0.023  -6.759  -1.067  0.00  0.00    +0.000 A 
ATOM     28  C   UNL     1       0.250  -8.000  -0.522  0.00  0.00    +0.000 A 
ATOM     29  C   UNL     1      -0.785  -8.811  -0.095  0.00  0.00    +0.002 A 
ENDBRANCH  23  24
ENDBRANCH  21  23
BRANCH  21  30
ATOM     30  C   UNL     1      -4.424 -10.063   2.159  0.00  0.00    -0.044 C 
BRANCH  30  31
ATOM     31  C   UNL     1      -3.900 -11.489   1.979  0.00  0.00    +0.124 C 
BRANCH  31  32
ATOM     32  O   UNL     1      -2.765 -11.690   2.824  0.00  0.00    -0.391 OA
ATOM     33  H   UNL     1      -2.950 -11.571   3.766  0.00  0.00    +0.210 HD
ENDBRANCH  31  32
BRANCH  31  34
ATOM     34  C   UNL     1      -4.998 -12.487   2.353  0.00  0.00    +0.189 C 
BRANCH  34  35
ATOM     35  O   UNL     1      -4.549 -13.815   2.075  0.00  0.00    -0.372 OA
BRANCH  35  36
ATOM     36  C   UNL     1      -5.505 -14.829   2.390  0.00  0.00    +0.061 C 
ATOM     37  C   UNL     1      -6.778 -14.602   1.573  0.00  0.00    +0.041 C 
ATOM     38  C   UNL     1      -4.921 -16.203   2.053  0.00  0.00    +0.041 C 
ATOM     39  C   UNL     1      -5.839 -14.769   3.882  0.00  0.00    +0.041 C 
ENDBRANCH  35  36
ENDBRANCH  34  35
ENDBRANCH  31  34
ENDBRANCH  30  31
ENDBRANCH  21  30
ENDBRANCH   1  21
TORSDOF 11
