REMARK  Name = ZINC06193388
REMARK  12 active torsions:
REMARK  status: ('A' for Active; 'I' for Inactive)
REMARK    1  A    between atoms: C_1  and  C_2
REMARK    2  A    between atoms: C_2  and  N_63
REMARK    3  A    between atoms: C_3  and  C_4
REMARK    4  A    between atoms: C_3  and  N_63
REMARK    5  A    between atoms: C_5  and  C_6
REMARK    6  A    between atoms: C_5  and  N_63
REMARK    7  A    between atoms: C_6  and  N_7
REMARK    8  A    between atoms: N_7  and  C_8
REMARK    9  A    between atoms: N_7  and  C_25
REMARK   10  A    between atoms: C_8  and  C_9
REMARK   11  A    between atoms: C_25  and  N_27
REMARK   12  A    between atoms: N_27  and  C_28
REMARK                            x       y       z     vdW  Elec       q    Type
REMARK                         _______ _______ _______ _____ _____    ______ ____
ROOT
ATOM      1  N   UNL     1       0.951   2.909   0.718  0.00  0.00    -0.310 N 
ENDROOT
BRANCH   1   2
ATOM      2  C   UNL     1      -0.010   2.072   0.278  0.00  0.00    +0.137 C 
ATOM      3  S   UNL     1      -0.061   0.456   0.839  0.00  0.00    -0.018 S 
BRANCH   2   4
ATOM      4  N   UNL     1      -0.927   2.507  -0.609  0.00  0.00    -0.297 N 
ATOM      5  H   UNL     1      -0.849   3.396  -0.991  0.00  0.00    +0.154 HD
BRANCH   4   6
ATOM      6  C   UNL     1      -1.991   1.677  -0.980  0.00  0.00    +0.033 A 
ATOM      7  C   UNL     1      -2.427   1.652  -2.298  0.00  0.00    +0.026 A 
ATOM      8  C   UNL     1      -3.474   0.828  -2.663  0.00  0.00    +0.040 A 
ATOM      9  C   UNL     1      -4.096   0.035  -1.713  0.00  0.00    +0.124 A 
ATOM     10  C   UNL     1      -3.666   0.062  -0.397  0.00  0.00    +0.040 A 
ATOM     11  C   UNL     1      -2.615   0.880  -0.029  0.00  0.00    +0.026 A 
ATOM     12  F   UNL     1      -5.123  -0.766  -2.070  0.00  0.00    -0.205 F 
ENDBRANCH   4   6
ENDBRANCH   2   4
ENDBRANCH   1   2
BRANCH   1  13
ATOM     13  C   UNL     1       1.073   4.252   0.146  0.00  0.00    +0.088 C 
BRANCH  13  14
ATOM     14  C   UNL     1       0.212   5.228   0.949  0.00  0.00    -0.060 C 
BRANCH  14  15
ATOM     15  N   UNL     1       0.251   6.549   0.287  0.00  0.00    +0.380 N 
ATOM     16  H   UNL     1       1.214   6.742  -0.014  0.00  0.00    -0.082 HD
BRANCH  15  18
ATOM     17  C   UNL     1      -0.403   7.839  -1.685  0.00  0.00    -0.017 C 
ATOM     18  C   UNL     1      -0.632   6.548  -0.897  0.00  0.00    -0.082 C 
ENDBRANCH  15  18
BRANCH  15  19
ATOM     19  C   UNL     1      -0.175   7.601   1.234  0.00  0.00    -0.082 C 
ATOM     20  C   UNL     1       0.995   7.927   2.164  0.00  0.00    -0.017 C 
ENDBRANCH  15  19
ENDBRANCH  14  15
ENDBRANCH  13  14
ENDBRANCH   1  13
BRANCH   1  21
ATOM     21  C   UNL     1       1.874   2.474   1.770  0.00  0.00    +0.147 C 
BRANCH  21  22
ATOM     22  C   UNL     1       1.344   2.905   3.113  0.00  0.00    +0.035 A 
ATOM     23  C   UNL     1       0.575   2.056   3.841  0.00  0.00    +0.020 A 
ATOM     24  C   UNL     1       0.080   2.502   5.143  0.00  0.00    +0.003 A 
ATOM     25  C   UNL     1      -0.713   1.667   5.939  0.00  0.00    +0.059 A 
ATOM     26  C   UNL     1      -1.169   2.116   7.160  0.00  0.00    +0.163 A 
ATOM     27  C   UNL     1      -0.843   3.401   7.604  0.00  0.00    +0.164 A 
ATOM     28  C   UNL     1      -0.059   4.233   6.824  0.00  0.00    +0.075 A 
ATOM     29  C   UNL     1       0.408   3.796   5.591  0.00  0.00    +0.053 A 
ATOM     30  N   UNL     1       1.189   4.613   4.799  0.00  0.00    -0.322 N 
ATOM     31  H   UNL     1       1.420   5.533   5.117  0.00  0.00    +0.169 HD
ATOM     32  C   UNL     1       1.643   4.192   3.606  0.00  0.00    +0.254 A 
ATOM     33  O   UNL     1       2.331   4.941   2.933  0.00  0.00    -0.268 OA
ATOM     34  O   UNL     1      -1.286   3.850   8.810  0.00  0.00    -0.485 OA
ATOM     35  C   UNL     1      -2.375   3.136   9.403  0.00  0.00    +0.270 C 
ATOM     36  C   UNL     1      -2.076   1.634   9.305  0.00  0.00    +0.270 C 
ATOM     37  O   UNL     1      -1.943   1.293   7.922  0.00  0.00    -0.485 OA
ENDBRANCH  21  22
ENDBRANCH   1  21
TORSDOF 10
