REMARK  Name = ZINC02072934
REMARK  15 active torsions:
REMARK  status: ('A' for Active; 'I' for Inactive)
REMARK    1  A    between atoms: C_1  and  C_2
REMARK    2  A    between atoms: C_2  and  C_3
REMARK    3  A    between atoms: C_2  and  C_4
REMARK    4  A    between atoms: C_4  and  N_69
REMARK    5  A    between atoms: C_5  and  C_6
REMARK    6  A    between atoms: C_5  and  N_69
REMARK    7  A    between atoms: N_8  and  C_9
REMARK    8  A    between atoms: C_10  and  C_23
REMARK    9  A    between atoms: C_15  and  C_19
REMARK   10  A    between atoms: C_19  and  C_20
REMARK   11  A    between atoms: C_19  and  C_21
REMARK   12  A    between atoms: C_19  and  C_22
REMARK   13  A    between atoms: N_25  and  C_26
REMARK   14  A    between atoms: C_29  and  O_32
REMARK   15  A    between atoms: O_32  and  C_33
REMARK                            x       y       z     vdW  Elec       q    Type
REMARK                         _______ _______ _______ _____ _____    ______ ____
ROOT
ATOM      1  C   UNL     1      -0.982  -2.210  -0.341  0.00  0.00    +0.084 A 
ATOM      2  C   UNL     1      -1.139  -0.832  -0.371  0.00  0.00    +0.069 A 
ATOM      3  C   UNL     1       0.002  -0.017   0.009  0.00  0.00    -0.023 A 
ATOM      4  C   UNL     1       1.110  -0.706   0.357  0.00  0.00    -0.004 A 
ATOM      5  S   UNL     1       0.657  -2.409   0.185  0.00  0.00    -0.077 S 
ATOM      6  C   UNL     1       2.427  -0.140   0.792  0.00  0.00    +0.046 C 
ATOM      7  C   UNL     1       2.223   1.340   1.146  0.00  0.00    -0.000 C 
ATOM      8  C   UNL     1       1.431   2.013   0.022  0.00  0.00    +0.009 C 
ATOM      9  C   UNL     1      -0.012   1.506   0.026  0.00  0.00    +0.037 C 
ENDROOT
BRANCH   1  12
ATOM     10  C   UNL     1      -1.573  -4.492  -0.566  0.00  0.00    +0.201 C 
ATOM     11  O   UNL     1      -0.457  -4.806  -0.211  0.00  0.00    -0.278 OA
ATOM     12  N   UNL     1      -1.911  -3.191  -0.655  0.00  0.00    -0.281 N 
ATOM     13  H   UNL     1      -2.804  -2.940  -0.940  0.00  0.00    +0.155 HD
BRANCH  10  14
ATOM     14  C   UNL     1      -2.582  -5.558  -0.908  0.00  0.00    +0.015 C 
BRANCH  14  15
ATOM     15  N   UNL     1      -1.964  -6.885  -0.729  0.00  0.00    +0.385 N 
ATOM     16  H   UNL     1      -1.149  -6.965  -1.348  0.00  0.00    -0.085 HD
ATOM     17  H   UNL     1      -1.664  -6.990   0.247  0.00  0.00    -0.085 HD
BRANCH  15  18
ATOM     18  C   UNL     1      -2.931  -7.949  -1.057  0.00  0.00    -0.079 C 
BRANCH  18  20
ATOM     19  C   UNL     1      -3.294 -10.421  -1.079  0.00  0.00    +0.005 C 
ATOM     20  C   UNL     1      -2.263  -9.312  -0.862  0.00  0.00    -0.034 C 
ATOM     21  C   UNL     1      -1.123  -9.470  -1.871  0.00  0.00    +0.005 C 
ENDBRANCH  18  20
ENDBRANCH  15  18
ENDBRANCH  14  15
ENDBRANCH  10  14
ENDBRANCH   1  12
BRANCH   7  22
ATOM     22  C   UNL     1       3.584   2.024   1.295  0.00  0.00    -0.035 C 
ATOM     23  C   UNL     1       4.355   1.918  -0.022  0.00  0.00    +0.011 C 
ATOM     24  C   UNL     1       3.378   3.498   1.648  0.00  0.00    +0.011 C 
ATOM     25  C   UNL     1       4.379   1.339   2.409  0.00  0.00    +0.011 C 
ENDBRANCH   7  22
BRANCH   2  26
ATOM     26  C   UNL     1      -2.410  -0.220  -0.773  0.00  0.00    +0.251 C 
ATOM     27  O   UNL     1      -2.613   0.048  -1.942  0.00  0.00    -0.270 OA
ATOM     28  N   UNL     1      -3.352   0.044   0.153  0.00  0.00    -0.281 N 
ATOM     29  H   UNL     1      -3.218  -0.230   1.074  0.00  0.00    +0.155 HD
BRANCH  28  30
ATOM     30  C   UNL     1      -4.526   0.716  -0.213  0.00  0.00    +0.034 A 
ATOM     31  C   UNL     1      -5.125   1.601   0.672  0.00  0.00    +0.027 A 
ATOM     32  C   UNL     1      -6.279   2.267   0.308  0.00  0.00    +0.047 A 
ATOM     33  C   UNL     1      -6.845   2.043  -0.939  0.00  0.00    +0.120 A 
ATOM     34  C   UNL     1      -6.249   1.155  -1.822  0.00  0.00    +0.047 A 
ATOM     35  C   UNL     1      -5.093   0.492  -1.461  0.00  0.00    +0.027 A 
BRANCH  33  36
ATOM     36  O   UNL     1      -7.984   2.694  -1.294  0.00  0.00    -0.495 OA
ATOM     37  C   UNL     1      -8.543   3.595  -0.336  0.00  0.00    +0.277 C 
ENDBRANCH  33  36
ENDBRANCH  28  30
ENDBRANCH   2  26
TORSDOF 9
