REMARK  Name = ZINC48869819
REMARK  6 active torsions:
REMARK  status: ('A' for Active; 'I' for Inactive)
REMARK    1  A    between atoms: C_3  and  C_11
REMARK    2  A    between atoms: C_5  and  S_7
REMARK    3  A    between atoms: S_7  and  N_10
REMARK    4  A    between atoms: C_11  and  N_12
REMARK    5  A    between atoms: N_15  and  C_16
REMARK    6  A    between atoms: C_16  and  C_17
REMARK                            x       y       z     vdW  Elec       q    Type
REMARK                         _______ _______ _______ _____ _____    ______ ____
ROOT
ATOM      1  N   UNL     1       4.105   2.425   1.356  0.00  0.00    -0.295 N 
ATOM      2  C   UNL     1       5.246   3.102   1.594  0.00  0.00    +0.300 C 
ATOM      3  O   UNL     1       5.916   3.511   0.665  0.00  0.00    -0.253 OA
ATOM      4  N   UNL     1       5.645   3.326   2.862  0.00  0.00    -0.295 N 
ATOM      5  H   UNL     1       3.571   2.099   2.097  0.00  0.00    +0.151 HD
ATOM      6  H   UNL     1       5.110   3.000   3.603  0.00  0.00    +0.151 HD
ENDROOT
BRANCH   1   7
ATOM      7  C   UNL     1       3.672   2.182  -0.022  0.00  0.00    +0.141 C 
BRANCH   7  10
ATOM      8  C   UNL     1      -0.017   1.378   0.010  0.00  0.00    +0.002 A 
ATOM      9  C   UNL     1       1.171   2.085   0.002  0.00  0.00    +0.005 A 
ATOM     10  C   UNL     1       2.377   1.411  -0.013  0.00  0.00    -0.028 A 
ATOM     11  C   UNL     1       2.396   0.028  -0.020  0.00  0.00    +0.033 A 
ATOM     12  C   UNL     1       1.209  -0.679  -0.012  0.00  0.00    +0.105 A 
ATOM     13  C   UNL     1       0.002  -0.004   0.002  0.00  0.00    +0.028 A 
BRANCH  12  14
ATOM     14  S   UNL     1       1.232  -2.441  -0.022  0.00  0.00    +0.056 S 
ATOM     15  O   UNL     1      -0.013  -2.861  -0.562  0.00  0.00    -0.153 OA
ATOM     16  O   UNL     1       2.477  -2.827  -0.588  0.00  0.00    -0.153 OA
BRANCH  14  17
ATOM     17  N   UNL     1       1.256  -2.939   1.557  0.00  0.00    -0.204 NA
ATOM     18  H   UNL     1       0.850  -3.785   1.805  0.00  0.00    +0.144 HD
ATOM     19  H   UNL     1       1.675  -2.386   2.234  0.00  0.00    +0.144 HD
ENDBRANCH  14  17
ENDBRANCH  12  14
ENDBRANCH   7  10
ENDBRANCH   1   7
BRANCH   4  20
ATOM     20  C   UNL     1       6.885   4.062   3.121  0.00  0.00    +0.142 C 
BRANCH  20  21
ATOM     21  C   UNL     1       7.101   4.175   4.608  0.00  0.00    -0.014 A 
ATOM     22  C   UNL     1       6.583   5.255   5.312  0.00  0.00    +0.010 A 
ATOM     23  C   UNL     1       6.804   5.320   6.676  0.00  0.00    +0.042 A 
ATOM     24  C   UNL     1       7.533   4.309   7.293  0.00  0.00    +0.099 A 
ATOM     25  N   UNL     1       8.010   3.295   6.586  0.00  0.00    -0.349 N 
ATOM     26  C   UNL     1       7.810   3.204   5.285  0.00  0.00    +0.089 A 
ATOM     27  N   UNL     1       7.763   4.362   8.662  0.00  0.00    -0.317 N 
ATOM     28  C   UNL     1       7.291   5.418   9.570  0.00  0.00    +0.106 C 
ATOM     29  C   UNL     1       7.806   5.072  10.983  0.00  0.00    +0.020 C 
ATOM     30  C   UNL     1       9.013   4.142  10.695  0.00  0.00    +0.020 C 
ATOM     31  C   UNL     1       8.515   3.366   9.447  0.00  0.00    +0.106 C 
ATOM     32  H   UNL     1       8.516   2.601   7.037  0.00  0.00    +0.167 HD
ENDBRANCH  20  21
ENDBRANCH   4  20
TORSDOF 6
