REMARK  Name = ZINC67518276
REMARK  5 active torsions:
REMARK  status: ('A' for Active; 'I' for Inactive)
REMARK    1  A    between atoms: C_1  and  C_2
REMARK    2  A    between atoms: C_15  and  C_17
REMARK    3  A    between atoms: C_17  and  N_25
REMARK    4  A    between atoms: C_18  and  C_19
REMARK    5  A    between atoms: C_26  and  C_28
REMARK                            x       y       z     vdW  Elec       q    Type
REMARK                         _______ _______ _______ _____ _____    ______ ____
ROOT
ATOM      1  C   UNL     1       0.041   1.914  -1.171  0.00  0.00    +0.007 C 
ATOM      2  C   UNL     1      -0.035   0.410  -0.899  0.00  0.00    -0.014 C 
ATOM      3  C   UNL     1       0.837  -0.334  -1.911  0.00  0.00    +0.005 C 
ATOM      4  C   UNL     1       2.295   0.111  -1.769  0.00  0.00    +0.023 C 
ATOM      5  C   UNL     1       2.773  -0.194  -0.350  0.00  0.00    +0.079 C 
ATOM      6  C   UNL     1       1.911   0.587   0.647  0.00  0.00    +0.010 C 
ATOM      7  C   UNL     1       0.462   0.125   0.522  0.00  0.00    +0.008 C 
ATOM      8  C   UNL     1       2.431   0.337   2.062  0.00  0.00    +0.007 C 
ATOM      9  C   UNL     1       3.869   0.852   2.168  0.00  0.00    +0.019 C 
ATOM     10  C   UNL     1       4.760   0.104   1.172  0.00  0.00    +0.108 C 
ATOM     11  N   UNL     1       4.172   0.211  -0.179  0.00  0.00    -0.293 N 
ATOM     12  C   UNL     1       4.895   0.660  -1.223  0.00  0.00    +0.261 C 
ATOM     13  O   UNL     1       4.421   0.644  -2.344  0.00  0.00    -0.269 OA
ENDROOT
BRANCH  12  14
ATOM     14  C   UNL     1       6.258   1.170  -1.009  0.00  0.00    +0.097 C 
ATOM     15  C   UNL     1       7.271   0.309  -0.764  0.00  0.00    +0.036 C 
BRANCH  15  16
ATOM     16  C   UNL     1       7.046  -1.141  -0.865  0.00  0.00    -0.023 A 
ATOM     17  C   UNL     1       6.132  -1.647  -1.795  0.00  0.00    +0.008 A 
ATOM     18  C   UNL     1       5.926  -3.007  -1.884  0.00  0.00    +0.001 A 
ATOM     19  C   UNL     1       6.621  -3.872  -1.056  0.00  0.00    +0.000 A 
ATOM     20  C   UNL     1       7.527  -3.379  -0.133  0.00  0.00    +0.001 A 
ATOM     21  C   UNL     1       7.748  -2.021  -0.035  0.00  0.00    +0.008 A 
ENDBRANCH  15  16
BRANCH  14  22
ATOM     22  N   UNL     1       6.505   2.546  -1.058  0.00  0.00    -0.282 N 
ATOM     23  C   UNL     1       5.497   3.403  -1.315  0.00  0.00    +0.214 C 
ATOM     24  O   UNL     1       4.360   2.991  -1.413  0.00  0.00    -0.276 OA
ATOM     25  C   UNL     1       5.782   4.874  -1.480  0.00  0.00    +0.109 C 
ATOM     26  H   UNL     1       7.402   2.884  -0.908  0.00  0.00    +0.155 HD
ENDBRANCH  14  22
ENDBRANCH  12  14
TORSDOF 3
