REMARK  Name = ZINC64155873
REMARK  6 active torsions:
REMARK  status: ('A' for Active; 'I' for Inactive)
REMARK    1  A    between atoms: N_11  and  C_17
REMARK    2  A    between atoms: C_13  and  O_16
REMARK    3  A    between atoms: C_17  and  C_18
REMARK    4  A    between atoms: N_20  and  C_21
REMARK    5  A    between atoms: C_21  and  C_22
REMARK    6  A    between atoms: C_22  and  C_23
REMARK                            x       y       z     vdW  Elec       q    Type
REMARK                         _______ _______ _______ _____ _____    ______ ____
ROOT
ATOM      1  C   UNL     1       4.769   1.073  -1.831  0.00  0.00    +0.200 C 
ENDROOT
BRANCH   1  12
ATOM      2  C   UNL     1       9.589  -0.608  -2.383  0.00  0.00    +0.001 A 
ATOM      3  C   UNL     1       8.397  -0.516  -3.098  0.00  0.00    +0.001 A 
ATOM      4  C   UNL     1       7.192  -0.578  -2.465  0.00  0.00    +0.010 A 
ATOM      5  C   UNL     1       7.132  -0.681  -1.069  0.00  0.00    +0.003 A 
ATOM      6  C   UNL     1       8.345  -0.912  -0.364  0.00  0.00    -0.016 A 
ATOM      7  C   UNL     1       9.573  -0.805  -1.037  0.00  0.00    +0.008 A 
ATOM      8  C   UNL     1       8.292  -1.278   0.991  0.00  0.00    +0.009 A 
ATOM      9  C   UNL     1       7.096  -1.333   1.631  0.00  0.00    +0.006 A 
ATOM     10  C   UNL     1       5.908  -0.972   0.987  0.00  0.00    -0.023 A 
ATOM     11  C   UNL     1       5.935  -0.573  -0.335  0.00  0.00    +0.041 A 
ATOM     12  N   UNL     1       4.771  -0.035  -0.879  0.00  0.00    -0.318 N 
ATOM     13  C   UNL     1       3.492  -0.590  -0.398  0.00  0.00    +0.137 C 
ATOM     14  C   UNL     1       3.466  -0.342   1.117  0.00  0.00    +0.136 C 
ATOM     15  C   UNL     1       4.630  -1.070   1.776  0.00  0.00    +0.070 C 
BRANCH  14  16
ATOM     16  O   UNL     1       2.231  -0.823   1.655  0.00  0.00    -0.390 OA
ATOM     17  H   UNL     1       2.143  -0.700   2.610  0.00  0.00    +0.210 HD
ENDBRANCH  14  16
ENDBRANCH   1  12
BRANCH   1  18
ATOM     18  C   UNL     1       4.581   2.371  -1.089  0.00  0.00    +0.230 C 
ATOM     19  O   UNL     1       4.564   2.380   0.124  0.00  0.00    -0.274 OA
ATOM     20  N   UNL     1       4.431   3.523  -1.773  0.00  0.00    -0.314 N 
ATOM     21  H   UNL     1       4.443   3.516  -2.743  0.00  0.00    +0.149 HD
BRANCH  20  22
ATOM     22  C   UNL     1       4.248   4.785  -1.052  0.00  0.00    +0.108 C 
BRANCH  22  23
ATOM     23  C   UNL     1       4.102   5.930  -2.057  0.00  0.00    +0.052 C 
BRANCH  23  24
ATOM     24  C   UNL     1       3.914   7.228  -1.315  0.00  0.00    -0.040 C 
ATOM     25  C   UNL     1       4.873   8.124  -0.989  0.00  0.00    -0.001 A 
ATOM     26  C   UNL     1       6.323   8.157  -1.216  0.00  0.00    +0.010 A 
ATOM     27  C   UNL     1       7.035   9.212  -0.760  0.00  0.00    +0.001 A 
ATOM     28  C   UNL     1       6.425  10.273  -0.077  0.00  0.00    +0.002 A 
ATOM     29  C   UNL     1       5.098  10.314   0.171  0.00  0.00    +0.026 A 
ATOM     30  C   UNL     1       4.253   9.257  -0.265  0.00  0.00    +0.043 A 
ATOM     31  N   UNL     1       2.961   9.068  -0.148  0.00  0.00    -0.380 N 
ATOM     32  C   UNL     1       2.614   7.796  -0.791  0.00  0.00    +0.144 C 
ATOM     33  H   UNL     1       2.338   9.671   0.287  0.00  0.00    +0.160 HD
ENDBRANCH  23  24
ENDBRANCH  22  23
ENDBRANCH  20  22
ENDBRANCH   1  18
TORSDOF 6
