REMARK  Name = ZINC67298509
REMARK  8 active torsions:
REMARK  status: ('A' for Active; 'I' for Inactive)
REMARK    1  A    between atoms: C_1  and  C_2
REMARK    2  A    between atoms: C_2  and  C_3
REMARK    3  A    between atoms: C_2  and  C_4
REMARK    4  A    between atoms: C_7  and  N_10
REMARK    5  A    between atoms: C_12  and  C_22
REMARK    6  A    between atoms: C_17  and  O_21
REMARK    7  A    between atoms: N_24  and  C_25
REMARK    8  A    between atoms: C_25  and  C_26
REMARK                            x       y       z     vdW  Elec       q    Type
REMARK                         _______ _______ _______ _____ _____    ______ ____
ROOT
ATOM      1  N   UNL     1       2.739  -1.867   4.576  0.00  0.00    -0.325 N 
ATOM      2  C   UNL     1       2.151  -1.828   5.753  0.00  0.00    +0.212 A 
ATOM      3  C   UNL     1       2.796  -2.407   6.947  0.00  0.00    +0.097 A 
ATOM      4  C   UNL     1       2.431  -1.891   8.183  0.00  0.00    +0.030 A 
ATOM      5  C   UNL     1       1.446  -0.871   8.218  0.00  0.00    +0.018 A 
ATOM      6  C   UNL     1       1.185  -0.177   9.409  0.00  0.00    +0.015 A 
ATOM      7  C   UNL     1       0.266   0.830   9.422  0.00  0.00    +0.046 A 
ATOM      8  C   UNL     1      -0.425   1.171   8.260  0.00  0.00    +0.120 A 
ATOM      9  C   UNL     1      -0.195   0.483   7.078  0.00  0.00    +0.092 A 
ATOM     10  C   UNL     1       0.730  -0.547   7.050  0.00  0.00    +0.141 A 
ATOM     11  O   UNL     1       0.934  -1.249   5.911  0.00  0.00    -0.438 OA
ATOM     12  H   UNL     1       3.644  -2.205   4.497  0.00  0.00    +0.169 HD
ENDROOT
BRANCH   1  16
ATOM     13  C   UNL     1       0.723  -0.548   1.212  0.00  0.00    -0.045 A 
ATOM     14  C   UNL     1       2.038  -0.170   1.420  0.00  0.00    +0.006 A 
ATOM     15  C   UNL     1       2.716  -0.606   2.539  0.00  0.00    +0.026 A 
ATOM     16  C   UNL     1       2.072  -1.431   3.464  0.00  0.00    +0.042 A 
ATOM     17  C   UNL     1       0.745  -1.809   3.249  0.00  0.00    +0.026 A 
ATOM     18  C   UNL     1       0.077  -1.361   2.128  0.00  0.00    +0.006 A 
BRANCH  13  20
ATOM     19  C   UNL     1      -0.055   1.462  -0.014  0.00  0.00    +0.012 C 
ATOM     20  C   UNL     1      -0.012  -0.068  -0.012  0.00  0.00    +0.013 C 
ATOM     21  C   UNL     1       0.713  -0.559  -1.267  0.00  0.00    +0.012 C 
ENDBRANCH  13  20
ENDBRANCH   1  16
BRANCH   3  22
ATOM     22  C   UNL     1       3.787  -3.489   6.833  0.00  0.00    +0.249 C 
ATOM     23  O   UNL     1       4.155  -3.864   5.736  0.00  0.00    -0.270 OA
ATOM     24  N   UNL     1       4.287  -4.065   7.945  0.00  0.00    -0.309 N 
ATOM     25  H   UNL     1       3.941  -3.818   8.816  0.00  0.00    +0.149 HD
BRANCH  24  26
ATOM     26  C   UNL     1       5.355  -5.063   7.836  0.00  0.00    +0.136 C 
BRANCH  26  27
ATOM     27  C   UNL     1       5.738  -5.554   9.233  0.00  0.00    +0.135 C 
ATOM     28  C   UNL     1       6.890  -6.586   9.143  0.00  0.00    +0.035 C 
ATOM     29  C   UNL     1       7.523  -6.445  10.554  0.00  0.00    +0.031 C 
ATOM     30  C   UNL     1       7.326  -4.943  10.853  0.00  0.00    +0.160 C 
ATOM     31  O   UNL     1       6.262  -4.470  10.016  0.00  0.00    -0.375 OA
ENDBRANCH  26  27
ENDBRANCH  24  26
ENDBRANCH   3  22
BRANCH   8  32
ATOM     32  O   UNL     1      -1.328   2.184   8.286  0.00  0.00    -0.507 OA
ATOM     33  H   UNL     1      -0.952   3.051   8.083  0.00  0.00    +0.292 HD
ENDBRANCH   8  32
TORSDOF 6
