REMARK  Name = ZINC33880278
REMARK  13 active torsions:
REMARK  status: ('A' for Active; 'I' for Inactive)
REMARK    1  A    between atoms: C_1  and  C_2
REMARK    2  A    between atoms: C_2  and  O_3
REMARK    3  A    between atoms: O_3  and  C_4
REMARK    4  A    between atoms: C_4  and  C_6
REMARK    5  A    between atoms: C_6  and  C_8
REMARK    6  A    between atoms: C_6  and  N_19
REMARK    7  A    between atoms: C_8  and  C_9
REMARK    8  A    between atoms: C_20  and  C_22
REMARK    9  A    between atoms: C_25  and  C_27
REMARK   10  A    between atoms: C_27  and  C_29
REMARK   11  A    between atoms: C_27  and  N_37
REMARK   12  A    between atoms: C_29  and  C_30
REMARK   13  A    between atoms: C_33  and  O_36
REMARK                            x       y       z     vdW  Elec       q    Type
REMARK                         _______ _______ _______ _____ _____    ______ ____
ROOT
ATOM      1  N   UNL     1      -2.784  -3.888   0.008  0.00  0.00    -0.297 N 
ATOM      2  C   UNL     1      -2.650  -4.548  -1.160  0.00  0.00    +0.266 C 
ATOM      3  O   UNL     1      -2.608  -3.929  -2.206  0.00  0.00    -0.268 OA
ATOM      4  H   UNL     1      -2.817  -4.382   0.842  0.00  0.00    +0.150 HD
ENDROOT
BRANCH   2   5
ATOM      5  C   UNL     1      -2.553  -6.019  -1.169  0.00  0.00    +0.163 A 
ATOM      6  C   UNL     1      -2.409  -6.813  -2.264  0.00  0.00    +0.230 A 
ATOM      7  O   UNL     1      -2.361  -8.081  -1.825  0.00  0.00    -0.449 OA
ATOM      8  C   UNL     1      -2.474  -8.066  -0.490  0.00  0.00    +0.182 A 
ATOM      9  N   UNL     1      -2.584  -6.838  -0.082  0.00  0.00    -0.210 NA
BRANCH   8  10
ATOM     10  C   UNL     1      -2.469  -9.283   0.400  0.00  0.00    +0.017 C 
BRANCH  10  11
ATOM     11  N   UNL     1      -3.337 -10.317  -0.180  0.00  0.00    +0.386 N 
ATOM     12  H   UNL     1      -3.334 -11.131   0.416  0.00  0.00    -0.089 HD
ATOM     13  H   UNL     1      -4.278  -9.961  -0.257  0.00  0.00    -0.089 HD
ATOM     14  H   UNL     1      -2.996 -10.568  -1.096  0.00  0.00    -0.089 HD
ENDBRANCH  10  11
BRANCH  10  15
ATOM     15  C   UNL     1      -1.042  -9.823   0.517  0.00  0.00    +0.028 C 
BRANCH  15  16
ATOM     16  C   UNL     1      -1.016 -10.963   1.502  0.00  0.00    -0.048 A 
ATOM     17  C   UNL     1      -0.790 -10.713   2.842  0.00  0.00    +0.007 A 
ATOM     18  C   UNL     1      -0.765 -11.756   3.747  0.00  0.00    +0.045 A 
ATOM     19  C   UNL     1      -0.967 -13.057   3.309  0.00  0.00    +0.117 A 
ATOM     20  C   UNL     1      -1.194 -13.306   1.963  0.00  0.00    +0.045 A 
ATOM     21  C   UNL     1      -1.223 -12.258   1.063  0.00  0.00    +0.007 A 
BRANCH  19  22
ATOM     22  O   UNL     1      -0.943 -14.086   4.197  0.00  0.00    -0.507 OA
ATOM     23  H   UNL     1      -1.804 -14.292   4.584  0.00  0.00    +0.292 HD
ENDBRANCH  19  22
ENDBRANCH  15  16
ENDBRANCH  10  15
ENDBRANCH   8  10
ENDBRANCH   2   5
BRANCH   1  24
ATOM     24  C   UNL     1      -2.881  -2.427   0.017  0.00  0.00    +0.186 C 
BRANCH  24  25
ATOM     25  C   UNL     1      -1.496  -1.832   0.006  0.00  0.00    +0.328 C 
ATOM     26  O   UNL     1      -0.528  -2.555  -0.007  0.00  0.00    -0.249 OA
BRANCH  25  27
ATOM     27  O   UNL     1      -1.339  -0.499   0.012  0.00  0.00    -0.464 OA
BRANCH  27  29
ATOM     28  C   UNL     1      -0.019   1.526   0.010  0.00  0.00    +0.048 C 
ATOM     29  C   UNL     1       0.002  -0.004   0.002  0.00  0.00    +0.229 C 
ENDBRANCH  27  29
ENDBRANCH  25  27
ENDBRANCH  24  25
BRANCH  24  30
ATOM     30  C   UNL     1      -3.622  -1.972   1.275  0.00  0.00    +0.071 C 
BRANCH  30  31
ATOM     31  C   UNL     1      -5.045  -2.465   1.226  0.00  0.00    -0.020 A 
ATOM     32  C   UNL     1      -6.111  -1.784   0.777  0.00  0.00    +0.087 A 
ATOM     33  N   UNL     1      -7.237  -2.554   0.887  0.00  0.00    -0.360 N 
ATOM     34  H   UNL     1      -8.129  -2.277   0.626  0.00  0.00    +0.165 HD
ATOM     35  C   UNL     1      -6.915  -3.780   1.423  0.00  0.00    +0.047 A 
ATOM     36  C   UNL     1      -5.527  -3.781   1.653  0.00  0.00    +0.003 A 
ATOM     37  C   UNL     1      -4.911  -4.911   2.194  0.00  0.00    +0.010 A 
ATOM     38  C   UNL     1      -5.660  -6.014   2.494  0.00  0.00    +0.001 A 
ATOM     39  C   UNL     1      -7.029  -6.020   2.265  0.00  0.00    +0.002 A 
ATOM     40  C   UNL     1      -7.659  -4.912   1.741  0.00  0.00    +0.026 A 
ENDBRANCH  30  31
ENDBRANCH  24  30
ENDBRANCH   1  24
TORSDOF 12
