REMARK  Name = ZINC39253054
REMARK  6 active torsions:
REMARK  status: ('A' for Active; 'I' for Inactive)
REMARK    1  A    between atoms: C_1  and  C_2
REMARK    2  A    between atoms: C_2  and  C_3
REMARK    3  A    between atoms: C_3  and  C_4
REMARK    4  A    between atoms: C_5  and  C_21
REMARK    5  A    between atoms: N_8  and  C_11
REMARK    6  A    between atoms: N_22  and  C_23
REMARK                            x       y       z     vdW  Elec       q    Type
REMARK                         _______ _______ _______ _____ _____    ______ ____
ROOT
ATOM      1  C   UNL     1      -0.506  -2.648  -0.269  0.00  0.00    +0.047 A 
ATOM      2  C   UNL     1      -0.412  -2.834  -1.633  0.00  0.00    +0.077 A 
ATOM      3  C   UNL     1       0.844  -3.564  -1.870  0.00  0.00    +0.278 A 
ATOM      4  O   UNL     1       1.288  -3.918  -2.947  0.00  0.00    -0.265 OA
ATOM      5  N   UNL     1       1.407  -3.763  -0.660  0.00  0.00    -0.220 N 
ATOM      6  N   UNL     1       0.581  -3.196   0.314  0.00  0.00    -0.296 N 
ATOM      7  H   UNL     1       0.760  -3.197   1.267  0.00  0.00    +0.187 HD
ENDROOT
BRANCH   5   8
ATOM      8  C   UNL     1       2.676  -4.452  -0.410  0.00  0.00    +0.257 C 
ATOM      9  N   UNL     1       2.656  -5.813  -0.964  0.00  0.00    -0.313 N 
ATOM     10  C   UNL     1       3.581  -6.116  -1.962  0.00  0.00    +0.043 A 
ATOM     11  C   UNL     1       3.711  -7.359  -2.607  0.00  0.00    +0.024 A 
ATOM     12  C   UNL     1       4.659  -7.559  -3.583  0.00  0.00    +0.002 A 
ATOM     13  C   UNL     1       5.517  -6.544  -3.965  0.00  0.00    +0.001 A 
ATOM     14  C   UNL     1       5.412  -5.309  -3.346  0.00  0.00    +0.016 A 
ATOM     15  C   UNL     1       4.463  -5.110  -2.369  0.00  0.00    +0.032 A 
ATOM     16  S   UNL     1       4.042  -3.694  -1.377  0.00  0.00    -0.078 S 
ATOM     17  H   UNL     1       2.023  -6.476  -0.647  0.00  0.00    +0.149 HD
ENDBRANCH   5   8
BRANCH   2  18
ATOM     18  C   UNL     1      -1.375  -2.391  -2.648  0.00  0.00    +0.093 C 
ATOM     19  N   UNL     1      -2.045  -3.267  -3.332  0.00  0.00    -0.387 N 
ATOM     20  H   UNL     1      -2.728  -2.975  -3.956  0.00  0.00    +0.159 HD
BRANCH  19  21
ATOM     21  C   UNL     1      -1.769  -4.696  -3.163  0.00  0.00    +0.079 C 
ATOM     22  C   UNL     1      -1.295  -5.285  -4.493  0.00  0.00    +0.024 C 
ATOM     23  C   UNL     1      -1.007  -6.777  -4.317  0.00  0.00    +0.002 C 
ATOM     24  C   UNL     1      -2.282  -7.493  -3.867  0.00  0.00    +0.000 C 
ATOM     25  C   UNL     1      -2.755  -6.904  -2.536  0.00  0.00    +0.002 C 
ATOM     26  C   UNL     1      -3.044  -5.412  -2.713  0.00  0.00    +0.024 C 
ENDBRANCH  19  21
ENDBRANCH   2  18
BRANCH   1  27
ATOM     27  C   UNL     1      -1.629  -1.945   0.448  0.00  0.00    +0.055 C 
BRANCH  27  29
ATOM     28  C   UNL     1      -3.793  -2.264   1.657  0.00  0.00    +0.004 C 
ATOM     29  C   UNL     1      -2.652  -2.977   0.929  0.00  0.00    +0.003 C 
ENDBRANCH  27  29
ENDBRANCH   1  27
TORSDOF 5
