REMARK  Name = ZINC64044223
REMARK  8 active torsions:
REMARK  status: ('A' for Active; 'I' for Inactive)
REMARK    1  A    between atoms: C_1  and  C_2
REMARK    2  A    between atoms: C_4  and  C_13
REMARK    3  A    between atoms: C_13  and  C_14
REMARK    4  A    between atoms: N_16  and  C_17
REMARK    5  A    between atoms: C_17  and  C_19
REMARK    6  A    between atoms: C_17  and  C_20
REMARK    7  A    between atoms: N_23  and  C_27
REMARK    8  A    between atoms: C_24  and  C_26
REMARK                            x       y       z     vdW  Elec       q    Type
REMARK                         _______ _______ _______ _____ _____    ______ ____
ROOT
ATOM      1  C   UNL     1      -3.664  -1.075  -0.651  0.00  0.00    +0.218 C 
ATOM      2  O   UNL     1      -3.692  -1.646   0.418  0.00  0.00    -0.275 OA
ATOM      3  N   UNL     1      -4.715  -1.162  -1.490  0.00  0.00    -0.309 N 
ATOM      4  H   UNL     1      -4.692  -0.705  -2.345  0.00  0.00    +0.149 HD
ENDROOT
BRANCH   3   5
ATOM      5  C   UNL     1      -5.892  -1.947  -1.110  0.00  0.00    +0.099 C 
ATOM      6  C   UNL     1      -6.846  -1.073  -0.294  0.00  0.00    +0.033 C 
BRANCH   5   7
ATOM      7  C   UNL     1      -6.593  -2.434  -2.352  0.00  0.00    -0.013 C 
ATOM      8  C   UNL     1      -7.859  -2.239  -2.657  0.00  0.00    +0.091 C 
ATOM      9  N   UNL     1      -8.190  -2.814  -3.869  0.00  0.00    -0.271 N 
ATOM     10  N   UNL     1      -7.072  -3.446  -4.431  0.00  0.00    -0.247 N 
ATOM     11  C   UNL     1      -5.970  -3.228  -3.478  0.00  0.00    +0.120 C 
ATOM     12  C   UNL     1      -5.445  -4.568  -2.958  0.00  0.00    +0.035 C 
ATOM     13  H   UNL     1      -9.072  -2.785  -4.273  0.00  0.00    +0.169 HD
BRANCH  10  14
ATOM     14  C   UNL     1      -7.013  -4.134  -5.644  0.00  0.00    +0.051 A 
ATOM     15  C   UNL     1      -5.820  -4.714  -6.059  0.00  0.00    +0.025 A 
ATOM     16  C   UNL     1      -5.764  -5.394  -7.259  0.00  0.00    +0.005 A 
ATOM     17  C   UNL     1      -6.894  -5.500  -8.050  0.00  0.00    +0.038 A 
ATOM     18  C   UNL     1      -8.085  -4.924  -7.641  0.00  0.00    +0.125 A 
ATOM     19  C   UNL     1      -8.148  -4.246  -6.436  0.00  0.00    +0.063 A 
ATOM     20  F   UNL     1      -9.187  -5.029  -8.415  0.00  0.00    -0.205 F 
ENDBRANCH  10  14
ENDBRANCH   5   7
ENDBRANCH   3   5
BRANCH   1  21
ATOM     21  C   UNL     1      -2.453  -0.267  -1.042  0.00  0.00    +0.129 C 
BRANCH  21  24
ATOM     22  C   UNL     1       0.525  -1.538  -1.180  0.00  0.00    +0.035 C 
ATOM     23  C   UNL     1      -0.351  -1.547   0.074  0.00  0.00    +0.104 C 
ATOM     24  C   UNL     1      -1.377  -0.438   0.000  0.00  0.00    -0.030 C 
ATOM     25  C   UNL     1      -1.134   0.369   1.057  0.00  0.00    +0.002 A 
ATOM     26  C   UNL     1      -1.771   1.601   1.538  0.00  0.00    +0.010 A 
ATOM     27  C   UNL     1      -1.300   2.203   2.651  0.00  0.00    +0.004 A 
ATOM     28  C   UNL     1      -0.214   1.697   3.378  0.00  0.00    +0.040 A 
ATOM     29  C   UNL     1       0.441   0.570   3.018  0.00  0.00    +0.147 A 
ATOM     30  C   UNL     1       0.014  -0.169   1.823  0.00  0.00    +0.079 A 
ATOM     31  N   UNL     1       0.462  -1.265   1.262  0.00  0.00    -0.376 N 
ATOM     32  F   UNL     1       1.482   0.125   3.755  0.00  0.00    -0.203 F 
ATOM     33  H   UNL     1       1.207  -1.801   1.579  0.00  0.00    +0.160 HD
ENDBRANCH  21  24
ENDBRANCH   1  21
TORSDOF 5
