REMARK  Name = ZINC39442911
REMARK  13 active torsions:
REMARK  status: ('A' for Active; 'I' for Inactive)
REMARK    1  A    between atoms: C_1  and  C_2
REMARK    2  A    between atoms: C_4  and  C_21
REMARK    3  A    between atoms: C_7  and  C_10
REMARK    4  A    between atoms: C_15  and  N_16
REMARK    5  A    between atoms: N_16  and  S_17
REMARK    6  A    between atoms: S_17  and  C_20
REMARK    7  A    between atoms: C_21  and  N_22
REMARK    8  A    between atoms: N_22  and  C_23
REMARK    9  A    between atoms: N_22  and  C_24
REMARK   10  A    between atoms: C_24  and  C_26
REMARK   11  A    between atoms: C_24  and  C_27
REMARK   12  A    between atoms: C_27  and  C_28
REMARK   13  A    between atoms: C_28  and  C_29
REMARK                            x       y       z     vdW  Elec       q    Type
REMARK                         _______ _______ _______ _____ _____    ______ ____
ROOT
ATOM      1  C   UNL     1       0.323   1.290   0.520  0.00  0.00    +0.039 C 
ATOM      2  C   UNL     1      -0.059  -0.186   0.404  0.00  0.00    +0.133 C 
ATOM      3  C   UNL     1      -1.546  -0.322   0.020  0.00  0.00    +0.068 C 
ATOM      4  N   UNL     1      -2.155  -1.084   1.139  0.00  0.00    -0.284 NA
ATOM      5  C   UNL     1      -1.000  -1.794   1.747  0.00  0.00    +0.220 C 
ATOM      6  O   UNL     1       0.081  -0.838   1.681  0.00  0.00    -0.353 OA
ATOM      7  H   UNL     1      -2.588  -0.462   1.806  0.00  0.00    +0.125 HD
ENDROOT
BRANCH   5   8
ATOM      8  C   UNL     1      -1.299  -2.159   3.178  0.00  0.00    +0.018 A 
ATOM      9  C   UNL     1      -2.369  -1.579   3.830  0.00  0.00    +0.009 A 
ATOM     10  C   UNL     1      -2.644  -1.913   5.144  0.00  0.00    +0.001 A 
ATOM     11  C   UNL     1      -1.849  -2.829   5.809  0.00  0.00    +0.002 A 
ATOM     12  C   UNL     1      -0.777  -3.413   5.162  0.00  0.00    +0.025 A 
ATOM     13  C   UNL     1      -0.502  -3.083   3.841  0.00  0.00    +0.055 A 
BRANCH  13  14
ATOM     14  N   UNL     1       0.578  -3.676   3.182  0.00  0.00    -0.220 N 
ATOM     15  H   UNL     1       1.060  -3.183   2.500  0.00  0.00    +0.173 HD
BRANCH  14  16
ATOM     16  S   UNL     1       1.036  -5.221   3.567  0.00  0.00    +0.040 S 
ATOM     17  O   UNL     1       2.085  -5.525   2.657  0.00  0.00    -0.155 OA
ATOM     18  O   UNL     1       1.277  -5.190   4.966  0.00  0.00    -0.155 OA
ATOM     19  C   UNL     1      -0.419  -6.241   3.205  0.00  0.00    +0.218 C 
ENDBRANCH  14  16
ENDBRANCH  13  14
ENDBRANCH   5   8
BRANCH   3  20
ATOM     20  C   UNL     1      -2.193   1.059  -0.103  0.00  0.00    -0.057 C 
BRANCH  20  21
ATOM     21  N   UNL     1      -3.630   0.905  -0.367  0.00  0.00    +0.381 N 
ATOM     22  C   UNL     1      -4.272   2.226  -0.369  0.00  0.00    -0.096 C 
ATOM     23  H   UNL     1      -4.044   0.330   0.352  0.00  0.00    -0.082 HD
BRANCH  21  24
ATOM     24  C   UNL     1      -3.821   0.265  -1.676  0.00  0.00    -0.072 C 
ATOM     25  C   UNL     1      -5.308  -0.024  -1.890  0.00  0.00    -0.013 C 
BRANCH  24  26
ATOM     26  C   UNL     1      -3.320   1.200  -2.778  0.00  0.00    -0.011 C 
BRANCH  26  27
ATOM     27  C   UNL     1      -3.389   0.481  -4.127  0.00  0.00    +0.036 C 
BRANCH  27  28
ATOM     28  C   UNL     1      -2.780   1.355  -5.194  0.00  0.00    -0.022 A 
ATOM     29  C   UNL     1      -1.359   1.450  -5.537  0.00  0.00    +0.003 A 
ATOM     30  C   UNL     1      -0.202   0.837  -5.054  0.00  0.00    +0.010 A 
ATOM     31  C   UNL     1       1.010   1.149  -5.603  0.00  0.00    +0.001 A 
ATOM     32  C   UNL     1       1.100   2.072  -6.636  0.00  0.00    +0.002 A 
ATOM     33  C   UNL     1      -0.030   2.689  -7.127  0.00  0.00    +0.026 A 
ATOM     34  C   UNL     1      -1.274   2.386  -6.584  0.00  0.00    +0.047 A 
ATOM     35  N   UNL     1      -2.554   2.818  -6.847  0.00  0.00    -0.360 N 
ATOM     36  C   UNL     1      -3.438   2.190  -6.013  0.00  0.00    +0.087 A 
ATOM     37  H   UNL     1      -2.794   3.469  -7.525  0.00  0.00    +0.165 HD
ENDBRANCH  27  28
ENDBRANCH  26  27
ENDBRANCH  24  26
ENDBRANCH  21  24
ENDBRANCH  20  21
ENDBRANCH   3  20
TORSDOF 9
