REMARK  Name = ZINC39371637
REMARK  6 active torsions:
REMARK  status: ('A' for Active; 'I' for Inactive)
REMARK    1  A    between atoms: C_3  and  C_6
REMARK    2  A    between atoms: N_8  and  C_9
REMARK    3  A    between atoms: C_9  and  C_10
REMARK    4  A    between atoms: N_18  and  C_21
REMARK    5  A    between atoms: C_21  and  C_22
REMARK    6  A    between atoms: C_27  and  C_28
REMARK                            x       y       z     vdW  Elec       q    Type
REMARK                         _______ _______ _______ _____ _____    ______ ____
ROOT
ATOM      1  C   UNL     1       6.292  -2.587   0.333  0.00  0.00    +0.136 C 
ATOM      2  C   UNL     1       7.838  -2.702   0.361  0.00  0.00    +0.036 C 
ATOM      3  C   UNL     1       8.081  -4.002  -0.445  0.00  0.00    +0.037 C 
ATOM      4  C   UNL     1       6.794  -4.177  -1.270  0.00  0.00    +0.067 C 
ATOM      5  O   UNL     1       5.938  -3.059  -0.985  0.00  0.00    -0.369 OA
ATOM      6  C   UNL     1       7.135  -4.208  -2.760  0.00  0.00    +0.016 C 
ATOM      7  C   UNL     1       5.857  -4.458  -3.564  0.00  0.00    -0.076 C 
ATOM      8  N   UNL     1       5.263  -5.738  -3.159  0.00  0.00    +0.380 N 
ATOM      9  C   UNL     1       4.859  -5.677  -1.749  0.00  0.00    -0.076 C 
ATOM     10  C   UNL     1       6.096  -5.477  -0.870  0.00  0.00    +0.016 C 
ATOM     11  H   UNL     1       5.939  -6.476  -3.282  0.00  0.00    -0.082 HD
ENDROOT
BRANCH   1  12
ATOM     12  C   UNL     1       5.858  -1.131   0.518  0.00  0.00    +0.136 C 
BRANCH  12  15
ATOM     13  C   UNL     1       3.783   0.131   0.712  0.00  0.00    +0.279 C 
ATOM     14  O   UNL     1       4.445   1.146   0.822  0.00  0.00    -0.267 OA
ATOM     15  N   UNL     1       4.395  -1.059   0.555  0.00  0.00    -0.306 N 
ATOM     16  H   UNL     1       3.867  -1.869   0.468  0.00  0.00    +0.149 HD
BRANCH  13  19
ATOM     17  C   UNL     1       0.227   0.943   0.880  0.00  0.00    +0.042 A 
ATOM     18  C   UNL     1       1.574   1.338   0.902  0.00  0.00    +0.054 A 
ATOM     19  C   UNL     1       2.318   0.203   0.750  0.00  0.00    +0.189 A 
ATOM     20  O   UNL     1       1.470  -0.841   0.639  0.00  0.00    -0.458 OA
ATOM     21  C   UNL     1       0.208  -0.398   0.717  0.00  0.00    +0.196 A 
ENDBRANCH  13  19
ENDBRANCH  12  15
ENDBRANCH   1  12
BRANCH   8  22
ATOM     22  C   UNL     1       4.085  -6.014  -3.991  0.00  0.00    -0.063 C 
BRANCH  22  23
ATOM     23  C   UNL     1       4.526  -6.245  -5.438  0.00  0.00    +0.066 C 
ATOM     24  C   UNL     1       5.309  -7.537  -5.558  0.00  0.00    +0.115 C 
ATOM     25  N   UNL     1       4.635  -8.293  -6.363  0.00  0.00    -0.161 NA
ATOM     26  N   UNL     1       3.473  -7.681  -6.820  0.00  0.00    -0.153 NA
ATOM     27  C   UNL     1       3.324  -6.476  -6.333  0.00  0.00    +0.077 C 
BRANCH  27  28
ATOM     28  C   UNL     1       2.220  -5.538  -6.596  0.00  0.00    -0.001 A 
ATOM     29  C   UNL     1       2.213  -4.276  -5.994  0.00  0.00    +0.011 A 
ATOM     30  C   UNL     1       1.176  -3.402  -6.245  0.00  0.00    +0.020 A 
ATOM     31  C   UNL     1       0.143  -3.773  -7.091  0.00  0.00    +0.041 A 
ATOM     32  C   UNL     1       0.144  -5.022  -7.690  0.00  0.00    +0.020 A 
ATOM     33  C   UNL     1       1.177  -5.904  -7.453  0.00  0.00    +0.011 A 
ATOM     34 CL   UNL     1      -1.158  -2.667  -7.402  0.00  0.00    -0.084 Cl
ENDBRANCH  27  28
ENDBRANCH  22  23
ENDBRANCH   8  22
TORSDOF 6
