REMARK  Name = ZINC13567595
REMARK  7 active torsions:
REMARK  status: ('A' for Active; 'I' for Inactive)
REMARK    1  A    between atoms: C_1  and  C_2
REMARK    2  A    between atoms: C_7  and  N_8
REMARK    3  A    between atoms: C_14  and  C_16
REMARK    4  A    between atoms: C_14  and  C_17
REMARK    5  A    between atoms: N_25  and  C_28
REMARK    6  A    between atoms: C_29  and  C_32
REMARK    7  A    between atoms: C_30  and  N_31
REMARK                            x       y       z     vdW  Elec       q    Type
REMARK                         _______ _______ _______ _____ _____    ______ ____
ROOT
ATOM      1  N   UNL     1      -2.602   2.625   0.062  0.00  0.00    -0.260 N 
ATOM      2  C   UNL     1      -1.906   2.541   1.240  0.00  0.00    +0.026 C 
ATOM      3  C   UNL     1      -0.666   2.007   1.270  0.00  0.00    +0.037 C 
ATOM      4  C   UNL     1       0.055   1.915   2.473  0.00  0.00    +0.163 C 
ATOM      5  O   UNL     1       1.173   1.440   2.463  0.00  0.00    -0.292 OA
ATOM      6  C   UNL     1      -0.533   2.394   3.772  0.00  0.00    +0.086 C 
ATOM      7  C   UNL     1      -2.059   2.267   3.705  0.00  0.00    -0.023 C 
ATOM      8  C   UNL     1      -2.558   3.063   2.497  0.00  0.00    +0.058 C 
ATOM      9  C   UNL     1      -2.446   0.795   3.546  0.00  0.00    +0.011 C 
ATOM     10  C   UNL     1      -2.679   2.826   4.987  0.00  0.00    +0.011 C 
ATOM     11  C   UNL     1      -0.018   1.494   0.010  0.00  0.00    +0.141 C 
ATOM     12  C   UNL     1       0.002  -0.004   0.002  0.00  0.00    -0.001 A 
ATOM     13  C   UNL     1      -1.019  -0.929   0.009  0.00  0.00    +0.007 A 
ATOM     14  C   UNL     1      -0.654  -2.271  -0.004  0.00  0.00    +0.000 A 
ATOM     15  C   UNL     1       0.671  -2.655  -0.022  0.00  0.00    +0.002 A 
ATOM     16  C   UNL     1       1.704  -1.730  -0.028  0.00  0.00    +0.024 A 
ATOM     17  C   UNL     1       1.350  -0.380  -0.015  0.00  0.00    +0.041 A 
ATOM     18  N   UNL     1       2.162   0.741  -0.016  0.00  0.00    -0.273 N 
ATOM     19  C   UNL     1       1.446   1.884  -0.002  0.00  0.00    +0.240 C 
ATOM     20  O   UNL     1       1.891   3.012   0.001  0.00  0.00    -0.274 OA
ATOM     21  C   UNL     1       3.626   0.691  -0.030  0.00  0.00    +0.138 C 
ATOM     22  C   UNL     1      -0.698   2.025  -1.216  0.00  0.00    +0.089 C 
ATOM     23  C   UNL     1      -1.946   2.559  -1.146  0.00  0.00    +0.108 C 
ENDROOT
BRANCH   1  30
ATOM     24  C   UNL     1      -3.660   5.266   0.103  0.00  0.00    +0.045 C 
ATOM     25  C   UNL     1      -4.551   4.051   0.109  0.00  0.00    -0.029 A 
ATOM     26  C   UNL     1      -5.924   4.200   0.134  0.00  0.00    +0.005 A 
ATOM     27  C   UNL     1      -6.742   3.086   0.140  0.00  0.00    +0.000 A 
ATOM     28  C   UNL     1      -6.189   1.818   0.120  0.00  0.00    +0.002 A 
ATOM     29  C   UNL     1      -4.817   1.662   0.089  0.00  0.00    +0.024 A 
ATOM     30  C   UNL     1      -3.992   2.780   0.088  0.00  0.00    +0.043 A 
ENDBRANCH   1  30
BRANCH  23  31
ATOM     31  N   UNL     1      -2.554   3.034  -2.284  0.00  0.00    -0.345 N 
ATOM     32  H   UNL     1      -2.093   2.987  -3.135  0.00  0.00    +0.144 HD
ATOM     33  H   UNL     1      -3.445   3.415  -2.234  0.00  0.00    +0.144 HD
ENDBRANCH  23  31
BRANCH  22  34
ATOM     34  C   UNL     1      -0.024   1.969  -2.478  0.00  0.00    +0.100 C 
ATOM     35  N   UNL     1       0.511   1.924  -3.479  0.00  0.00    -0.191 NA
ENDBRANCH  22  34
TORSDOF 3
