REMARK  Name = ZINC20984718
REMARK  6 active torsions:
REMARK  status: ('A' for Active; 'I' for Inactive)
REMARK    1  A    between atoms: C_6  and  C_7
REMARK    2  A    between atoms: C_7  and  N_8
REMARK    3  A    between atoms: C_11  and  C_14
REMARK    4  A    between atoms: C_14  and  N_15
REMARK    5  A    between atoms: N_15  and  S_16
REMARK    6  A    between atoms: S_16  and  C_19
REMARK                            x       y       z     vdW  Elec       q    Type
REMARK                         _______ _______ _______ _____ _____    ______ ____
ROOT
ATOM      1  N   UNL     1       3.127   5.136   6.053  0.00  0.00    -0.190 NA
ATOM      2  H   UNL     1       3.616   4.205   5.731  0.00  0.00    +0.148 HD
ENDROOT
BRANCH   1   3
ATOM      3  S   UNL     1       3.414   5.715   7.577  0.00  0.00    +0.058 S 
ATOM      4  O   UNL     1       4.461   4.924   8.122  0.00  0.00    -0.153 OA
ATOM      5  O   UNL     1       3.506   7.128   7.465  0.00  0.00    -0.153 OA
BRANCH   3   6
ATOM      6  C   UNL     1       1.977   5.380   8.541  0.00  0.00    +0.107 A 
ATOM      7  C   UNL     1       0.958   6.313   8.604  0.00  0.00    +0.030 A 
ATOM      8  C   UNL     1      -0.176   6.057   9.354  0.00  0.00    +0.018 A 
ATOM      9  C   UNL     1      -0.282   4.865  10.050  0.00  0.00    +0.029 A 
ATOM     10  C   UNL     1       0.746   3.925   9.990  0.00  0.00    +0.049 A 
ATOM     11  C   UNL     1       1.876   4.187   9.234  0.00  0.00    +0.053 A 
ATOM     12  N   UNL     1       0.621   2.720  10.698  0.00  0.00    -0.284 N 
ATOM     13  C   UNL     1      -0.484   1.974  10.573  0.00  0.00    +0.218 C 
ATOM     14  O   UNL     1      -0.662   1.043  11.329  0.00  0.00    -0.275 OA
ATOM     15  C   UNL     1      -1.505   2.267   9.514  0.00  0.00    +0.107 C 
ATOM     16  C   UNL     1      -2.574   3.235  10.050  0.00  0.00    +0.083 C 
ATOM     17  S   UNL     1      -1.712   4.515  11.023  0.00  0.00    -0.123 S 
ATOM     18  H   UNL     1       1.433   2.384  11.360  0.00  0.00    +0.155 HD
ENDBRANCH   3   6
ENDBRANCH   1   3
BRANCH   1  19
ATOM     19  C   UNL     1       2.073   5.733   5.229  0.00  0.00    +0.109 C 
BRANCH  19  23
ATOM     20  N   UNL     1       1.156   4.075   1.397  0.00  0.00    +0.382 N 
ATOM     21  C   UNL     1       2.156   3.359   2.199  0.00  0.00    -0.078 C 
ATOM     22  C   UNL     1       2.035   3.783   3.665  0.00  0.00    -0.014 C 
ATOM     23  C   UNL     1       2.253   5.294   3.774  0.00  0.00    +0.001 C 
ATOM     24  C   UNL     1       1.230   6.014   2.892  0.00  0.00    -0.014 C 
ATOM     25  C   UNL     1       1.374   5.526   1.449  0.00  0.00    -0.078 C 
ATOM     26  H   UNL     1       0.167   3.869   1.833  0.00  0.00    -0.081 HD
BRANCH  20  27
ATOM     27  C   UNL     1       1.150   3.592   0.010  0.00  0.00    -0.043 C 
BRANCH  27  33
ATOM     28  C   UNL     1      -0.017   1.378   0.010  0.00  0.00    +0.003 A 
ATOM     29  C   UNL     1       0.002  -0.004   0.002  0.00  0.00    +0.020 A 
ATOM     30  C   UNL     1       1.210  -0.679  -0.013  0.00  0.00    +0.041 A 
ATOM     31  C   UNL     1       2.398   0.030  -0.021  0.00  0.00    +0.020 A 
ATOM     32  C   UNL     1       2.378   1.412  -0.013  0.00  0.00    +0.003 A 
ATOM     33  C   UNL     1       1.171   2.086   0.002  0.00  0.00    -0.064 A 
ATOM     34 CL   UNL     1       1.234  -2.415  -0.022  0.00  0.00    -0.084 Cl
ENDBRANCH  27  33
ENDBRANCH  20  27
ENDBRANCH  19  23
ENDBRANCH   1  19
TORSDOF 6
