REMARK  Name = ZINC20573674
REMARK  13 active torsions:
REMARK  status: ('A' for Active; 'I' for Inactive)
REMARK    1  A    between atoms: C_1  and  C_2
REMARK    2  A    between atoms: C_2  and  O_3
REMARK    3  A    between atoms: O_3  and  C_4
REMARK    4  A    between atoms: C_6  and  C_16
REMARK    5  A    between atoms: C_8  and  O_13
REMARK    6  A    between atoms: C_9  and  O_10
REMARK    7  A    between atoms: O_10  and  C_11
REMARK    8  A    between atoms: C_11  and  C_12
REMARK    9  A    between atoms: O_13  and  C_14
REMARK   10  A    between atoms: C_14  and  C_15
REMARK   11  A    between atoms: N_18  and  C_19
REMARK   12  A    between atoms: C_19  and  C_20
REMARK   13  A    between atoms: C_20  and  C_21
REMARK                            x       y       z     vdW  Elec       q    Type
REMARK                         _______ _______ _______ _____ _____    ______ ____
ROOT
ATOM      1  C   UNL     1      -0.667  -7.188  -1.372  0.00  0.00    +0.113 C 
ENDROOT
BRANCH   1   4
ATOM      2  C   UNL     1      -0.203  -4.957  -0.511  0.00  0.00    +0.244 C 
ATOM      3  O   UNL     1      -0.777  -4.496  -1.479  0.00  0.00    -0.270 OA
ATOM      4  N   UNL     1      -0.094  -6.292  -0.364  0.00  0.00    -0.311 N 
ATOM      5  H   UNL     1       0.364  -6.659   0.408  0.00  0.00    +0.149 HD
BRANCH   2   8
ATOM      6  C   UNL     1       0.802  -1.825   1.306  0.00  0.00    +0.166 A 
ATOM      7  C   UNL     1       0.261  -2.669   0.354  0.00  0.00    +0.062 A 
ATOM      8  C   UNL     1       0.374  -4.053   0.504  0.00  0.00    +0.044 A 
ATOM      9  C   UNL     1       1.033  -4.581   1.617  0.00  0.00    +0.062 A 
ATOM     10  C   UNL     1       1.572  -3.733   2.566  0.00  0.00    +0.166 A 
ATOM     11  C   UNL     1       1.463  -2.354   2.411  0.00  0.00    +0.204 A 
BRANCH   6  12
ATOM     12  O   UNL     1       0.693  -0.477   1.160  0.00  0.00    -0.488 OA
BRANCH  12  14
ATOM     13  C   UNL     1      -0.019   1.526   0.010  0.00  0.00    +0.048 C 
ATOM     14  C   UNL     1       0.002  -0.004   0.002  0.00  0.00    +0.226 C 
ENDBRANCH  12  14
ENDBRANCH   6  12
BRANCH  11  15
ATOM     15  O   UNL     1       1.999  -1.522   3.343  0.00  0.00    -0.485 OA
BRANCH  15  16
ATOM     16  C   UNL     1       1.158  -1.144   4.435  0.00  0.00    +0.226 C 
ATOM     17  C   UNL     1       1.928  -0.213   5.373  0.00  0.00    +0.048 C 
ENDBRANCH  15  16
ENDBRANCH  11  15
BRANCH  10  18
ATOM     18  O   UNL     1       2.214  -4.247   3.650  0.00  0.00    -0.488 OA
BRANCH  18  19
ATOM     19  C   UNL     1       2.293  -5.670   3.743  0.00  0.00    +0.226 C 
ATOM     20  C   UNL     1       3.044  -6.058   5.018  0.00  0.00    +0.048 C 
ENDBRANCH  18  19
ENDBRANCH  10  18
ENDBRANCH   2   8
ENDBRANCH   1   4
BRANCH   1  21
ATOM     21  C   UNL     1      -0.406  -8.641  -0.969  0.00  0.00    +0.114 C 
BRANCH  21  22
ATOM     22  C   UNL     1      -0.995  -9.563  -2.005  0.00  0.00    +0.217 C 
ATOM     23  O   UNL     1      -1.567  -9.104  -2.971  0.00  0.00    -0.276 OA
ATOM     24  N   UNL     1      -0.886 -10.899  -1.859  0.00  0.00    -0.301 N 
ATOM     25  C   UNL     1      -0.200 -11.471  -0.692  0.00  0.00    +0.110 C 
ATOM     26  C   UNL     1      -1.139 -12.471  -0.011  0.00  0.00    +0.047 C 
ATOM     27  C   UNL     1      -1.609 -13.504  -1.035  0.00  0.00    +0.064 C 
ATOM     28  C   UNL     1      -2.376 -12.808  -2.160  0.00  0.00    +0.047 C 
ATOM     29  C   UNL     1      -1.455 -11.811  -2.861  0.00  0.00    +0.110 C 
ATOM     30  C   UNL     1      -2.504 -14.514  -0.362  0.00  0.00    +0.057 A 
ATOM     31  C   UNL     1      -2.410 -15.847  -0.577  0.00  0.00    +0.039 A 
ATOM     32  N   UNL     1      -3.359 -16.444   0.189  0.00  0.00    -0.349 N 
ATOM     33  H   UNL     1      -3.537 -17.396   0.250  0.00  0.00    +0.166 HD
ATOM     34  C   UNL     1      -4.011 -15.459   0.851  0.00  0.00    +0.171 A 
ATOM     35  N   UNL     1      -3.489 -14.308   0.512  0.00  0.00    -0.348 N 
ATOM     36  C   UNL     1      -1.408 -16.468  -1.515  0.00  0.00    +0.070 C 
ATOM     37  C   UNL     1      -0.854 -15.357  -2.418  0.00  0.00    +0.088 C 
ATOM     38  N   UNL     1      -0.446 -14.210  -1.594  0.00  0.00    -0.305 NA
ATOM     39  H   UNL     1       0.142 -13.579  -2.118  0.00  0.00    +0.123 HD
ATOM     40  H   UNL     1      -3.774 -13.442   0.845  0.00  0.00    +0.166 HD
ENDBRANCH  21  22
ENDBRANCH   1  21
TORSDOF 10
