REMARK  Name = ZINC33121301
REMARK  14 active torsions:
REMARK  status: ('A' for Active; 'I' for Inactive)
REMARK    1  A    between atoms: C_1  and  C_2
REMARK    2  A    between atoms: C_2  and  C_3
REMARK    3  A    between atoms: C_3  and  C_4
REMARK    4  A    between atoms: C_4  and  N_5
REMARK    5  A    between atoms: N_5  and  C_6
REMARK    6  A    between atoms: C_6  and  C_7
REMARK    7  A    between atoms: C_8  and  C_10
REMARK    8  A    between atoms: C_12  and  N_22
REMARK    9  A    between atoms: C_15  and  N_16
REMARK   10  A    between atoms: N_22  and  S_23
REMARK   11  A    between atoms: S_23  and  C_26
REMARK   12  A    between atoms: C_27  and  C_34
REMARK   13  A    between atoms: C_29  and  C_33
REMARK   14  A    between atoms: C_31  and  C_32
REMARK                            x       y       z     vdW  Elec       q    Type
REMARK                         _______ _______ _______ _____ _____    ______ ____
ROOT
ATOM      1  C   UNL     1       3.568  -1.037   2.082  0.00  0.00    +0.060 A 
ATOM      2  C   UNL     1       3.197   0.276   1.776  0.00  0.00    +0.039 A 
ATOM      3  C   UNL     1       3.816   1.334   2.418  0.00  0.00    +0.049 A 
ATOM      4  C   UNL     1       4.806   1.095   3.366  0.00  0.00    +0.026 A 
ATOM      5  C   UNL     1       5.178  -0.197   3.675  0.00  0.00    +0.026 A 
ATOM      6  C   UNL     1       4.564  -1.270   3.043  0.00  0.00    +0.042 A 
ENDROOT
BRANCH   6   7
ATOM      7  N   UNL     1       4.937  -2.573   3.358  0.00  0.00    -0.333 N 
ATOM      8  C   UNL     1       6.157  -2.588   4.177  0.00  0.00    +0.086 C 
ATOM      9  C   UNL     1       6.578  -4.036   4.435  0.00  0.00    -0.063 C 
ATOM     10  N   UNL     1       5.485  -4.748   5.112  0.00  0.00    +0.381 N 
ATOM     11  C   UNL     1       4.264  -4.733   4.294  0.00  0.00    -0.063 C 
ATOM     12  C   UNL     1       3.844  -3.284   4.036  0.00  0.00    +0.086 C 
ATOM     13  H   UNL     1       5.780  -5.793   5.288  0.00  0.00    -0.086 HD
ATOM     14  H   UNL     1       5.271  -4.260   6.075  0.00  0.00    -0.086 HD
ENDBRANCH   6   7
BRANCH   1  16
ATOM     15  N   UNL     1       1.578  -2.326   1.490  0.00  0.00    -0.298 N 
ATOM     16  C   UNL     1       2.914  -2.170   1.403  0.00  0.00    +0.248 C 
ATOM     17  O   UNL     1       3.579  -2.962   0.764  0.00  0.00    -0.270 OA
BRANCH  15  18
ATOM     18  C   UNL     1       0.765  -1.319   2.175  0.00  0.00    +0.104 C 
ATOM     19  C   UNL     1       0.565  -1.732   3.635  0.00  0.00    +0.024 C 
ENDBRANCH  15  18
BRANCH  15  20
ATOM     20  C   UNL     1       0.939  -3.505   0.898  0.00  0.00    +0.108 C 
BRANCH  20  21
ATOM     21  C   UNL     1       0.552  -3.201  -0.551  0.00  0.00    +0.019 C 
BRANCH  21  23
ATOM     22  C   UNL     1      -0.503  -4.128  -2.618  0.00  0.00    +0.004 C 
ATOM     23  C   UNL     1      -0.116  -4.431  -1.169  0.00  0.00    -0.002 C 
ENDBRANCH  21  23
ENDBRANCH  20  21
ENDBRANCH  15  20
ENDBRANCH   1  16
BRANCH   3  24
ATOM     24  N   UNL     1       3.444   2.649   2.112  0.00  0.00    -0.216 N 
ATOM     25  H   UNL     1       3.340   2.961   1.063  0.00  0.00    +0.174 HD
BRANCH  24  26
ATOM     26  S   UNL     1       3.163   3.734   3.331  0.00  0.00    +0.073 S 
ATOM     27  O   UNL     1       2.795   4.957   2.708  0.00  0.00    -0.150 OA
ATOM     28  O   UNL     1       2.327   3.078   4.274  0.00  0.00    -0.150 OA
BRANCH  26  29
ATOM     29  C   UNL     1       4.703   4.022   4.138  0.00  0.00    +0.114 A 
ATOM     30  C   UNL     1       5.712   4.700   3.479  0.00  0.00    -0.023 A 
ATOM     31  C   UNL     1       6.918   4.930   4.114  0.00  0.00    +0.008 A 
ATOM     32  C   UNL     1       7.119   4.474   5.403  0.00  0.00    -0.050 A 
ATOM     33  C   UNL     1       6.112   3.792   6.060  0.00  0.00    +0.008 A 
ATOM     34  C   UNL     1       4.904   3.566   5.427  0.00  0.00    -0.023 A 
ATOM     35  C   UNL     1       3.806   2.822   6.143  0.00  0.00    +0.046 C 
ATOM     36  C   UNL     1       8.435   4.722   6.093  0.00  0.00    +0.044 C 
ATOM     37  C   UNL     1       5.495   5.192   2.071  0.00  0.00    +0.046 C 
ENDBRANCH  26  29
ENDBRANCH  24  26
ENDBRANCH   3  24
TORSDOF 9
