REMARK  Name = ZINC12374471
REMARK  6 active torsions:
REMARK  status: ('A' for Active; 'I' for Inactive)
REMARK    1  A    between atoms: C_6  and  C_7
REMARK    2  A    between atoms: C_7  and  S_8
REMARK    3  A    between atoms: S_8  and  C_9
REMARK    4  A    between atoms: C_17  and  C_24
REMARK    5  A    between atoms: C_19  and  C_22
REMARK    6  A    between atoms: C_20  and  N_21
REMARK                            x       y       z     vdW  Elec       q    Type
REMARK                         _______ _______ _______ _____ _____    ______ ____
ROOT
ATOM      1  C   UNL     1       0.780  -0.646   0.418  0.00  0.00    +0.160 A 
ATOM      2  N   UNL     1       0.840  -0.119  -0.797  0.00  0.00    -0.133 NA
ATOM      3  N   UNL     1       0.992   1.120  -0.979  0.00  0.00    -0.124 NA
ATOM      4  C   UNL     1       1.102   1.969   0.029  0.00  0.00    +0.194 A 
ATOM      5  S   UNL     1       0.968   0.834   1.408  0.00  0.00    -0.024 S 
ATOM      6  N   UNL     1       1.273   3.351   0.021  0.00  0.00    -0.237 N 
ATOM      7  C   UNL     1       0.179   4.172  -0.073  0.00  0.00    +0.026 C 
ATOM      8  C   UNL     1       0.254   5.464   0.316  0.00  0.00    +0.025 C 
ATOM      9  C   UNL     1       1.542   6.039   0.850  0.00  0.00    +0.098 C 
ATOM     10  C   UNL     1       2.713   5.173   0.492  0.00  0.00    +0.077 C 
ATOM     11  C   UNL     1       2.540   3.884   0.102  0.00  0.00    +0.108 C 
ATOM     12  C   UNL     1      -0.864   6.311   0.231  0.00  0.00    +0.162 C 
ATOM     13  O   UNL     1      -0.759   7.473   0.572  0.00  0.00    -0.292 OA
ATOM     14  C   UNL     1      -2.188   5.807  -0.273  0.00  0.00    +0.080 C 
ATOM     15  C   UNL     1      -2.300   4.309   0.030  0.00  0.00    +0.014 C 
ATOM     16  C   UNL     1      -1.107   3.595  -0.609  0.00  0.00    +0.052 C 
ENDROOT
BRANCH   9  17
ATOM     17  C   UNL     1       1.448   6.148   2.350  0.00  0.00    -0.028 A 
ATOM     18  C   UNL     1       1.533   7.380   2.971  0.00  0.00    +0.012 A 
ATOM     19  C   UNL     1       1.445   7.442   4.322  0.00  0.00    +0.045 A 
ATOM     20  S   UNL     1       1.234   5.724   4.758  0.00  0.00    -0.105 S 
ATOM     21  C   UNL     1       1.273   5.039   3.110  0.00  0.00    +0.049 A 
ENDBRANCH   9  17
BRANCH  11  22
ATOM     22  N   UNL     1       3.631   3.109  -0.211  0.00  0.00    -0.345 N 
ATOM     23  H   UNL     1       3.506   2.216  -0.567  0.00  0.00    +0.144 HD
ATOM     24  H   UNL     1       4.527   3.456  -0.076  0.00  0.00    +0.144 HD
ENDBRANCH  11  22
BRANCH  10  25
ATOM     25  C   UNL     1       4.037   5.716   0.561  0.00  0.00    +0.099 C 
ATOM     26  N   UNL     1       5.086   6.147   0.616  0.00  0.00    -0.191 NA
ENDBRANCH  10  25
BRANCH   1  27
ATOM     27  S   UNL     1       0.576  -2.324   0.917  0.00  0.00    -0.092 S 
BRANCH  27  28
ATOM     28  C   UNL     1       0.456  -3.235  -0.647  0.00  0.00    +0.111 C 
BRANCH  28  34
ATOM     29  C   UNL     1       1.382  -5.524  -0.241  0.00  0.00    +0.006 A 
ATOM     30  C   UNL     1       1.218  -6.870   0.027  0.00  0.00    +0.020 A 
ATOM     31  C   UNL     1      -0.053  -7.398   0.165  0.00  0.00    +0.041 A 
ATOM     32  C   UNL     1      -1.159  -6.577   0.039  0.00  0.00    +0.020 A 
ATOM     33  C   UNL     1      -0.994  -5.230  -0.224  0.00  0.00    +0.006 A 
ATOM     34  C   UNL     1       0.276  -4.703  -0.361  0.00  0.00    -0.037 A 
ATOM     35 CL   UNL     1      -0.260  -9.089   0.495  0.00  0.00    -0.084 Cl
ENDBRANCH  28  34
ENDBRANCH  27  28
ENDBRANCH   1  27
TORSDOF 6
