REMARK  Name = ZINC38740771
REMARK  6 active torsions:
REMARK  status: ('A' for Active; 'I' for Inactive)
REMARK    1  A    between atoms: C_1  and  C_2
REMARK    2  A    between atoms: C_7  and  C_8
REMARK    3  A    between atoms: C_7  and  C_9
REMARK    4  A    between atoms: C_11  and  N_13
REMARK    5  A    between atoms: C_14  and  C_16
REMARK    6  A    between atoms: C_22  and  C_24
REMARK                            x       y       z     vdW  Elec       q    Type
REMARK                         _______ _______ _______ _____ _____    ______ ____
ROOT
ATOM      1  C   UNL     1      -4.012  -0.817  -2.962  0.00  0.00    +0.091 C 
ATOM      2  C   UNL     1      -3.367  -1.961  -3.747  0.00  0.00    +0.040 C 
ATOM      3  C   UNL     1      -4.268  -2.390  -4.868  0.00  0.00    -0.030 C 
ATOM      4  C   UNL     1      -5.527  -2.099  -4.939  0.00  0.00    -0.030 C 
ATOM      5  C   UNL     1      -6.260  -1.283  -3.916  0.00  0.00    +0.040 C 
ATOM      6  C   UNL     1      -5.454  -1.211  -2.618  0.00  0.00    +0.091 C 
ENDROOT
BRANCH   6   7
ATOM      7  C   UNL     1      -6.055  -0.178  -1.700  0.00  0.00    +0.220 C 
ATOM      8  O   UNL     1      -5.620   0.954  -1.692  0.00  0.00    -0.275 OA
ATOM      9  N   UNL     1      -7.077  -0.513  -0.887  0.00  0.00    -0.298 N 
ATOM     10  C   UNL     1      -7.540  -1.905  -0.802  0.00  0.00    +0.126 C 
ATOM     11  C   UNL     1      -7.498  -2.346   0.667  0.00  0.00    +0.125 C 
ATOM     12  N   UNL     1      -8.170  -1.325   1.483  0.00  0.00    -0.314 N 
ATOM     13  C   UNL     1      -7.707   0.068   1.397  0.00  0.00    +0.125 C 
ATOM     14  C   UNL     1      -7.745   0.507  -0.067  0.00  0.00    +0.126 C 
ATOM     15  C   UNL     1      -9.224  -1.670   2.321  0.00  0.00    +0.099 A 
ATOM     16  C   UNL     1      -9.727  -2.967   2.298  0.00  0.00    +0.042 A 
ATOM     17  C   UNL     1     -10.776  -3.296   3.136  0.00  0.00    +0.005 A 
ATOM     18  C   UNL     1     -11.289  -2.314   3.974  0.00  0.00    +0.018 A 
ATOM     19  C   UNL     1     -10.741  -1.047   3.945  0.00  0.00    +0.084 A 
ATOM     20  N   UNL     1      -9.737  -0.762   3.138  0.00  0.00    -0.350 N 
ATOM     21  H   UNL     1      -9.367   0.135   3.140  0.00  0.00    +0.166 HD
ENDBRANCH   6   7
BRANCH   1  23
ATOM     22  N   UNL     1      -1.937  -0.222  -1.754  0.00  0.00    -0.312 N 
ATOM     23  C   UNL     1      -3.236  -0.574  -1.693  0.00  0.00    +0.217 C 
ATOM     24  O   UNL     1      -3.782  -0.694  -0.617  0.00  0.00    -0.275 OA
ATOM     25  H   UNL     1      -1.500  -0.126  -2.615  0.00  0.00    +0.149 HD
BRANCH  22  35
ATOM     26  C   UNL     1      -2.597   1.866   0.676  0.00  0.00    +0.013 C 
ATOM     27  C   UNL     1      -1.317   1.504  -0.079  0.00  0.00    -0.008 C 
ATOM     28  C   UNL     1      -1.023   2.339  -1.362  0.00  0.00    +0.009 C 
ATOM     29  C   UNL     1       0.491   2.151  -1.613  0.00  0.00    +0.005 C 
ATOM     30  C   UNL     1       0.969   1.220  -0.457  0.00  0.00    -0.003 C 
ATOM     31  C   UNL     1       0.029   1.695   0.706  0.00  0.00    -0.025 C 
ATOM     32  C   UNL     1       0.272   3.159   1.079  0.00  0.00    +0.012 C 
ATOM     33  C   UNL     1       0.117   0.777   1.927  0.00  0.00    +0.012 C 
ATOM     34  C   UNL     1       0.357  -0.172  -0.799  0.00  0.00    +0.027 C 
ATOM     35  C   UNL     1      -1.183   0.014  -0.520  0.00  0.00    +0.080 C 
ENDBRANCH  22  35
ENDBRANCH   1  23
TORSDOF 3
