REMARK  Name = ZINC57994633
REMARK  11 active torsions:
REMARK  status: ('A' for Active; 'I' for Inactive)
REMARK    1  A    between atoms: C_1  and  C_2
REMARK    2  A    between atoms: C_2  and  C_3
REMARK    3  A    between atoms: C_3  and  C_5
REMARK    4  A    between atoms: C_3  and  N_15
REMARK    5  A    between atoms: N_15  and  C_16
REMARK    6  A    between atoms: C_16  and  C_17
REMARK    7  A    between atoms: N_19  and  C_20
REMARK    8  A    between atoms: C_20  and  C_21
REMARK    9  A    between atoms: C_21  and  C_22
REMARK   10  A    between atoms: C_25  and  S_28
REMARK   11  A    between atoms: S_28  and  N_31
REMARK                            x       y       z     vdW  Elec       q    Type
REMARK                         _______ _______ _______ _____ _____    ______ ____
ROOT
ATOM      1  C   UNL     1       3.713   1.557  -1.124  0.00  0.00    +0.196 C 
ATOM      2  O   UNL     1       4.520   0.652  -1.146  0.00  0.00    -0.278 OA
ATOM      3  N   UNL     1       4.134   2.832  -1.011  0.00  0.00    -0.317 N 
ATOM      4  H   UNL     1       3.488   3.556  -0.993  0.00  0.00    +0.149 HD
ENDROOT
BRANCH   1   5
ATOM      5  C   UNL     1       2.240   1.256  -1.224  0.00  0.00    +0.015 C 
BRANCH   5   6
ATOM      6  N   UNL     1       2.043  -0.196  -1.337  0.00  0.00    +0.387 N 
ATOM      7  H   UNL     1       2.331  -0.642  -0.479  0.00  0.00    -0.085 HD
ATOM      8  H   UNL     1       2.596  -0.551  -2.103  0.00  0.00    -0.085 HD
BRANCH   6   9
ATOM      9  C   UNL     1       0.624  -0.480  -1.585  0.00  0.00    -0.065 C 
BRANCH   9  10
ATOM     10  C   UNL     1       0.440  -1.977  -1.843  0.00  0.00    -0.041 C 
ATOM     11  C   UNL     1       0.912  -2.766  -0.619  0.00  0.00    +0.009 C 
ATOM     12  C   UNL     1       0.729  -4.263  -0.876  0.00  0.00    -0.010 C 
ATOM     13  C   UNL     1      -0.750  -4.559  -1.135  0.00  0.00    +0.007 C 
ATOM     14  C   UNL     1      -1.222  -3.770  -2.358  0.00  0.00    -0.010 C 
ATOM     15  C   UNL     1      -1.038  -2.273  -2.101  0.00  0.00    +0.009 C 
ATOM     16  C   UNL     1      -0.398  -4.182  -3.580  0.00  0.00    +0.007 C 
ATOM     17  C   UNL     1       1.081  -3.886  -3.321  0.00  0.00    -0.010 C 
ATOM     18  C   UNL     1       1.552  -4.675  -2.098  0.00  0.00    +0.007 C 
ATOM     19  C   UNL     1       1.264  -2.389  -3.064  0.00  0.00    +0.009 C 
ENDBRANCH   9  10
BRANCH   9  21
ATOM     20  C   UNL     1      -0.588   1.408  -0.484  0.00  0.00    +0.002 C 
ATOM     21  C   UNL     1      -0.200  -0.067  -0.364  0.00  0.00    -0.019 C 
ENDBRANCH   9  21
ENDBRANCH   6   9
ENDBRANCH   5   6
ENDBRANCH   1   5
BRANCH   3  22
ATOM     22  C   UNL     1       5.566   3.125  -0.914  0.00  0.00    +0.109 C 
BRANCH  22  23
ATOM     23  C   UNL     1       5.770   4.637  -0.796  0.00  0.00    +0.054 C 
BRANCH  23  24
ATOM     24  C   UNL     1       7.244   4.938  -0.696  0.00  0.00    -0.046 A 
ATOM     25  C   UNL     1       7.857   4.986   0.541  0.00  0.00    +0.005 A 
ATOM     26  C   UNL     1       9.209   5.262   0.633  0.00  0.00    +0.029 A 
ATOM     27  C   UNL     1       9.946   5.491  -0.514  0.00  0.00    +0.105 A 
ATOM     28  C   UNL     1       9.333   5.442  -1.752  0.00  0.00    +0.029 A 
ATOM     29  C   UNL     1       7.982   5.162  -1.843  0.00  0.00    +0.005 A 
BRANCH  27  30
ATOM     30  S   UNL     1      11.669   5.844  -0.398  0.00  0.00    +0.056 S 
ATOM     31  O   UNL     1      12.017   6.557  -1.576  0.00  0.00    -0.153 OA
ATOM     32  O   UNL     1      11.888   6.370   0.904  0.00  0.00    -0.153 OA
BRANCH  30  33
ATOM     33  N   UNL     1      12.471   4.397  -0.465  0.00  0.00    -0.204 NA
ATOM     34  H   UNL     1      11.973   3.570  -0.553  0.00  0.00    +0.144 HD
ATOM     35  H   UNL     1      13.440   4.377  -0.416  0.00  0.00    +0.144 HD
ENDBRANCH  30  33
ENDBRANCH  27  30
ENDBRANCH  23  24
ENDBRANCH  22  23
ENDBRANCH   3  22
TORSDOF 10
