REMARK  Name = ZINC12535126
REMARK  7 active torsions:
REMARK  status: ('A' for Active; 'I' for Inactive)
REMARK    1  A    between atoms: C_1  and  C_2
REMARK    2  A    between atoms: C_2  and  C_3
REMARK    3  A    between atoms: C_3  and  O_4
REMARK    4  A    between atoms: O_4  and  C_5
REMARK    5  A    between atoms: C_6  and  O_27
REMARK    6  A    between atoms: C_8  and  C_12
REMARK    7  A    between atoms: O_27  and  C_28
REMARK                            x       y       z     vdW  Elec       q    Type
REMARK                         _______ _______ _______ _____ _____    ______ ____
ROOT
ATOM      1  C   UNL     1      -6.401  -4.590   0.035  0.00  0.00    +0.209 C 
ATOM      2  N   UNL     1      -7.258  -4.044  -1.034  0.00  0.00    -0.294 N 
ATOM      3  C   UNL     1      -7.056  -4.508  -2.327  0.00  0.00    +0.159 C 
ATOM      4  N   UNL     1      -7.051  -5.893  -2.495  0.00  0.00    -0.259 N 
ATOM      5  C   UNL     1      -6.515  -6.616  -1.433  0.00  0.00    +0.205 A 
ATOM      6  N   UNL     1      -6.210  -6.021  -0.228  0.00  0.00    -0.288 N 
ATOM      7  C   UNL     1      -5.723  -6.997   0.594  0.00  0.00    +0.072 A 
ATOM      8  C   UNL     1      -5.268  -6.986   1.907  0.00  0.00    +0.028 A 
ATOM      9  C   UNL     1      -4.833  -8.192   2.434  0.00  0.00    +0.002 A 
ATOM     10  C   UNL     1      -4.847  -9.363   1.696  0.00  0.00    +0.002 A 
ATOM     11  C   UNL     1      -5.295  -9.400   0.388  0.00  0.00    +0.030 A 
ATOM     12  C   UNL     1      -5.739  -8.194  -0.165  0.00  0.00    +0.091 A 
ATOM     13  N   UNL     1      -6.230  -7.889  -1.387  0.00  0.00    -0.214 NA
ATOM     14  N   UNL     1      -6.882  -3.693  -3.329  0.00  0.00    -0.375 N 
ATOM     15  H   UNL     1      -7.940  -3.382  -0.841  0.00  0.00    +0.151 HD
ATOM     16  H   UNL     1      -6.891  -2.735  -3.182  0.00  0.00    +0.158 HD
ATOM     17  H   UNL     1      -7.395  -6.321  -3.294  0.00  0.00    +0.158 HD
ATOM     18  H   UNL     1      -6.743  -4.046  -4.222  0.00  0.00    +0.158 HD
ENDROOT
BRANCH   1  22
ATOM     19  C   UNL     1      -2.617  -2.596   0.013  0.00  0.00    +0.176 A 
ATOM     20  C   UNL     1      -3.225  -2.923   1.222  0.00  0.00    +0.163 A 
ATOM     21  C   UNL     1      -4.451  -3.569   1.225  0.00  0.00    +0.056 A 
ATOM     22  C   UNL     1      -5.068  -3.888   0.029  0.00  0.00    -0.002 A 
ATOM     23  C   UNL     1      -4.464  -3.564  -1.172  0.00  0.00    +0.026 A 
ATOM     24  C   UNL     1      -3.243  -2.914  -1.182  0.00  0.00    +0.063 A 
ATOM     25 BR   UNL     1      -2.425  -2.465  -2.827  0.00  0.00    -0.046 Br
BRANCH  20  26
ATOM     26  O   UNL     1      -2.618  -2.609   2.397  0.00  0.00    -0.491 OA
ATOM     27  C   UNL     1      -3.300  -2.974   3.598  0.00  0.00    +0.277 C 
ENDBRANCH  20  26
BRANCH  19  28
ATOM     28  O   UNL     1      -1.414  -1.962   0.005  0.00  0.00    -0.487 OA
BRANCH  28  29
ATOM     29  C   UNL     1      -1.433  -0.534   0.013  0.00  0.00    +0.229 C 
BRANCH  29  31
ATOM     30  C   UNL     1      -0.019   1.526   0.010  0.00  0.00    +0.007 C 
ATOM     31  C   UNL     1       0.002  -0.004   0.002  0.00  0.00    +0.038 C 
ENDBRANCH  29  31
ENDBRANCH  28  29
ENDBRANCH  19  28
ENDBRANCH   1  22
TORSDOF 5
