REMARK  Name = ZINC39684157
REMARK  7 active torsions:
REMARK  status: ('A' for Active; 'I' for Inactive)
REMARK    1  A    between atoms: C_1  and  C_2
REMARK    2  A    between atoms: C_7  and  C_11
REMARK    3  A    between atoms: C_11  and  C_12
REMARK    4  A    between atoms: C_12  and  N_13
REMARK    5  A    between atoms: C_14  and  C_16
REMARK    6  A    between atoms: C_27  and  C_29
REMARK    7  A    between atoms: N_33  and  C_34
REMARK                            x       y       z     vdW  Elec       q    Type
REMARK                         _______ _______ _______ _____ _____    ______ ____
ROOT
ATOM      1  C   UNL     1      -8.910   1.386  -5.258  0.00  0.00    +0.100 C 
ATOM      2  C   UNL     1     -10.296   1.822  -4.732  0.00  0.00    +0.121 C 
ATOM      3  N   UNL     1     -11.228   1.529  -5.846  0.00  0.00    -0.295 N 
ATOM      4  C   UNL     1     -10.748   0.239  -6.398  0.00  0.00    +0.115 C 
ATOM      5  C   UNL     1      -9.211   0.347  -6.350  0.00  0.00    -0.004 C 
ATOM      6  C   UNL     1      -8.599  -1.001  -5.980  0.00  0.00    -0.010 C 
ATOM      7  C   UNL     1      -8.862  -2.003  -7.108  0.00  0.00    -0.082 C 
ATOM      8  N   UNL     1      -8.274  -1.502  -8.357  0.00  0.00    +0.379 N 
ATOM      9  C   UNL     1      -8.932  -0.252  -8.755  0.00  0.00    -0.082 C 
ATOM     10  C   UNL     1      -8.673   0.824  -7.696  0.00  0.00    -0.010 C 
ATOM     11  C   UNL     1     -12.275   2.267  -6.263  0.00  0.00    +0.263 C 
ATOM     12  O   UNL     1     -13.066   1.804  -7.063  0.00  0.00    -0.268 OA
ATOM     13  H   UNL     1      -7.288  -1.332  -8.218  0.00  0.00    -0.086 HD
ATOM     14  H   UNL     1      -8.394  -2.191  -9.084  0.00  0.00    -0.086 HD
ENDROOT
BRANCH  11  15
ATOM     15  C   UNL     1     -12.462   3.629  -5.752  0.00  0.00    +0.104 A 
ATOM     16  C   UNL     1     -11.504   4.408  -5.137  0.00  0.00    +0.032 A 
ATOM     17  C   UNL     1     -12.110   5.626  -4.814  0.00  0.00    +0.020 A 
ATOM     18  C   UNL     1     -13.399   5.572  -5.227  0.00  0.00    +0.086 A 
ATOM     19  N   UNL     1     -13.624   4.366  -5.804  0.00  0.00    -0.346 N 
ATOM     20  C   UNL     1     -14.893   3.919  -6.383  0.00  0.00    +0.149 C 
ENDBRANCH  11  15
BRANCH   1  22
ATOM     21  N   UNL     1      -6.755   0.747  -4.226  0.00  0.00    -0.315 N 
ATOM     22  C   UNL     1      -8.100   0.763  -4.150  0.00  0.00    +0.218 C 
ATOM     23  O   UNL     1      -8.659   0.277  -3.190  0.00  0.00    -0.275 OA
ATOM     24  H   UNL     1      -6.307   1.136  -4.993  0.00  0.00    +0.149 HD
BRANCH  21  25
ATOM     25  C   UNL     1      -5.968   0.141  -3.148  0.00  0.00    +0.109 C 
BRANCH  25  26
ATOM     26  C   UNL     1      -4.478   0.254  -3.479  0.00  0.00    +0.056 C 
BRANCH  26  33
ATOM     27  C   UNL     1      -1.277  -3.265   0.606  0.00  0.00    +0.046 C 
ATOM     28  C   UNL     1      -2.096  -3.135  -0.653  0.00  0.00    -0.027 A 
ATOM     29  C   UNL     1      -2.381  -4.250  -1.411  0.00  0.00    +0.005 A 
ATOM     30  C   UNL     1      -3.134  -4.144  -2.572  0.00  0.00    +0.001 A 
ATOM     31  C   UNL     1      -3.607  -2.930  -2.983  0.00  0.00    +0.010 A 
ATOM     32  C   UNL     1      -3.331  -1.787  -2.230  0.00  0.00    +0.003 A 
ATOM     33  C   UNL     1      -3.669  -0.369  -2.371  0.00  0.00    -0.021 A 
ATOM     34  C   UNL     1      -3.120   0.271  -1.327  0.00  0.00    +0.087 A 
ATOM     35  N   UNL     1      -2.458  -0.621  -0.528  0.00  0.00    -0.360 N 
ATOM     36  C   UNL     1      -2.572  -1.891  -1.050  0.00  0.00    +0.050 A 
ATOM     37  H   UNL     1      -1.983  -0.394   0.286  0.00  0.00    +0.165 HD
ENDBRANCH  26  33
ENDBRANCH  25  26
ENDBRANCH  21  25
ENDBRANCH   1  22
TORSDOF 5
