REMARK  Name = ZINC38546970
REMARK  8 active torsions:
REMARK  status: ('A' for Active; 'I' for Inactive)
REMARK    1  A    between atoms: C_1  and  C_2
REMARK    2  A    between atoms: C_6  and  N_8
REMARK    3  A    between atoms: N_8  and  C_9
REMARK    4  A    between atoms: C_9  and  C_11
REMARK    5  A    between atoms: C_9  and  C_18
REMARK    6  A    between atoms: C_20  and  C_31
REMARK    7  A    between atoms: C_22  and  N_23
REMARK    8  A    between atoms: C_24  and  C_26
REMARK                            x       y       z     vdW  Elec       q    Type
REMARK                         _______ _______ _______ _____ _____    ______ ____
ROOT
ATOM      1  C   UNL     1       0.069  -4.101   2.466  0.00  0.00    +0.135 C 
ENDROOT
BRANCH   1   2
ATOM      2  C   UNL     1      -1.341  -4.626   2.366  0.00  0.00    -0.023 A 
ATOM      3  C   UNL     1      -2.368  -3.978   3.027  0.00  0.00    +0.008 A 
ATOM      4  C   UNL     1      -3.660  -4.458   2.936  0.00  0.00    +0.038 A 
ATOM      5  C   UNL     1      -3.926  -5.589   2.183  0.00  0.00    +0.123 A 
ATOM      6  C   UNL     1      -2.897  -6.237   1.522  0.00  0.00    +0.038 A 
ATOM      7  C   UNL     1      -1.606  -5.752   1.610  0.00  0.00    +0.008 A 
ATOM      8  F   UNL     1      -5.190  -6.060   2.094  0.00  0.00    -0.205 F 
ENDBRANCH   1   2
BRANCH   1   9
ATOM      9  C   UNL     1       0.681  -4.549   3.768  0.00  0.00    +0.006 A 
ATOM     10  C   UNL     1       0.646  -3.729   4.881  0.00  0.00    +0.018 A 
ATOM     11  C   UNL     1       1.206  -4.163   6.036  0.00  0.00    -0.011 A 
ATOM     12  S   UNL     1       1.811  -5.778   5.573  0.00  0.00    -0.078 S 
ATOM     13  C   UNL     1       1.274  -5.772   3.871  0.00  0.00    +0.078 A 
ATOM     14  C   UNL     1       1.295  -3.463   7.367  0.00  0.00    +0.051 C 
BRANCH  13  15
ATOM     15  N   UNL     1       1.423  -6.761   2.897  0.00  0.00    -0.273 N 
ATOM     16  C   UNL     1       2.048  -7.917   3.201  0.00  0.00    +0.284 C 
ATOM     17  O   UNL     1       2.481  -8.097   4.324  0.00  0.00    -0.266 OA
ATOM     18  H   UNL     1       1.078  -6.618   2.002  0.00  0.00    +0.156 HD
BRANCH  16  19
ATOM     19  C   UNL     1       2.205  -8.956   2.179  0.00  0.00    +0.189 A 
ATOM     20  C   UNL     1       2.809 -10.168   2.354  0.00  0.00    +0.054 A 
ATOM     21  C   UNL     1       2.733 -10.838   1.123  0.00  0.00    +0.042 A 
ATOM     22  C   UNL     1       2.095 -10.015   0.261  0.00  0.00    +0.196 A 
ATOM     23  O   UNL     1       1.774  -8.884   0.903  0.00  0.00    -0.458 OA
ENDBRANCH  16  19
ENDBRANCH  13  15
ENDBRANCH   1   9
BRANCH   1  24
ATOM     24  N   UNL     1       0.049  -2.637   2.414  0.00  0.00    -0.320 N 
ATOM     25  H   UNL     1       0.046  -2.122   3.236  0.00  0.00    +0.148 HD
BRANCH  24  31
ATOM     26  C   UNL     1      -0.018   1.503   0.010  0.00  0.00    +0.063 C 
ATOM     27  C   UNL     1       0.002  -0.004   0.002  0.00  0.00    +0.014 A 
ATOM     28  C   UNL     1       0.005  -0.679  -1.202  0.00  0.00    +0.021 A 
ATOM     29  C   UNL     1       0.024  -2.067  -1.204  0.00  0.00    +0.005 A 
ATOM     30  C   UNL     1       0.039  -2.729   0.011  0.00  0.00    +0.041 A 
ATOM     31  C   UNL     1       0.035  -1.985   1.186  0.00  0.00    +0.097 A 
ATOM     32  N   UNL     1       0.022  -0.661   1.146  0.00  0.00    -0.347 N 
ATOM     33  H   UNL     1       0.023  -0.163   1.978  0.00  0.00    +0.167 HD
ENDBRANCH  24  31
ENDBRANCH   1  24
TORSDOF 6
