REMARK  Name = ZINC62038985
REMARK  10 active torsions:
REMARK  status: ('A' for Active; 'I' for Inactive)
REMARK    1  A    between atoms: C_1  and  C_2
REMARK    2  A    between atoms: C_4  and  C_10
REMARK    3  A    between atoms: C_7  and  O_8
REMARK    4  A    between atoms: O_8  and  C_9
REMARK    5  A    between atoms: C_18  and  S_20
REMARK    6  A    between atoms: S_20  and  C_21
REMARK    7  A    between atoms: C_21  and  C_22
REMARK    8  A    between atoms: N_24  and  C_25
REMARK    9  A    between atoms: C_27  and  N_32
REMARK   10  A    between atoms: C_30  and  O_31
REMARK                            x       y       z     vdW  Elec       q    Type
REMARK                         _______ _______ _______ _____ _____    ______ ____
ROOT
ATOM      1  C   UNL     1       0.075  -2.767  -2.523  0.00  0.00    +0.004 A 
ATOM      2  C   UNL     1      -0.818  -2.464  -3.495  0.00  0.00    +0.056 A 
ATOM      3  S   UNL     1      -0.407  -3.610  -4.798  0.00  0.00    -0.078 S 
ATOM      4  C   UNL     1       0.938  -4.454  -4.012  0.00  0.00    +0.093 A 
ATOM      5  C   UNL     1       1.043  -3.832  -2.767  0.00  0.00    +0.080 A 
ATOM      6  C   UNL     1       2.115  -4.350  -1.887  0.00  0.00    +0.283 A 
ATOM      7  O   UNL     1       2.284  -3.874  -0.775  0.00  0.00    -0.265 OA
ATOM      8  N   UNL     1       2.894  -5.345  -2.320  0.00  0.00    -0.185 NA
ATOM      9  C   UNL     1       2.748  -5.888  -3.510  0.00  0.00    +0.171 A 
ATOM     10  N   UNL     1       1.776  -5.467  -4.368  0.00  0.00    -0.328 N 
ATOM     11  H   UNL     1       1.688  -5.883  -5.240  0.00  0.00    +0.168 HD
ENDROOT
BRANCH   1  15
ATOM     12  C   UNL     1       0.056   1.559  -0.034  0.00  0.00    +0.047 C 
ATOM     13  C   UNL     1       0.065   0.052  -0.038  0.00  0.00    -0.008 A 
ATOM     14  C   UNL     1       0.066  -0.633  -1.236  0.00  0.00    +0.015 A 
ATOM     15  C   UNL     1       0.074  -2.027  -1.239  0.00  0.00    -0.016 A 
ATOM     16  C   UNL     1       0.081  -2.724  -0.031  0.00  0.00    +0.012 A 
ATOM     17  C   UNL     1       0.080  -2.032   1.162  0.00  0.00    +0.046 A 
ATOM     18  C   UNL     1       0.077  -0.644   1.162  0.00  0.00    +0.123 A 
BRANCH  18  19
ATOM     19  O   UNL     1       0.082   0.034   2.340  0.00  0.00    -0.495 OA
ATOM     20  C   UNL     1       0.095  -0.745   3.537  0.00  0.00    +0.277 C 
ENDBRANCH  18  19
ENDBRANCH   1  15
BRANCH   9  21
ATOM     21  S   UNL     1       3.822  -7.196  -3.999  0.00  0.00    -0.078 S 
BRANCH  21  22
ATOM     22  C   UNL     1       4.917  -7.422  -2.571  0.00  0.00    +0.173 C 
BRANCH  22  23
ATOM     23  C   UNL     1       5.900  -8.527  -2.860  0.00  0.00    +0.228 C 
ATOM     24  O   UNL     1       5.865  -9.106  -3.926  0.00  0.00    -0.275 OA
ATOM     25  N   UNL     1       6.818  -8.873  -1.936  0.00  0.00    -0.282 N 
ATOM     26  H   UNL     1       6.888  -8.368  -1.110  0.00  0.00    +0.155 HD
BRANCH  25  27
ATOM     27  C   UNL     1       7.670  -9.961  -2.167  0.00  0.00    +0.078 A 
ATOM     28  C   UNL     1       8.116 -10.234  -3.452  0.00  0.00    +0.059 A 
ATOM     29  C   UNL     1       8.956 -11.308  -3.677  0.00  0.00    +0.128 A 
ATOM     30  C   UNL     1       9.354 -12.112  -2.625  0.00  0.00    +0.036 A 
ATOM     31  C   UNL     1       8.913 -11.846  -1.342  0.00  0.00    +0.049 A 
ATOM     32  C   UNL     1       8.076 -10.768  -1.107  0.00  0.00    +0.138 A 
BRANCH  29  33
ATOM     33  N   UNL     1       9.431 -11.598  -5.049  0.00  0.00    +0.056 N 
ATOM     34  O   UNL     1       9.083 -10.897  -5.970  0.00  0.00    -0.126 OA
ATOM     35  O   UNL     1      10.166 -12.537  -5.248  0.00  0.00    -0.126 OA
ENDBRANCH  29  33
BRANCH  32  36
ATOM     36  O   UNL     1       7.646 -10.501   0.156  0.00  0.00    -0.505 OA
ATOM     37  H   UNL     1       6.821 -10.946   0.393  0.00  0.00    +0.292 HD
ENDBRANCH  32  36
ENDBRANCH  25  27
ENDBRANCH  22  23
ENDBRANCH  21  22
ENDBRANCH   9  21
TORSDOF 8
