REMARK  Name = ZINC39659638
REMARK  7 active torsions:
REMARK  status: ('A' for Active; 'I' for Inactive)
REMARK    1  A    between atoms: C_1  and  C_2
REMARK    2  A    between atoms: C_2  and  C_36
REMARK    3  A    between atoms: C_5  and  C_8
REMARK    4  A    between atoms: C_8  and  N_9
REMARK    5  A    between atoms: C_10  and  C_12
REMARK    6  A    between atoms: C_23  and  C_25
REMARK    7  A    between atoms: C_28  and  C_30
REMARK                            x       y       z     vdW  Elec       q    Type
REMARK                         _______ _______ _______ _____ _____    ______ ____
ROOT
ATOM      1  C   UNL     1       3.020  -2.669   5.320  0.00  0.00    +0.100 C 
ATOM      2  C   UNL     1       4.201  -1.840   4.766  0.00  0.00    +0.121 C 
ATOM      3  N   UNL     1       5.368  -2.268   5.573  0.00  0.00    -0.294 N 
ATOM      4  C   UNL     1       5.187  -3.730   5.738  0.00  0.00    +0.115 C 
ATOM      5  C   UNL     1       3.671  -3.908   5.956  0.00  0.00    -0.004 C 
ATOM      6  C   UNL     1       3.185  -5.176   5.261  0.00  0.00    -0.010 C 
ATOM      7  C   UNL     1       3.800  -6.398   5.948  0.00  0.00    -0.082 C 
ATOM      8  N   UNL     1       3.412  -6.413   7.364  0.00  0.00    +0.379 N 
ATOM      9  C   UNL     1       3.963  -5.236   8.046  0.00  0.00    -0.082 C 
ATOM     10  C   UNL     1       3.354  -3.965   7.447  0.00  0.00    -0.010 C 
ATOM     11  C   UNL     1       6.369  -1.500   6.049  0.00  0.00    +0.282 C 
ATOM     12  O   UNL     1       7.265  -2.004   6.701  0.00  0.00    -0.267 OA
ATOM     13  H   UNL     1       2.405  -6.401   7.435  0.00  0.00    -0.086 HD
ATOM     14  H   UNL     1       3.768  -7.250   7.800  0.00  0.00    -0.086 HD
ENDROOT
BRANCH  11  15
ATOM     15  C   UNL     1       6.378  -0.060   5.782  0.00  0.00    +0.190 A 
ATOM     16  C   UNL     1       7.339   0.835   6.202  0.00  0.00    +0.055 A 
ATOM     17  C   UNL     1       6.954   2.093   5.727  0.00  0.00    +0.050 A 
ATOM     18  C   UNL     1       5.785   1.923   5.042  0.00  0.00    +0.136 A 
ATOM     19  O   UNL     1       5.451   0.622   5.076  0.00  0.00    -0.450 OA
BRANCH  18  20
ATOM     20  C   UNL     1       5.018   2.990   4.369  0.00  0.00    +0.017 A 
ATOM     21  C   UNL     1       5.479   4.308   4.396  0.00  0.00    +0.011 A 
ATOM     22  C   UNL     1       4.758   5.301   3.765  0.00  0.00    +0.001 A 
ATOM     23  C   UNL     1       3.580   4.993   3.107  0.00  0.00    +0.000 A 
ATOM     24  C   UNL     1       3.118   3.689   3.076  0.00  0.00    +0.001 A 
ATOM     25  C   UNL     1       3.832   2.686   3.698  0.00  0.00    +0.011 A 
ENDBRANCH  18  20
ENDBRANCH  11  15
BRANCH   1  27
ATOM     26  N   UNL     1       0.786  -3.275   4.448  0.00  0.00    -0.312 N 
ATOM     27  C   UNL     1       2.096  -3.077   4.201  0.00  0.00    +0.218 C 
ATOM     28  O   UNL     1       2.531  -3.227   3.079  0.00  0.00    -0.275 OA
ATOM     29  H   UNL     1       0.438  -3.155   5.345  0.00  0.00    +0.149 HD
BRANCH  26  30
ATOM     30  C   UNL     1      -0.112  -3.672   3.361  0.00  0.00    +0.138 C 
BRANCH  30  35
ATOM     31  C   UNL     1      -4.383  -2.324   5.021  0.00  0.00    +0.074 C 
ATOM     32  C   UNL     1      -3.477  -2.574   3.814  0.00  0.00    +0.165 C 
ATOM     33  O   UNL     1      -3.765  -3.866   3.253  0.00  0.00    -0.347 OA
ATOM     34  C   UNL     1      -2.483  -4.370   2.807  0.00  0.00    +0.196 C 
ATOM     35  C   UNL     1      -1.533  -3.830   3.905  0.00  0.00    +0.164 C 
ATOM     36  O   UNL     1      -2.105  -2.546   4.228  0.00  0.00    -0.342 OA
ATOM     37  C   UNL     1      -3.717  -1.494   2.758  0.00  0.00    +0.074 C 
ENDBRANCH  30  35
ENDBRANCH  26  30
ENDBRANCH   1  27
TORSDOF 5
