REMARK  Name = ZINC15947299
REMARK  6 active torsions:
REMARK  status: ('A' for Active; 'I' for Inactive)
REMARK    1  A    between atoms: C_1  and  C_2
REMARK    2  A    between atoms: C_2  and  N_3
REMARK    3  A    between atoms: C_11  and  O_25
REMARK    4  A    between atoms: C_13  and  C_16
REMARK    5  A    between atoms: C_20  and  C_23
REMARK    6  A    between atoms: C_21  and  O_22
REMARK                            x       y       z     vdW  Elec       q    Type
REMARK                         _______ _______ _______ _____ _____    ______ ____
ROOT
ATOM      1  N   UNL     1      -1.376  -0.512   0.012  0.00  0.00    +0.383 N 
ATOM      2  C   UNL     1      -1.356  -1.976   0.128  0.00  0.00    -0.074 C 
ATOM      3  C   UNL     1      -2.759  -2.500   0.454  0.00  0.00    +0.018 C 
ATOM      4  C   UNL     1      -3.726  -1.917  -0.567  0.00  0.00    -0.027 A 
ATOM      5  C   UNL     1      -3.361  -0.845  -1.310  0.00  0.00    -0.021 A 
ATOM      6  S   UNL     1      -4.760  -0.516  -2.343  0.00  0.00    -0.080 S 
ATOM      7  C   UNL     1      -5.774  -1.720  -1.823  0.00  0.00    +0.080 A 
ATOM      8  C   UNL     1      -5.058  -2.417  -0.841  0.00  0.00    +0.067 A 
ATOM      9  C   UNL     1      -5.727  -3.578  -0.200  0.00  0.00    +0.220 C 
ATOM     10  N   UNL     1      -7.008  -3.726  -0.401  0.00  0.00    -0.223 NA
ATOM     11  C   UNL     1      -7.839  -2.798  -1.157  0.00  0.00    +0.227 C 
ATOM     12  N   UNL     1      -7.057  -2.075  -2.176  0.00  0.00    -0.313 N 
ATOM     13  C   UNL     1      -2.052  -0.124  -1.239  0.00  0.00    -0.035 C 
ATOM     14  H   UNL     1      -7.425  -1.861  -3.048  0.00  0.00    +0.149 HD
ATOM     15  H   UNL     1      -1.873  -0.120   0.798  0.00  0.00    -0.081 HD
ENDROOT
BRANCH  11  16
ATOM     16  C   UNL     1      -8.449  -1.799  -0.208  0.00  0.00    +0.037 A 
ATOM     17  C   UNL     1      -8.647  -0.492  -0.612  0.00  0.00    +0.025 A 
ATOM     18  C   UNL     1      -9.207   0.425   0.258  0.00  0.00    +0.014 A 
ATOM     19  C   UNL     1      -9.570   0.037   1.536  0.00  0.00    +0.021 A 
ATOM     20  C   UNL     1      -9.374  -1.268   1.944  0.00  0.00    -0.008 A 
ATOM     21  C   UNL     1      -8.818  -2.191   1.070  0.00  0.00    +0.127 A 
ATOM     22  C   UNL     1      -9.770  -1.690   3.336  0.00  0.00    +0.047 C 
ATOM     23  I   UNL     1      -9.506   2.405  -0.358  0.00  0.00    -0.044 I 
BRANCH  21  24
ATOM     24  O   UNL     1      -8.629  -3.477   1.468  0.00  0.00    -0.506 OA
ATOM     25  H   UNL     1      -7.769  -3.639   1.880  0.00  0.00    +0.292 HD
ENDBRANCH  21  24
ENDBRANCH  11  16
BRANCH   1  27
ATOM     26  C   UNL     1      -0.019   1.526   0.010  0.00  0.00    -0.017 C 
ATOM     27  C   UNL     1       0.002  -0.004   0.002  0.00  0.00    -0.082 C 
ENDBRANCH   1  27
BRANCH   9  28
ATOM     28  O   UNL     1      -5.033  -4.452   0.565  0.00  0.00    -0.492 OA
ATOM     29  H   UNL     1      -5.570  -5.168   0.931  0.00  0.00    +0.294 HD
ENDBRANCH   9  28
TORSDOF 4
