REMARK  Name = ZINC39307018
REMARK  7 active torsions:
REMARK  status: ('A' for Active; 'I' for Inactive)
REMARK    1  A    between atoms: C_1  and  C_2
REMARK    2  A    between atoms: C_5  and  N_9
REMARK    3  A    between atoms: C_6  and  C_7
REMARK    4  A    between atoms: C_10  and  C_12
REMARK    5  A    between atoms: C_12  and  N_13
REMARK    6  A    between atoms: C_16  and  C_19
REMARK    7  A    between atoms: C_16  and  O_26
REMARK                            x       y       z     vdW  Elec       q    Type
REMARK                         _______ _______ _______ _____ _____    ______ ____
ROOT
ATOM      1  N   UNL     1       0.105  -6.806   2.250  0.00  0.00    +0.386 N 
ATOM      2  C   UNL     1       1.356  -6.990   1.503  0.00  0.00    -0.075 C 
ATOM      3  C   UNL     1       1.342  -8.352   0.805  0.00  0.00    +0.021 C 
ATOM      4  C   UNL     1       1.206  -9.457   1.857  0.00  0.00    +0.088 C 
ATOM      5  C   UNL     1      -0.063  -9.213   2.679  0.00  0.00    +0.021 C 
ATOM      6  C   UNL     1       0.003  -7.819   3.307  0.00  0.00    -0.075 C 
ATOM      7  H   UNL     1      -0.677  -6.899   1.619  0.00  0.00    -0.081 HD
ENDROOT
BRANCH   4   8
ATOM      8  C   UNL     1       1.113 -10.796   1.172  0.00  0.00    -0.016 A 
ATOM      9  C   UNL     1       0.555 -10.890  -0.089  0.00  0.00    +0.007 A 
ATOM     10  C   UNL     1       0.470 -12.118  -0.718  0.00  0.00    +0.015 A 
ATOM     11  C   UNL     1       0.944 -13.253  -0.085  0.00  0.00    +0.018 A 
ATOM     12  C   UNL     1       1.503 -13.159   1.177  0.00  0.00    +0.015 A 
ATOM     13  C   UNL     1       1.592 -11.930   1.803  0.00  0.00    +0.007 A 
ATOM     14 BR   UNL     1       0.827 -14.933  -0.944  0.00  0.00    -0.050 Br
ENDBRANCH   4   8
BRANCH   4  15
ATOM     15  O   UNL     1       2.345  -9.438   2.720  0.00  0.00    -0.384 OA
ATOM     16  H   UNL     1       2.326 -10.113   3.412  0.00  0.00    +0.211 HD
ENDBRANCH   4  15
BRANCH   1  17
ATOM     17  C   UNL     1       0.090  -5.467   2.853  0.00  0.00    +0.019 C 
BRANCH  17  19
ATOM     18  N   UNL     1       0.054  -3.116   2.084  0.00  0.00    -0.281 N 
ATOM     19  C   UNL     1       0.071  -4.426   1.764  0.00  0.00    +0.201 C 
ATOM     20  O   UNL     1       0.070  -4.765   0.600  0.00  0.00    -0.278 OA
ATOM     21  H   UNL     1       0.055  -2.845   3.015  0.00  0.00    +0.155 HD
BRANCH  18  26
ATOM     22  C   UNL     1      -0.018   1.503   0.010  0.00  0.00    +0.045 C 
ATOM     23  C   UNL     1       0.002  -0.004   0.002  0.00  0.00    -0.024 A 
ATOM     24  C   UNL     1       0.007  -0.713  -1.143  0.00  0.00    +0.051 A 
ATOM     25  S   UNL     1       0.033  -2.401  -0.579  0.00  0.00    -0.080 S 
ATOM     26  C   UNL     1       0.037  -2.157   1.081  0.00  0.00    +0.089 A 
ATOM     27  C   UNL     1       0.024  -0.778   1.222  0.00  0.00    +0.083 A 
BRANCH  27  28
ATOM     28  C   UNL     1       0.027  -0.152   2.510  0.00  0.00    +0.102 C 
ATOM     29  N   UNL     1       0.030   0.344   3.532  0.00  0.00    -0.191 NA
ENDBRANCH  27  28
ENDBRANCH  18  26
ENDBRANCH  17  19
ENDBRANCH   1  17
TORSDOF 6
