REMARK  Name = ZINC21082584
REMARK  12 active torsions:
REMARK  status: ('A' for Active; 'I' for Inactive)
REMARK    1  A    between atoms: C_1  and  C_2
REMARK    2  A    between atoms: C_2  and  C_3
REMARK    3  A    between atoms: C_2  and  C_4
REMARK    4  A    between atoms: C_4  and  N_5
REMARK    5  A    between atoms: C_6  and  N_29
REMARK    6  A    between atoms: C_7  and  N_14
REMARK    7  A    between atoms: N_14  and  C_15
REMARK    8  A    between atoms: C_15  and  C_16
REMARK    9  A    between atoms: C_16  and  C_17
REMARK   10  A    between atoms: C_16  and  C_18
REMARK   11  A    between atoms: C_19  and  C_21
REMARK   12  A    between atoms: C_21  and  C_22
REMARK                            x       y       z     vdW  Elec       q    Type
REMARK                         _______ _______ _______ _____ _____    ______ ____
ROOT
ATOM      1  N   UNL     1      -1.333   2.119  -5.959  0.00  0.00    -0.280 N 
ATOM      2  C   UNL     1      -0.534   1.861  -4.869  0.00  0.00    +0.127 A 
ATOM      3  C   UNL     1      -1.121   1.469  -3.683  0.00  0.00    +0.140 A 
ATOM      4  C   UNL     1      -2.522   1.356  -3.622  0.00  0.00    +0.277 A 
ATOM      5  O   UNL     1      -3.066   1.016  -2.585  0.00  0.00    -0.266 OA
ATOM      6  N   UNL     1      -3.259   1.626  -4.718  0.00  0.00    -0.273 N 
ATOM      7  H   UNL     1      -4.354   1.540  -4.679  0.00  0.00    +0.173 HD
ATOM      8  C   UNL     1      -2.670   2.002  -5.867  0.00  0.00    +0.331 A 
ATOM      9  O   UNL     1      -3.358   2.240  -6.840  0.00  0.00    -0.246 OA
ENDROOT
BRANCH   3  10
ATOM     10  N   UNL     1      -0.329   1.191  -2.549  0.00  0.00    -0.264 N 
ATOM     11  C   UNL     1      -0.420   1.974  -1.454  0.00  0.00    +0.224 C 
ATOM     12  O   UNL     1       0.319   1.786  -0.510  0.00  0.00    -0.275 OA
BRANCH  10  13
ATOM     13  C   UNL     1       0.593   0.052  -2.560  0.00  0.00    +0.117 C 
BRANCH  13  14
ATOM     14  C   UNL     1      -0.164  -1.220  -2.171  0.00  0.00    +0.001 C 
ATOM     15  C   UNL     1       0.771  -2.425  -2.289  0.00  0.00    +0.009 C 
ATOM     16  C   UNL     1      -0.660  -1.098  -0.729  0.00  0.00    +0.009 C 
ENDBRANCH  13  14
ENDBRANCH  10  13
BRANCH  11  17
ATOM     17  C   UNL     1      -1.440   3.083  -1.403  0.00  0.00    +0.131 C 
BRANCH  17  18
ATOM     18  C   UNL     1      -1.378   3.761  -0.059  0.00  0.00    -0.039 A 
ATOM     19  C   UNL     1      -2.168   3.307   0.981  0.00  0.00    +0.005 A 
ATOM     20  C   UNL     1      -2.109   3.925   2.215  0.00  0.00    +0.015 A 
ATOM     21  C   UNL     1      -1.266   5.005   2.408  0.00  0.00    +0.018 A 
ATOM     22  C   UNL     1      -0.480   5.462   1.366  0.00  0.00    +0.015 A 
ATOM     23  C   UNL     1      -0.536   4.840   0.133  0.00  0.00    +0.005 A 
ATOM     24 BR   UNL     1      -1.189   5.856   4.095  0.00  0.00    -0.050 Br
ENDBRANCH  17  18
ENDBRANCH  11  17
ENDBRANCH   3  10
BRANCH   2  25
ATOM     25  N   UNL     1       0.831   1.986  -4.962  0.00  0.00    -0.343 N 
ATOM     26  H   UNL     1       1.463   1.778  -4.086  0.00  0.00    +0.144 HD
ATOM     27  H   UNL     1       1.292   2.296  -5.912  0.00  0.00    +0.144 HD
ENDBRANCH   2  25
BRANCH   1  28
ATOM     28  C   UNL     1      -0.723   2.530  -7.226  0.00  0.00    +0.131 C 
BRANCH  28  30
ATOM     29  C   UNL     1       0.144   4.478  -8.530  0.00  0.00    +0.009 C 
ATOM     30  C   UNL     1      -0.604   4.055  -7.264  0.00  0.00    +0.003 C 
ATOM     31  C   UNL     1      -2.002   4.676  -7.266  0.00  0.00    +0.009 C 
ENDBRANCH  28  30
ENDBRANCH   1  28
TORSDOF 8
