REMARK  Name = ZINC39668840
REMARK  4 active torsions:
REMARK  status: ('A' for Active; 'I' for Inactive)
REMARK    1  A    between atoms: C_10  and  C_12
REMARK    2  A    between atoms: C_12  and  N_13
REMARK    3  A    between atoms: C_14  and  C_16
REMARK    4  A    between atoms: C_27  and  C_29
REMARK                            x       y       z     vdW  Elec       q    Type
REMARK                         _______ _______ _______ _____ _____    ______ ____
ROOT
ATOM      1  C   UNL     1       7.968  -0.961   2.033  0.00  0.00    +0.100 C 
ATOM      2  C   UNL     1       8.171  -2.474   2.272  0.00  0.00    +0.121 C 
ATOM      3  N   UNL     1       9.504  -2.577   2.911  0.00  0.00    -0.296 N 
ATOM      4  C   UNL     1       9.559  -1.421   3.837  0.00  0.00    +0.115 C 
ATOM      5  C   UNL     1       8.880  -0.273   3.063  0.00  0.00    -0.004 C 
ATOM      6  C   UNL     1       8.051   0.586   4.013  0.00  0.00    -0.010 C 
ATOM      7  C   UNL     1       8.985   1.305   4.990  0.00  0.00    -0.082 C 
ATOM      8  N   UNL     1       9.930   2.142   4.242  0.00  0.00    +0.379 N 
ATOM      9  C   UNL     1      10.787   1.298   3.400  0.00  0.00    -0.082 C 
ATOM     10  C   UNL     1       9.929   0.579   2.354  0.00  0.00    -0.010 C 
ATOM     11  C   UNL     1      10.452  -3.511   2.699  0.00  0.00    +0.247 C 
ATOM     12  O   UNL     1      10.311  -4.328   1.810  0.00  0.00    -0.270 OA
ATOM     13  H   UNL     1       9.418   2.786   3.659  0.00  0.00    -0.086 HD
ATOM     14  H   UNL     1      10.504   2.661   4.889  0.00  0.00    -0.086 HD
ENDROOT
BRANCH  11  15
ATOM     15  C   UNL     1      11.662  -3.541   3.546  0.00  0.00    +0.038 A 
ATOM     16  C   UNL     1      11.655  -2.928   4.801  0.00  0.00    +0.014 A 
ATOM     17  C   UNL     1      12.787  -2.959   5.587  0.00  0.00    +0.022 A 
ATOM     18  C   UNL     1      13.930  -3.597   5.136  0.00  0.00    +0.059 A 
ATOM     19  C   UNL     1      13.944  -4.208   3.892  0.00  0.00    +0.060 A 
ATOM     20  C   UNL     1      12.815  -4.188   3.098  0.00  0.00    +0.034 A 
ATOM     21 CL   UNL     1      15.382  -5.005   3.334  0.00  0.00    -0.082 Cl
ATOM     22 CL   UNL     1      15.352  -3.631   6.132  0.00  0.00    -0.082 Cl
ENDBRANCH  11  15
BRANCH   1  24
ATOM     23  N   UNL     1       5.984   0.447   1.588  0.00  0.00    -0.312 N 
ATOM     24  C   UNL     1       6.530  -0.580   2.269  0.00  0.00    +0.218 C 
ATOM     25  O   UNL     1       5.863  -1.197   3.072  0.00  0.00    -0.275 OA
ATOM     26  H   UNL     1       6.517   0.941   0.945  0.00  0.00    +0.149 HD
BRANCH  23  27
ATOM     27  C   UNL     1       4.585   0.817   1.817  0.00  0.00    +0.140 C 
BRANCH  27  37
ATOM     28  C   UNL     1       0.270   3.304   1.923  0.00  0.00    +0.000 A 
ATOM     29  C   UNL     1       1.173   2.980   2.917  0.00  0.00    +0.000 A 
ATOM     30  C   UNL     1       2.445   2.560   2.581  0.00  0.00    +0.006 A 
ATOM     31  C   UNL     1       2.820   2.460   1.250  0.00  0.00    -0.014 A 
ATOM     32  C   UNL     1       1.917   2.780   0.258  0.00  0.00    -0.040 A 
ATOM     33  C   UNL     1       0.641   3.204   0.597  0.00  0.00    +0.004 A 
ATOM     34  C   UNL     1       2.283   2.672  -1.200  0.00  0.00    +0.063 C 
ATOM     35  C   UNL     1       3.804   2.602  -1.348  0.00  0.00    +0.165 C 
ATOM     36  O   UNL     1       4.303   1.610  -0.445  0.00  0.00    -0.370 OA
ATOM     37  C   UNL     1       4.218   2.004   0.924  0.00  0.00    +0.165 C 
ENDBRANCH  27  37
ENDBRANCH  23  27
ENDBRANCH   1  24
TORSDOF 4
