REMARK  Name = ZINC36581632
REMARK  17 active torsions:
REMARK  status: ('A' for Active; 'I' for Inactive)
REMARK    1  A    between atoms: C_1  and  C_2
REMARK    2  A    between atoms: C_2  and  C_3
REMARK    3  A    between atoms: C_3  and  C_4
REMARK    4  A    between atoms: C_4  and  N_5
REMARK    5  A    between atoms: C_6  and  C_8
REMARK    6  A    between atoms: C_8  and  C_10
REMARK    7  A    between atoms: C_8  and  N_19
REMARK    8  A    between atoms: C_11  and  O_18
REMARK    9  A    between atoms: C_13  and  O_17
REMARK   10  A    between atoms: C_15  and  O_16
REMARK   11  A    between atoms: N_19  and  C_30
REMARK   12  A    between atoms: C_20  and  C_22
REMARK   13  A    between atoms: C_22  and  C_23
REMARK   14  A    between atoms: C_23  and  C_24
REMARK   15  A    between atoms: C_30  and  C_31
REMARK   16  A    between atoms: C_30  and  C_32
REMARK   17  A    between atoms: C_30  and  C_33
REMARK                            x       y       z     vdW  Elec       q    Type
REMARK                         _______ _______ _______ _____ _____    ______ ____
ROOT
ATOM      1  C   UNL     1      -4.095  -4.015   0.507  0.00  0.00    +0.200 C 
ENDROOT
BRANCH   1   2
ATOM      2  C   UNL     1      -5.092  -3.413  -0.449  0.00  0.00    +0.065 A 
ATOM      3  C   UNL     1      -6.399  -3.875  -0.469  0.00  0.00    +0.129 A 
ATOM      4  C   UNL     1      -7.317  -3.321  -1.349  0.00  0.00    +0.091 A 
ATOM      5  C   UNL     1      -6.928  -2.304  -2.208  0.00  0.00    +0.124 A 
ATOM      6  C   UNL     1      -5.620  -1.841  -2.187  0.00  0.00    +0.091 A 
ATOM      7  C   UNL     1      -4.704  -2.392  -1.304  0.00  0.00    +0.129 A 
BRANCH   7   8
ATOM      8  O   UNL     1      -3.424  -1.935  -1.280  0.00  0.00    -0.506 OA
ATOM      9  H   UNL     1      -2.829  -2.401  -1.883  0.00  0.00    +0.292 HD
ENDBRANCH   7   8
BRANCH   5  10
ATOM     10  O   UNL     1      -7.827  -1.762  -3.070  0.00  0.00    -0.507 OA
ATOM     11  H   UNL     1      -8.309  -1.005  -2.711  0.00  0.00    +0.292 HD
ENDBRANCH   5  10
BRANCH   3  12
ATOM     12  O   UNL     1      -6.781  -4.872   0.372  0.00  0.00    -0.506 OA
ATOM     13  H   UNL     1      -7.051  -4.565   1.248  0.00  0.00    +0.292 HD
ENDBRANCH   3  12
ENDBRANCH   1   2
BRANCH   1  15
ATOM     14  N   UNL     1      -4.499  -2.717   2.574  0.00  0.00    -0.313 N 
ATOM     15  C   UNL     1      -4.611  -3.889   1.917  0.00  0.00    +0.238 C 
ATOM     16  O   UNL     1      -5.128  -4.842   2.462  0.00  0.00    -0.273 OA
ATOM     17  H   UNL     1      -4.086  -1.955   2.138  0.00  0.00    +0.149 HD
BRANCH  14  18
ATOM     18  C   UNL     1      -5.001  -2.594   3.944  0.00  0.00    +0.104 C 
BRANCH  18  19
ATOM     19  C   UNL     1      -4.752  -1.173   4.453  0.00  0.00    +0.018 C 
BRANCH  19  21
ATOM     20  C   UNL     1      -5.027   0.376   6.394  0.00  0.00    +0.004 C 
ATOM     21  C   UNL     1      -5.276  -1.045   5.885  0.00  0.00    -0.002 C 
ENDBRANCH  19  21
ENDBRANCH  18  19
ENDBRANCH  14  18
ENDBRANCH   1  15
BRANCH   1  22
ATOM     22  N   UNL     1      -3.901  -5.431   0.183  0.00  0.00    -0.281 N 
ATOM     23  C   UNL     1      -4.573  -5.985  -0.846  0.00  0.00    +0.217 C 
ATOM     24  O   UNL     1      -5.245  -5.288  -1.576  0.00  0.00    -0.276 OA
BRANCH  22  25
ATOM     25  C   UNL     1      -2.977  -6.244   0.977  0.00  0.00    +0.030 C 
ATOM     26  C   UNL     1      -2.509  -5.443   2.194  0.00  0.00    +0.031 C 
ATOM     27  C   UNL     1      -3.688  -7.515   1.445  0.00  0.00    +0.031 C 
ATOM     28  C   UNL     1      -1.767  -6.623   0.120  0.00  0.00    +0.031 C 
ENDBRANCH  22  25
BRANCH  23  29
ATOM     29  C   UNL     1      -4.490  -7.470  -1.087  0.00  0.00    +0.096 C 
BRANCH  29  30
ATOM     30  C   UNL     1      -5.132  -7.804  -2.436  0.00  0.00    +0.013 C 
BRANCH  30  31
ATOM     31  C   UNL     1      -5.047  -9.312  -2.681  0.00  0.00    -0.011 C 
ATOM     32  C   UNL     1      -3.580  -9.724  -2.818  0.00  0.00    +0.003 C 
ATOM     33  C   UNL     1      -3.496 -11.232  -3.064  0.00  0.00    +0.000 C 
ATOM     34  C   UNL     1      -4.246 -11.582  -4.350  0.00  0.00    +0.000 C 
ATOM     35  C   UNL     1      -5.713 -11.169  -4.213  0.00  0.00    +0.000 C 
ATOM     36  C   UNL     1      -5.798  -9.662  -3.968  0.00  0.00    +0.003 C 
ENDBRANCH  30  31
ENDBRANCH  29  30
ENDBRANCH  23  29
ENDBRANCH   1  22
TORSDOF 13
