REMARK  Name = ZINC65493201
REMARK  12 active torsions:
REMARK  status: ('A' for Active; 'I' for Inactive)
REMARK    1  A    between atoms: C_1  and  C_2
REMARK    2  A    between atoms: C_4  and  CA_9
REMARK    3  A    between atoms: C_5  and  C_8
REMARK    4  A    between atoms: CA_9  and  C_11
REMARK    5  A    between atoms: CA_9  and  N_14
REMARK    6  A    between atoms: N_17  and  C_18
REMARK    7  A    between atoms: C_19  and  C_27
REMARK    8  A    between atoms: C_23  and  C_24
REMARK    9  A    between atoms: C_24  and  C_25
REMARK   10  A    between atoms: C_24  and  C_26
REMARK   11  A    between atoms: C_27  and  C_28
REMARK   12  A    between atoms: C_27  and  C_29
REMARK                            x       y       z     vdW  Elec       q    Type
REMARK                         _______ _______ _______ _____ _____    ______ ____
ROOT
ATOM      1  N   UNL     1      -1.222   0.918  -4.288  0.00  0.00    -0.282 N 
ATOM      2  C   UNL     1      -1.915  -0.157  -4.712  0.00  0.00    +0.305 C 
ATOM      3  O   UNL     1      -1.459  -1.274  -4.556  0.00  0.00    -0.252 OA
ATOM      4  N   UNL     1      -3.112   0.005  -5.308  0.00  0.00    -0.269 N 
ATOM      5  H   UNL     1      -1.585   1.809  -4.412  0.00  0.00    +0.151 HD
ATOM      6  H   UNL     1      -3.504   0.889  -5.377  0.00  0.00    +0.156 HD
ENDROOT
BRANCH   4   7
ATOM      7  C   UNL     1      -3.791  -1.103  -5.829  0.00  0.00    +0.042 A 
ATOM      8  C   UNL     1      -5.066  -1.414  -5.376  0.00  0.00    -0.023 A 
ATOM      9  C   UNL     1      -5.733  -2.508  -5.892  0.00  0.00    +0.006 A 
ATOM     10  C   UNL     1      -5.132  -3.293  -6.858  0.00  0.00    +0.001 A 
ATOM     11  C   UNL     1      -3.862  -2.987  -7.310  0.00  0.00    +0.006 A 
ATOM     12  C   UNL     1      -3.192  -1.891  -6.803  0.00  0.00    -0.023 A 
BRANCH  12  13
ATOM     13  C   UNL     1      -1.810  -1.555  -7.301  0.00  0.00    +0.015 C 
ATOM     14  C   UNL     1      -1.137  -2.821  -7.834  0.00  0.00    +0.012 C 
ATOM     15  C   UNL     1      -1.911  -0.520  -8.423  0.00  0.00    +0.012 C 
ENDBRANCH  12  13
BRANCH   8  16
ATOM     16  C   UNL     1      -5.722  -0.558  -4.323  0.00  0.00    +0.015 C 
ATOM     17  C   UNL     1      -6.998   0.065  -4.893  0.00  0.00    +0.012 C 
ATOM     18  C   UNL     1      -6.074  -1.422  -3.110  0.00  0.00    +0.012 C 
ENDBRANCH   8  16
ENDBRANCH   4   7
BRANCH   1  19
ATOM     19  CA  UNL     1       0.080   0.742  -3.640  0.00  0.00    +0.218 C 
BRANCH  19  22
ATOM     20  C   UNL     1       0.297   3.533  -1.928  0.00  0.00    +0.039 C 
ATOM     21  C   UNL     1       0.529   3.417  -3.436  0.00  0.00    +0.155 C 
ATOM     22  C   UNL     1       0.901   1.994  -3.813  0.00  0.00    +0.010 C 
ATOM     23  C   UNL     1       2.125   2.109  -4.334  0.00  0.00    +0.064 C 
ATOM     24  N   UNL     1       2.533   3.397  -4.320  0.00  0.00    -0.159 NA
ATOM     25  N   UNL     1       1.713   4.192  -3.842  0.00  0.00    -0.180 NA
ATOM     26  C   UNL     1       2.940   0.959  -4.866  0.00  0.00    +0.067 C 
ENDBRANCH  19  22
BRANCH  19  27
ATOM     27  C   UNL     1      -0.122   0.474  -2.171  0.00  0.00    +0.380 C 
ATOM     28  O   UNL     1      -1.226   0.612  -1.672  0.00  0.00    -0.244 OA
ATOM     29  OXT UNL     1       0.818   0.118  -1.481  0.00  0.00    -0.244 OA
ENDBRANCH  19  27
ENDBRANCH   1  19
TORSDOF 6
