REMARK  Name = ZINC01232805
REMARK  2 active torsions:
REMARK  status: ('A' for Active; 'I' for Inactive)
REMARK    1  A    between atoms: N_21  and  C_24
REMARK    2  A    between atoms: C_28  and  O_30
REMARK                            x       y       z     vdW  Elec       q    Type
REMARK                         _______ _______ _______ _____ _____    ______ ____
ROOT
ATOM      1  C   UNL     1       7.559   4.384   3.864  0.00  0.00    +0.000 A 
ATOM      2  C   UNL     1       6.728   5.476   3.695  0.00  0.00    +0.000 A 
ATOM      3  C   UNL     1       6.105   5.717   2.479  0.00  0.00    +0.004 A 
ATOM      4  C   UNL     1       6.324   4.855   1.436  0.00  0.00    -0.035 A 
ATOM      5  C   UNL     1       7.132   3.733   1.634  0.00  0.00    -0.035 A 
ATOM      6  C   UNL     1       7.761   3.495   2.813  0.00  0.00    +0.004 A 
ATOM      7  C   UNL     1       7.197   2.833   0.387  0.00  0.00    +0.062 C 
ATOM      8  C   UNL     1       7.750   3.774  -0.671  0.00  0.00    -0.035 A 
ATOM      9  C   UNL     1       8.868   3.524  -1.420  0.00  0.00    +0.004 A 
ATOM     10  C   UNL     1       9.299   4.486  -2.323  0.00  0.00    +0.000 A 
ATOM     11  C   UNL     1       8.614   5.679  -2.465  0.00  0.00    +0.000 A 
ATOM     12  C   UNL     1       7.460   5.945  -1.681  0.00  0.00    +0.004 A 
ATOM     13  C   UNL     1       7.038   4.977  -0.822  0.00  0.00    -0.035 A 
ATOM     14  C   UNL     1       5.763   5.072   0.038  0.00  0.00    +0.062 C 
ATOM     15  C   UNL     1       5.047   3.822  -0.474  0.00  0.00    +0.100 C 
ATOM     16  C   UNL     1       5.754   2.613   0.194  0.00  0.00    +0.100 C 
ATOM     17  C   UNL     1       4.827   1.521  -0.036  0.00  0.00    +0.231 C 
ATOM     18  O   UNL     1       5.083   0.347  -0.203  0.00  0.00    -0.274 OA
ATOM     19  N   UNL     1       3.591   2.124  -0.020  0.00  0.00    -0.210 N 
ATOM     20  C   UNL     1       3.658   3.496  -0.019  0.00  0.00    +0.231 C 
ATOM     21  O   UNL     1       2.782   4.276   0.286  0.00  0.00    -0.274 OA
ENDROOT
BRANCH  19  22
ATOM     22  C   UNL     1       2.383   1.411  -0.013  0.00  0.00    +0.047 A 
ATOM     23  C   UNL     1       2.396   0.022  -0.021  0.00  0.00    +0.024 A 
ATOM     24  C   UNL     1       1.207  -0.680  -0.013  0.00  0.00    +0.005 A 
ATOM     25  C   UNL     1       0.002  -0.004   0.002  0.00  0.00    +0.045 A 
ATOM     26  C   UNL     1      -0.017   1.383   0.010  0.00  0.00    +0.119 A 
ATOM     27  C   UNL     1       1.175   2.092   0.002  0.00  0.00    +0.069 A 
BRANCH  26  28
ATOM     28  O   UNL     1      -1.202   2.047   0.019  0.00  0.00    -0.507 OA
ATOM     29  H   UNL     1      -1.542   2.235   0.905  0.00  0.00    +0.292 HD
ENDBRANCH  26  28
ENDBRANCH  19  22
TORSDOF 2
