REMARK  Name = ZINC16819439
REMARK  13 active torsions:
REMARK  status: ('A' for Active; 'I' for Inactive)
REMARK    1  A    between atoms: C_1  and  C_2
REMARK    2  A    between atoms: C_2  and  C_4
REMARK    3  A    between atoms: C_2  and  O_15
REMARK    4  A    between atoms: N_6  and  C_7
REMARK    5  A    between atoms: C_8  and  C_12
REMARK    6  A    between atoms: O_15  and  C_16
REMARK    7  A    between atoms: C_16  and  C_18
REMARK    8  A    between atoms: C_18  and  C_20
REMARK    9  A    between atoms: C_18  and  N_24
REMARK   10  A    between atoms: C_20  and  C_21
REMARK   11  A    between atoms: C_21  and  S_22
REMARK   12  A    between atoms: S_22  and  C_23
REMARK   13  A    between atoms: C_25  and  C_27
REMARK                            x       y       z     vdW  Elec       q    Type
REMARK                         _______ _______ _______ _____ _____    ______ ____
ROOT
ATOM      1  C   UNL     1      -0.074   0.981   2.485  0.00  0.00    +0.328 C 
ATOM      2  O   UNL     1       0.413   1.700   3.324  0.00  0.00    -0.249 OA
ENDROOT
BRANCH   1   3
ATOM      3  O   UNL     1      -0.032  -0.352   2.637  0.00  0.00    -0.451 OA
BRANCH   3   5
ATOM      4  C   UNL     1       2.104  -1.077   3.557  0.00  0.00    +0.062 C 
ATOM      5  C   UNL     1       0.615  -0.859   3.834  0.00  0.00    +0.259 C 
BRANCH   5   6
ATOM      6  C   UNL     1      -0.018  -2.167   4.232  0.00  0.00    +0.258 C 
ATOM      7  O   UNL     1      -0.862  -2.673   3.523  0.00  0.00    -0.271 OA
ATOM      8  N   UNL     1       0.353  -2.775   5.376  0.00  0.00    -0.276 N 
ATOM      9  H   UNL     1       1.028  -2.371   5.944  0.00  0.00    +0.155 HD
BRANCH   8  10
ATOM     10  C   UNL     1      -0.230  -3.979   5.742  0.00  0.00    +0.084 A 
ATOM     11  C   UNL     1       0.023  -4.753   6.869  0.00  0.00    +0.065 A 
ATOM     12  C   UNL     1      -0.739  -5.972   7.003  0.00  0.00    +0.022 A 
ATOM     13  C   UNL     1      -1.617  -6.258   6.025  0.00  0.00    +0.048 A 
ATOM     14  S   UNL     1      -1.442  -4.886   4.903  0.00  0.00    -0.081 S 
BRANCH  11  15
ATOM     15  C   UNL     1       1.011  -4.349   7.874  0.00  0.00    +0.244 C 
ATOM     16  O   UNL     1       1.635  -3.314   7.732  0.00  0.00    -0.270 OA
ATOM     17  N   UNL     1       1.229  -5.125   8.954  0.00  0.00    -0.325 N 
ATOM     18  H   UNL     1       0.732  -5.951   9.067  0.00  0.00    +0.145 HD
ATOM     19  H   UNL     1       1.883  -4.858   9.619  0.00  0.00    +0.145 HD
ENDBRANCH  11  15
ENDBRANCH   8  10
ENDBRANCH   5   6
ENDBRANCH   3   5
ENDBRANCH   1   3
BRANCH   1  20
ATOM     20  C   UNL     1      -0.729   1.579   1.267  0.00  0.00    +0.183 C 
BRANCH  20  21
ATOM     21  N   UNL     1      -0.645   3.040   1.336  0.00  0.00    -0.298 N 
ATOM     22  C   UNL     1      -1.547   3.799   0.682  0.00  0.00    +0.246 C 
ATOM     23  O   UNL     1      -2.430   3.271   0.035  0.00  0.00    -0.270 OA
ATOM     24  H   UNL     1       0.060   3.462   1.852  0.00  0.00    +0.150 HD
BRANCH  22  25
ATOM     25  C   UNL     1      -1.462   5.272   0.751  0.00  0.00    +0.055 A 
ATOM     26  C   UNL     1      -0.452   5.882   1.498  0.00  0.00    +0.014 A 
ATOM     27  C   UNL     1      -0.375   7.258   1.554  0.00  0.00    +0.001 A 
ATOM     28  C   UNL     1      -1.302   8.035   0.881  0.00  0.00    +0.001 A 
ATOM     29  C   UNL     1      -2.309   7.439   0.144  0.00  0.00    +0.021 A 
ATOM     30  C   UNL     1      -2.395   6.062   0.074  0.00  0.00    +0.053 A 
ATOM     31 CL   UNL     1      -3.659   5.314  -0.851  0.00  0.00    -0.083 Cl
ENDBRANCH  22  25
ENDBRANCH  20  21
BRANCH  20  32
ATOM     32  C   UNL     1      -0.013   1.086   0.008  0.00  0.00    +0.044 C 
BRANCH  32  33
ATOM     33  C   UNL     1      -0.753   1.593  -1.232  0.00  0.00    +0.071 C 
BRANCH  33  34
ATOM     34  S   UNL     1       0.096   1.008  -2.724  0.00  0.00    -0.164 S 
ATOM     35  C   UNL     1      -0.892   1.685  -4.085  0.00  0.00    +0.084 C 
ENDBRANCH  33  34
ENDBRANCH  32  33
ENDBRANCH  20  32
ENDBRANCH   1  20
TORSDOF 11
