REMARK  Name = ZINC16432651
REMARK  14 active torsions:
REMARK  status: ('A' for Active; 'I' for Inactive)
REMARK    1  A    between atoms: C_1  and  C_2
REMARK    2  A    between atoms: C_2  and  C_3
REMARK    3  A    between atoms: C_8  and  N_9
REMARK    4  A    between atoms: N_12  and  C_13
REMARK    5  A    between atoms: N_12  and  C_33
REMARK    6  A    between atoms: C_13  and  C_14
REMARK    7  A    between atoms: N_16  and  C_17
REMARK    8  A    between atoms: C_19  and  C_29
REMARK    9  A    between atoms: N_21  and  C_22
REMARK   10  A    between atoms: C_29  and  C_30
REMARK   11  A    between atoms: C_29  and  C_31
REMARK   12  A    between atoms: C_29  and  C_32
REMARK   13  A    between atoms: C_33  and  C_34
REMARK   14  A    between atoms: C_33  and  C_35
REMARK                            x       y       z     vdW  Elec       q    Type
REMARK                         _______ _______ _______ _____ _____    ______ ____
ROOT
ATOM      1  C   UNL     1       1.851   7.875   0.030  0.00  0.00    +0.236 C 
ATOM      2  O   UNL     1       2.918   8.441  -0.078  0.00  0.00    -0.274 OA
ATOM      3  N   UNL     1       1.807   6.594   0.449  0.00  0.00    -0.269 N 
ATOM      4  H   UNL     1       0.954   6.141   0.535  0.00  0.00    +0.156 HD
ENDROOT
BRANCH   3   5
ATOM      5  C   UNL     1       2.989   5.921   0.758  0.00  0.00    +0.129 A 
ATOM      6  C   UNL     1       4.237   6.463   0.800  0.00  0.00    +0.069 A 
ATOM      7  C   UNL     1       5.133   5.449   1.149  0.00  0.00    +0.071 A 
ATOM      8  N   UNL     1       4.459   4.340   1.319  0.00  0.00    -0.169 NA
ATOM      9  N   UNL     1       3.105   4.603   1.075  0.00  0.00    -0.217 N 
BRANCH   9  10
ATOM     10  C   UNL     1       2.057   3.675   1.148  0.00  0.00    +0.086 A 
ATOM     11  C   UNL     1       0.904   3.982   1.858  0.00  0.00    +0.029 A 
ATOM     12  C   UNL     1      -0.127   3.066   1.929  0.00  0.00    +0.002 A 
ATOM     13  C   UNL     1      -0.010   1.841   1.298  0.00  0.00    +0.002 A 
ATOM     14  C   UNL     1       1.133   1.533   0.585  0.00  0.00    +0.022 A 
ATOM     15  C   UNL     1       2.169   2.446   0.510  0.00  0.00    +0.066 A 
ATOM     16 CL   UNL     1       3.608   2.057  -0.380  0.00  0.00    -0.081 Cl
ENDBRANCH   9  10
BRANCH   7  17
ATOM     17  C   UNL     1       6.623   5.607   1.310  0.00  0.00    +0.006 C 
ATOM     18  C   UNL     1       6.920   6.329   2.626  0.00  0.00    +0.017 C 
ATOM     19  C   UNL     1       7.284   4.227   1.326  0.00  0.00    +0.017 C 
ATOM     20  C   UNL     1       7.178   6.425   0.143  0.00  0.00    +0.017 C 
ENDBRANCH   7  17
ENDBRANCH   3   5
BRANCH   1  21
ATOM     21  C   UNL     1       0.574   8.602  -0.304  0.00  0.00    +0.205 C 
BRANCH  21  25
ATOM     22  N   UNL     1       0.955   9.261  -2.955  0.00  0.00    -0.269 N 
ATOM     23  C   UNL     1       1.114  10.232  -2.033  0.00  0.00    +0.307 C 
ATOM     24  O   UNL     1       1.461  11.345  -2.377  0.00  0.00    -0.252 OA
ATOM     25  N   UNL     1       0.888   9.968  -0.731  0.00  0.00    -0.274 N 
ATOM     26  H   UNL     1       0.606   8.395  -2.692  0.00  0.00    +0.156 HD
BRANCH  22  32
ATOM     27  C   UNL     1       0.774   8.699  -5.297  0.00  0.00    -0.026 A 
ATOM     28  C   UNL     1       1.111   8.940  -6.615  0.00  0.00    +0.005 A 
ATOM     29  C   UNL     1       1.964   9.980  -6.933  0.00  0.00    +0.000 A 
ATOM     30  C   UNL     1       2.483  10.783  -5.933  0.00  0.00    +0.002 A 
ATOM     31  C   UNL     1       2.147  10.550  -4.614  0.00  0.00    +0.023 A 
ATOM     32  C   UNL     1       1.294   9.502  -4.291  0.00  0.00    +0.038 A 
BRANCH  27  34
ATOM     33  C   UNL     1      -1.587   8.096  -4.838  0.00  0.00    +0.009 C 
ATOM     34  C   UNL     1      -0.156   7.565  -4.951  0.00  0.00    +0.033 C 
ENDBRANCH  27  34
ENDBRANCH  22  32
BRANCH  25  35
ATOM     35  C   UNL     1       0.956  11.047   0.257  0.00  0.00    +0.072 C 
ATOM     36  C   UNL     1       2.369  11.634   0.276  0.00  0.00    +0.028 C 
ATOM     37  C   UNL     1      -0.046  12.142  -0.113  0.00  0.00    +0.028 C 
ENDBRANCH  25  35
ENDBRANCH  21  25
ENDBRANCH   1  21
TORSDOF 8
