REMARK  Name = ZINC14595897
REMARK  7 active torsions:
REMARK  status: ('A' for Active; 'I' for Inactive)
REMARK    1  A    between atoms: C_1  and  C_2
REMARK    2  A    between atoms: C_4  and  C_36
REMARK    3  A    between atoms: N_11  and  C_12
REMARK    4  A    between atoms: C_12  and  C_13
REMARK    5  A    between atoms: C_19  and  C_21
REMARK    6  A    between atoms: C_21  and  N_22
REMARK    7  A    between atoms: C_30  and  C_32
REMARK                            x       y       z     vdW  Elec       q    Type
REMARK                         _______ _______ _______ _____ _____    ______ ____
ROOT
ATOM      1  C   UNL     1      -4.496   5.159   9.005  0.00  0.00    +0.044 C 
ATOM      2  C   UNL     1      -3.918   4.619   7.722  0.00  0.00    -0.049 A 
ATOM      3  C   UNL     1      -2.817   3.776   7.750  0.00  0.00    +0.009 A 
ATOM      4  C   UNL     1      -2.272   3.272   6.598  0.00  0.00    -0.024 A 
ATOM      5  C   UNL     1      -2.821   3.598   5.336  0.00  0.00    +0.083 A 
ATOM      6  C   UNL     1      -3.943   4.458   5.347  0.00  0.00    +0.041 A 
ATOM      7  C   UNL     1      -4.481   4.959   6.506  0.00  0.00    +0.020 A 
ATOM      8  S   UNL     1      -4.311   4.621   3.616  0.00  0.00    -0.052 S 
ATOM      9  C   UNL     1      -3.005   3.564   3.008  0.00  0.00    +0.168 A 
ATOM     10  N   UNL     1      -2.408   3.191   4.116  0.00  0.00    -0.224 NA
ATOM     11  N   UNL     1      -2.695   3.230   1.700  0.00  0.00    -0.245 N 
ATOM     12  C   UNL     1      -1.655   2.414   1.441  0.00  0.00    +0.239 C 
ATOM     13  O   UNL     1      -1.049   1.895   2.354  0.00  0.00    -0.273 OA
ATOM     14  C   UNL     1      -1.075   2.360   6.676  0.00  0.00    +0.046 C 
ENDROOT
BRANCH  11  15
ATOM     15  C   UNL     1      -3.500   3.764   0.598  0.00  0.00    +0.150 C 
BRANCH  15  16
ATOM     16  C   UNL     1      -4.701   2.881   0.379  0.00  0.00    -0.030 A 
ATOM     17  C   UNL     1      -4.660   1.882  -0.576  0.00  0.00    +0.005 A 
ATOM     18  C   UNL     1      -5.760   1.069  -0.773  0.00  0.00    +0.000 A 
ATOM     19  C   UNL     1      -6.905   1.261  -0.023  0.00  0.00    +0.000 A 
ATOM     20  C   UNL     1      -6.948   2.263   0.928  0.00  0.00    +0.000 A 
ATOM     21  C   UNL     1      -5.846   3.073   1.129  0.00  0.00    +0.005 A 
ENDBRANCH  15  16
ENDBRANCH  11  15
BRANCH  12  22
ATOM     22  C   UNL     1      -1.244   2.146   0.016  0.00  0.00    +0.214 C 
BRANCH  22  23
ATOM     23  N   UNL     1      -0.025   1.334   0.004  0.00  0.00    -0.215 N 
ATOM     24  C   UNL     1      -0.012  -0.015  -0.006  0.00  0.00    +0.247 C 
ATOM     25  O   UNL     1      -0.970  -0.758  -0.003  0.00  0.00    -0.273 OA
ATOM     26  C   UNL     1       1.448  -0.405  -0.024  0.00  0.00    +0.115 C 
ATOM     27  C   UNL     1       1.797  -1.213   1.222  0.00  0.00    +0.035 C 
ATOM     28  C   UNL     1       1.012  -2.527   1.215  0.00  0.00    +0.003 C 
ATOM     29  C   UNL     1       1.362  -3.323  -0.045  0.00  0.00    +0.000 C 
ATOM     30  C   UNL     1       0.987  -2.509  -1.285  0.00  0.00    +0.006 C 
ATOM     31  C   UNL     1       1.772  -1.194  -1.287  0.00  0.00    +0.018 C 
ATOM     32  C   UNL     1       1.384  -0.370  -2.517  0.00  0.00    +0.010 C 
ATOM     33  N   UNL     1       2.160   0.879  -0.021  0.00  0.00    -0.285 N 
ATOM     34  C   UNL     1       1.216   1.838  -0.004  0.00  0.00    +0.310 C 
ATOM     35  O   UNL     1       1.461   3.029   0.002  0.00  0.00    -0.252 OA
ATOM     36  H   UNL     1       3.122   1.010  -0.029  0.00  0.00    +0.151 HD
ENDBRANCH  22  23
ENDBRANCH  12  22
TORSDOF 4
