REMARK  Name = ZINC59170372
REMARK  5 active torsions:
REMARK  status: ('A' for Active; 'I' for Inactive)
REMARK    1  A    between atoms: C_1  and  C_2
REMARK    2  A    between atoms: C_5  and  S_8
REMARK    3  A    between atoms: S_8  and  N_11
REMARK    4  A    between atoms: N_11  and  N_12
REMARK    5  A    between atoms: C_14  and  C_27
REMARK                            x       y       z     vdW  Elec       q    Type
REMARK                         _______ _______ _______ _____ _____    ______ ____
ROOT
ATOM      1  N   UNL     1       2.495  -4.628   1.024  0.00  0.00    -0.260 N 
ATOM      2  C   UNL     1       3.746  -4.996   1.012  0.00  0.00    +0.225 A 
ATOM      3  C   UNL     1       4.697  -4.524   2.045  0.00  0.00    +0.098 A 
ATOM      4  C   UNL     1       5.797  -5.326   2.303  0.00  0.00    +0.030 A 
ATOM      5  C   UNL     1       5.953  -6.514   1.548  0.00  0.00    +0.026 A 
ATOM      6  C   UNL     1       6.961  -7.507   1.918  0.00  0.00    -0.007 A 
ATOM      7  C   UNL     1       7.814  -7.314   3.009  0.00  0.00    +0.009 A 
ATOM      8  C   UNL     1       8.740  -8.267   3.318  0.00  0.00    +0.001 A 
ATOM      9  C   UNL     1       8.848  -9.431   2.562  0.00  0.00    +0.001 A 
ATOM     10  C   UNL     1       8.032  -9.650   1.493  0.00  0.00    +0.008 A 
ATOM     11  C   UNL     1       7.067  -8.690   1.147  0.00  0.00    -0.017 A 
ATOM     12  C   UNL     1       6.206  -8.881   0.050  0.00  0.00    +0.012 A 
ATOM     13  C   UNL     1       5.281  -7.944  -0.287  0.00  0.00    +0.047 A 
ATOM     14  C   UNL     1       5.140  -6.759   0.436  0.00  0.00    +0.138 A 
ATOM     15  O   UNL     1       4.228  -5.835   0.049  0.00  0.00    -0.437 OA
ATOM     16  H   UNL     1       2.153  -4.099   1.762  0.00  0.00    +0.189 HD
ENDROOT
BRANCH   3  17
ATOM     17  C   UNL     1       4.483  -3.260   2.766  0.00  0.00    +0.247 C 
ATOM     18  O   UNL     1       3.465  -2.619   2.581  0.00  0.00    -0.270 OA
ATOM     19  N   UNL     1       5.413  -2.811   3.631  0.00  0.00    -0.325 N 
ATOM     20  H   UNL     1       6.256  -3.282   3.724  0.00  0.00    +0.145 HD
ATOM     21  H   UNL     1       5.240  -2.018   4.162  0.00  0.00    +0.145 HD
ENDBRANCH   3  17
BRANCH   1  22
ATOM     22  N   UNL     1       1.646  -4.997  -0.027  0.00  0.00    -0.157 N 
ATOM     23  H   UNL     1       1.988  -5.526  -0.764  0.00  0.00    +0.194 HD
BRANCH  22  24
ATOM     24  S   UNL     1       0.057  -4.530  -0.011  0.00  0.00    +0.085 S 
ATOM     25  O   UNL     1      -0.480  -4.961   1.232  0.00  0.00    -0.149 OA
ATOM     26  O   UNL     1      -0.495  -4.926  -1.259  0.00  0.00    -0.149 OA
BRANCH  24  31
ATOM     27  C   UNL     1      -0.030   1.503   0.076  0.00  0.00    +0.044 C 
ATOM     28  C   UNL     1      -0.008  -0.004   0.055  0.00  0.00    -0.050 A 
ATOM     29  C   UNL     1      -0.004  -0.678  -1.152  0.00  0.00    +0.005 A 
ATOM     30  C   UNL     1       0.016  -2.060  -1.172  0.00  0.00    +0.029 A 
ATOM     31  C   UNL     1       0.033  -2.768   0.015  0.00  0.00    +0.110 A 
ATOM     32  C   UNL     1       0.030  -2.094   1.222  0.00  0.00    +0.029 A 
ATOM     33  C   UNL     1       0.014  -0.712   1.242  0.00  0.00    +0.005 A 
ENDBRANCH  24  31
ENDBRANCH  22  24
ENDBRANCH   1  22
TORSDOF 4
