REMARK  Name = ZINC39361210
REMARK  9 active torsions:
REMARK  status: ('A' for Active; 'I' for Inactive)
REMARK    1  A    between atoms: C_1  and  C_2
REMARK    2  A    between atoms: N_4  and  C_5
REMARK    3  A    between atoms: C_8  and  S_11
REMARK    4  A    between atoms: S_11  and  N_14
REMARK    5  A    between atoms: N_14  and  C_15
REMARK    6  A    between atoms: C_15  and  C_16
REMARK    7  A    between atoms: C_16  and  C_17
REMARK    8  A    between atoms: C_23  and  O_29
REMARK    9  A    between atoms: O_29  and  C_30
REMARK                            x       y       z     vdW  Elec       q    Type
REMARK                         _______ _______ _______ _____ _____    ______ ____
ROOT
ATOM      1  N   UNL     1      -0.878  -7.002   1.964  0.00  0.00    -0.190 NA
ATOM      2  H   UNL     1      -0.108  -7.420   2.378  0.00  0.00    +0.148 HD
ENDROOT
BRANCH   1   3
ATOM      3  S   UNL     1      -0.840  -6.603   0.357  0.00  0.00    +0.058 S 
ATOM      4  O   UNL     1      -2.038  -7.108  -0.216  0.00  0.00    -0.153 OA
ATOM      5  O   UNL     1       0.447  -6.970  -0.121  0.00  0.00    -0.153 OA
BRANCH   3   9
ATOM      6  C   UNL     1      -1.081  -2.089   0.091  0.00  0.00    +0.033 A 
ATOM      7  C   UNL     1       0.155  -2.716   0.178  0.00  0.00    +0.025 A 
ATOM      8  C   UNL     1       0.225  -4.092   0.259  0.00  0.00    +0.030 A 
ATOM      9  C   UNL     1      -0.934  -4.847   0.254  0.00  0.00    +0.105 A 
ATOM     10  C   UNL     1      -2.166  -4.226   0.168  0.00  0.00    +0.030 A 
ATOM     11  C   UNL     1      -2.244  -2.849   0.093  0.00  0.00    +0.025 A 
BRANCH   6  15
ATOM     12  C   UNL     1      -2.194   1.470   0.609  0.00  0.00    +0.109 C 
ATOM     13  C   UNL     1      -2.169  -0.037   0.608  0.00  0.00    +0.214 C 
ATOM     14  O   UNL     1      -3.061  -0.658   1.145  0.00  0.00    -0.276 OA
ATOM     15  N   UNL     1      -1.156  -0.694   0.009  0.00  0.00    -0.286 N 
ATOM     16  H   UNL     1      -0.478  -0.200  -0.478  0.00  0.00    +0.155 HD
ENDBRANCH   6  15
ENDBRANCH   3   9
ENDBRANCH   1   3
BRANCH   1  17
ATOM     17  C   UNL     1      -2.077  -6.723   2.759  0.00  0.00    +0.107 C 
BRANCH  17  18
ATOM     18  C   UNL     1      -2.010  -7.503   4.074  0.00  0.00    +0.033 C 
BRANCH  18  19
ATOM     19  C   UNL     1      -3.261  -7.211   4.904  0.00  0.00    +0.100 C 
ATOM     20  C   UNL     1      -3.059  -7.819   6.278  0.00  0.00    -0.005 C 
ATOM     21  C   UNL     1      -3.973  -8.734   6.698  0.00  0.00    -0.007 A 
ATOM     22  C   UNL     1      -3.849  -9.367   8.013  0.00  0.00    +0.013 A 
ATOM     23  C   UNL     1      -4.779 -10.274   8.398  0.00  0.00    +0.046 A 
ATOM     24  C   UNL     1      -5.853 -10.616   7.562  0.00  0.00    +0.122 A 
ATOM     25  C   UNL     1      -6.022 -10.054   6.315  0.00  0.00    +0.069 A 
ATOM     26  C   UNL     1      -5.109  -9.107   5.834  0.00  0.00    +0.044 A 
ATOM     27  N   UNL     1      -5.283  -8.570   4.624  0.00  0.00    -0.284 N 
ATOM     28  C   UNL     1      -4.462  -7.672   4.110  0.00  0.00    +0.224 C 
ATOM     29  O   UNL     1      -4.673  -7.217   3.002  0.00  0.00    -0.275 OA
ATOM     30  H   UNL     1      -6.048  -8.852   4.099  0.00  0.00    +0.155 HD
BRANCH  24  31
ATOM     31  O   UNL     1      -6.754 -11.529   7.996  0.00  0.00    -0.495 OA
ATOM     32  C   UNL     1      -6.540 -12.085   9.295  0.00  0.00    +0.277 C 
ENDBRANCH  24  31
ENDBRANCH  18  19
ENDBRANCH  17  18
ENDBRANCH   1  17
TORSDOF 7
