REMARK  Name = ZINC32634461
REMARK  12 active torsions:
REMARK  status: ('A' for Active; 'I' for Inactive)
REMARK    1  A    between atoms: C_1  and  C_2
REMARK    2  A    between atoms: C_2  and  C_3
REMARK    3  A    between atoms: C_2  and  C_4
REMARK    4  A    between atoms: C_2  and  O_5
REMARK    5  A    between atoms: O_5  and  C_6
REMARK    6  A    between atoms: N_8  and  C_9
REMARK    7  A    between atoms: C_9  and  C_11
REMARK    8  A    between atoms: C_9  and  C_18
REMARK    9  A    between atoms: C_11  and  C_12
REMARK   10  A    between atoms: C_18  and  N_20
REMARK   11  A    between atoms: N_22  and  C_33
REMARK   12  A    between atoms: C_33  and  C_34
REMARK                            x       y       z     vdW  Elec       q    Type
REMARK                         _______ _______ _______ _____ _____    ______ ____
ROOT
ATOM      1  C   UNL     1       4.780  -1.106  -3.528  0.00  0.00    +0.259 C 
ATOM      2  O   UNL     1       4.190  -2.091  -3.928  0.00  0.00    -0.272 OA
ENDROOT
BRANCH   1   3
ATOM      3  N   UNL     1       6.071  -0.945  -3.809  0.00  0.00    -0.158 NA
ATOM      4  C   UNL     1       6.992  -1.261  -2.905  0.00  0.00    +0.150 C 
ATOM      5  N   UNL     1       6.782  -1.878  -1.669  0.00  0.00    -0.302 N 
ATOM      6  C   UNL     1       7.730  -1.389  -0.708  0.00  0.00    +0.111 C 
ATOM      7  C   UNL     1       7.837  -1.839   0.733  0.00  0.00    +0.189 C 
ATOM      8  S   UNL     1       9.540  -1.230   1.135  0.00  0.00    -0.028 S 
ATOM      9  O   UNL     1       9.438  -0.082   1.967  0.00  0.00    -0.174 OA
ATOM     10  O   UNL     1      10.340  -2.328   1.552  0.00  0.00    -0.174 OA
ATOM     11  C   UNL     1      10.070  -0.702  -0.563  0.00  0.00    +0.182 C 
ATOM     12  C   UNL     1       9.140  -1.641  -1.370  0.00  0.00    +0.097 C 
ATOM     13  S   UNL     1       8.663  -1.006  -3.016  0.00  0.00    -0.086 S 
BRANCH   5  14
ATOM     14  C   UNL     1       5.747  -2.877  -1.394  0.00  0.00    +0.142 C 
BRANCH  14  15
ATOM     15  C   UNL     1       6.318  -4.258  -1.585  0.00  0.00    -0.030 A 
ATOM     16  C   UNL     1       6.257  -4.866  -2.825  0.00  0.00    +0.005 A 
ATOM     17  C   UNL     1       6.781  -6.133  -3.000  0.00  0.00    +0.000 A 
ATOM     18  C   UNL     1       7.367  -6.792  -1.936  0.00  0.00    +0.000 A 
ATOM     19  C   UNL     1       7.429  -6.184  -0.696  0.00  0.00    +0.000 A 
ATOM     20  C   UNL     1       6.909  -4.915  -0.522  0.00  0.00    +0.005 A 
ENDBRANCH  14  15
ENDBRANCH   5  14
ENDBRANCH   1   3
BRANCH   1  21
ATOM     21  C   UNL     1       4.050  -0.069  -2.715  0.00  0.00    +0.168 C 
BRANCH  21  24
ATOM     22  C   UNL     1       1.944  -0.025  -1.491  0.00  0.00    +0.401 C 
ATOM     23  O   UNL     1       2.463   0.717  -0.682  0.00  0.00    -0.226 OA
ATOM     24  N   UNL     1       2.653  -0.475  -2.545  0.00  0.00    -0.269 N 
ATOM     25  H   UNL     1       2.239  -1.067  -3.192  0.00  0.00    +0.153 HD
BRANCH  22  26
ATOM     26  O   UNL     1       0.660  -0.398  -1.335  0.00  0.00    -0.445 OA
BRANCH  26  28
ATOM     27  C   UNL     1      -0.053   1.645  -0.259  0.00  0.00    +0.055 C 
ATOM     28  C   UNL     1      -0.032   0.116  -0.196  0.00  0.00    +0.107 C 
ATOM     29  C   UNL     1       0.684  -0.332   1.080  0.00  0.00    +0.055 C 
ATOM     30  C   UNL     1      -1.467  -0.414  -0.188  0.00  0.00    +0.055 C 
ENDBRANCH  26  28
ENDBRANCH  22  26
ENDBRANCH  21  24
BRANCH  21  31
ATOM     31  C   UNL     1       4.106   1.278  -3.439  0.00  0.00    +0.067 C 
BRANCH  31  32
ATOM     32  C   UNL     1       3.484   2.341  -2.571  0.00  0.00    -0.045 A 
ATOM     33  C   UNL     1       2.130   2.604  -2.662  0.00  0.00    +0.004 A 
ATOM     34  C   UNL     1       1.559   3.579  -1.865  0.00  0.00    +0.000 A 
ATOM     35  C   UNL     1       2.343   4.292  -0.977  0.00  0.00    +0.000 A 
ATOM     36  C   UNL     1       3.697   4.029  -0.885  0.00  0.00    +0.000 A 
ATOM     37  C   UNL     1       4.267   3.050  -1.679  0.00  0.00    +0.004 A 
ENDBRANCH  31  32
ENDBRANCH  21  31
ENDBRANCH   1  21
TORSDOF 9
