REMARK  Name = ZINC16610208
REMARK  12 active torsions:
REMARK  status: ('A' for Active; 'I' for Inactive)
REMARK    1  A    between atoms: C_1  and  C_2
REMARK    2  A    between atoms: C_3  and  C_29
REMARK    3  A    between atoms: C_4  and  C_11
REMARK    4  A    between atoms: N_9  and  C_10
REMARK    5  A    between atoms: C_14  and  N_17
REMARK    6  A    between atoms: N_20  and  C_21
REMARK    7  A    between atoms: C_24  and  C_27
REMARK    8  A    between atoms: C_29  and  O_31
REMARK    9  A    between atoms: O_31  and  C_32
REMARK   10  A    between atoms: C_32  and  C_33
REMARK   11  A    between atoms: C_33  and  C_34
REMARK   12  A    between atoms: C_33  and  C_35
REMARK                            x       y       z     vdW  Elec       q    Type
REMARK                         _______ _______ _______ _____ _____    ______ ____
ROOT
ATOM      1  C   UNL     1      -0.646   1.509  -1.296  0.00  0.00    -0.022 A 
ATOM      2  C   UNL     1      -0.577   2.841  -1.659  0.00  0.00    +0.007 A 
ATOM      3  C   UNL     1      -1.179   3.273  -2.824  0.00  0.00    +0.024 A 
ATOM      4  C   UNL     1      -1.865   2.370  -3.626  0.00  0.00    +0.035 A 
ATOM      5  C   UNL     1      -1.937   1.034  -3.256  0.00  0.00    +0.024 A 
ATOM      6  C   UNL     1      -1.328   0.607  -2.092  0.00  0.00    +0.007 A 
ENDROOT
BRANCH   1  10
ATOM      7  C   UNL     1      -1.403   2.395   3.292  0.00  0.00    +0.061 C 
ATOM      8  C   UNL     1      -0.492   2.100   2.128  0.00  0.00    +0.021 C 
ATOM      9  C   UNL     1      -0.931   1.311   1.124  0.00  0.00    +0.078 C 
ATOM     10  C   UNL     1       0.017   1.040  -0.027  0.00  0.00    +0.141 C 
ATOM     11  N   UNL     1       1.349   1.663   0.046  0.00  0.00    -0.315 N 
ATOM     12  C   UNL     1       1.642   2.428   1.117  0.00  0.00    +0.137 C 
ATOM     13  S   UNL     1       3.187   3.158   1.215  0.00  0.00    -0.018 S 
ATOM     14  N   UNL     1       0.764   2.634   2.107  0.00  0.00    -0.289 N 
ATOM     15  C   UNL     1       1.175   3.480   3.230  0.00  0.00    +0.137 C 
ATOM     16  H   UNL     1       2.001   1.527  -0.659  0.00  0.00    +0.149 HD
BRANCH   9  17
ATOM     17  C   UNL     1      -2.232   0.757   1.145  0.00  0.00    +0.339 C 
ATOM     18  O   UNL     1      -2.977   0.989   2.079  0.00  0.00    -0.245 OA
BRANCH  17  19
ATOM     19  O   UNL     1      -2.648  -0.028   0.129  0.00  0.00    -0.461 OA
BRANCH  19  20
ATOM     20  C   UNL     1      -3.974  -0.554   0.215  0.00  0.00    +0.235 C 
BRANCH  20  21
ATOM     21  C   UNL     1      -4.263  -1.413  -1.017  0.00  0.00    +0.020 C 
ATOM     22  C   UNL     1      -3.343  -2.635  -1.014  0.00  0.00    +0.010 C 
ATOM     23  C   UNL     1      -5.722  -1.873  -0.986  0.00  0.00    +0.010 C 
ENDBRANCH  20  21
ENDBRANCH  19  20
ENDBRANCH  17  19
ENDBRANCH   9  17
ENDBRANCH   1  10
BRANCH   4  24
ATOM     24  N   UNL     1      -2.480   2.806  -4.804  0.00  0.00    -0.269 N 
ATOM     25  C   UNL     1      -1.930   3.804  -5.523  0.00  0.00    +0.308 C 
ATOM     26  O   UNL     1      -0.851   4.263  -5.200  0.00  0.00    -0.252 OA
ATOM     27  N   UNL     1      -2.575   4.294  -6.601  0.00  0.00    -0.269 N 
ATOM     28  H   UNL     1      -3.303   2.389  -5.104  0.00  0.00    +0.156 HD
ATOM     29  H   UNL     1      -3.464   3.975  -6.820  0.00  0.00    +0.156 HD
BRANCH  27  30
ATOM     30  C   UNL     1      -1.962   5.259  -7.401  0.00  0.00    +0.035 A 
ATOM     31  C   UNL     1      -1.156   6.232  -6.820  0.00  0.00    +0.024 A 
ATOM     32  C   UNL     1      -0.546   7.183  -7.607  0.00  0.00    +0.020 A 
ATOM     33  C   UNL     1      -0.748   7.177  -8.990  0.00  0.00    +0.052 A 
ATOM     34  C   UNL     1      -1.563   6.201  -9.570  0.00  0.00    +0.020 A 
ATOM     35  C   UNL     1      -2.165   5.250  -8.777  0.00  0.00    +0.024 A 
BRANCH  33  36
ATOM     36  C   UNL     1      -0.120   8.168  -9.812  0.00  0.00    +0.099 C 
ATOM     37  N   UNL     1       0.377   8.954 -10.463  0.00  0.00    -0.191 NA
ENDBRANCH  33  36
ENDBRANCH  27  30
ENDBRANCH   4  24
TORSDOF 8
