REMARK  Name = ZINC07775153
REMARK  7 active torsions:
REMARK  status: ('A' for Active; 'I' for Inactive)
REMARK    1  A    between atoms: C_1  and  C_2
REMARK    2  A    between atoms: C_2  and  C_4
REMARK    3  A    between atoms: C_2  and  S_19
REMARK    4  A    between atoms: N_6  and  C_7
REMARK    5  A    between atoms: S_19  and  C_20
REMARK    6  A    between atoms: C_23  and  C_26
REMARK    7  A    between atoms: N_24  and  C_25
REMARK                            x       y       z     vdW  Elec       q    Type
REMARK                         _______ _______ _______ _____ _____    ______ ____
ROOT
ATOM      1  C   UNL     1      -1.412  -0.524   0.013  0.00  0.00    +0.230 C 
ATOM      2  O   UNL     1      -1.931  -0.891  -1.021  0.00  0.00    -0.274 OA
ATOM      3  N   UNL     1      -2.103  -0.575   1.169  0.00  0.00    -0.285 N 
ATOM      4  H   UNL     1      -1.668  -0.345   2.004  0.00  0.00    +0.155 HD
ENDROOT
BRANCH   3   5
ATOM      5  C   UNL     1      -3.450  -0.960   1.163  0.00  0.00    +0.035 A 
ATOM      6  C   UNL     1      -4.343  -0.372   2.052  0.00  0.00    +0.025 A 
ATOM      7  C   UNL     1      -5.671  -0.748   2.052  0.00  0.00    +0.029 A 
ATOM      8  C   UNL     1      -6.117  -1.714   1.163  0.00  0.00    +0.067 A 
ATOM      9  C   UNL     1      -5.223  -2.307   0.269  0.00  0.00    +0.069 A 
ATOM     10  C   UNL     1      -3.891  -1.923   0.268  0.00  0.00    +0.051 A 
ATOM     11  N   UNL     1      -5.953  -3.224  -0.483  0.00  0.00    -0.306 N 
ATOM     12  H   UNL     1      -5.599  -3.789  -1.188  0.00  0.00    +0.170 HD
ATOM     13  C   UNL     1      -7.233  -3.191  -0.068  0.00  0.00    +0.325 A 
ATOM     14  O   UNL     1      -8.134  -3.873  -0.520  0.00  0.00    -0.247 OA
ATOM     15  N   UNL     1      -7.365  -2.291   0.925  0.00  0.00    -0.306 N 
ATOM     16  H   UNL     1      -8.187  -2.080   1.394  0.00  0.00    +0.170 HD
ENDBRANCH   3   5
BRANCH   1  18
ATOM     17  C   UNL     1      -0.007   1.520   0.020  0.00  0.00    +0.029 C 
ATOM     18  C   UNL     1       0.004  -0.010   0.003  0.00  0.00    +0.137 C 
BRANCH  18  19
ATOM     19  S   UNL     1       0.849  -0.592  -1.493  0.00  0.00    -0.074 S 
BRANCH  19  20
ATOM     20  C   UNL     1       2.510  -0.042  -1.286  0.00  0.00    +0.192 A 
ATOM     21  N   UNL     1       2.987   0.628  -0.261  0.00  0.00    -0.122 NA
ATOM     22  N   UNL     1       4.238   0.868  -0.433  0.00  0.00    -0.125 NA
ATOM     23  C   UNL     1       4.638   0.365  -1.580  0.00  0.00    +0.200 A 
ATOM     24  N   UNL     1       3.544  -0.239  -2.159  0.00  0.00    -0.303 N 
ATOM     25  C   UNL     1       3.496  -0.943  -3.443  0.00  0.00    +0.153 C 
BRANCH  23  26
ATOM     26  C   UNL     1       5.998   0.430  -2.136  0.00  0.00    +0.172 A 
ATOM     27  C   UNL     1       7.129   0.755  -1.450  0.00  0.00    +0.053 A 
ATOM     28  C   UNL     1       8.194   0.691  -2.369  0.00  0.00    +0.042 A 
ATOM     29  C   UNL     1       7.670   0.333  -3.558  0.00  0.00    +0.196 A 
ATOM     30  O   UNL     1       6.344   0.171  -3.413  0.00  0.00    -0.460 OA
ENDBRANCH  23  26
ENDBRANCH  19  20
ENDBRANCH  18  19
ENDBRANCH   1  18
TORSDOF 5
