REMARK  Name = ZINC14896517
REMARK  6 active torsions:
REMARK  status: ('A' for Active; 'I' for Inactive)
REMARK    1  A    between atoms: C_1  and  C_2
REMARK    2  A    between atoms: C_7  and  C_16
REMARK    3  A    between atoms: N_11  and  S_12
REMARK    4  A    between atoms: S_12  and  C_15
REMARK    5  A    between atoms: N_18  and  N_19
REMARK    6  A    between atoms: C_20  and  C_22
REMARK                            x       y       z     vdW  Elec       q    Type
REMARK                         _______ _______ _______ _____ _____    ______ ____
ROOT
ATOM      1  C   UNL     1       2.373  -2.721  -0.034  0.00  0.00    +0.260 C 
ATOM      2  O   UNL     1       3.418  -2.099  -0.040  0.00  0.00    -0.269 OA
ATOM      3  N   UNL     1       1.197  -2.063  -0.020  0.00  0.00    -0.230 N 
ATOM      4  H   UNL     1       0.364  -2.559  -0.015  0.00  0.00    +0.173 HD
ENDROOT
BRANCH   1  10
ATOM      5  C   UNL     1       4.487  -9.395  -1.348  0.00  0.00    +0.030 C 
ATOM      6  C   UNL     1       4.106  -8.622  -0.084  0.00  0.00    +0.099 C 
ATOM      7  C   UNL     1       4.777  -7.238  -0.082  0.00  0.00    +0.061 C 
ATOM      8  C   UNL     1       3.624  -6.260  -0.066  0.00  0.00    -0.022 A 
ATOM      9  C   UNL     1       3.610  -4.883  -0.063  0.00  0.00    +0.018 A 
ATOM     10  C   UNL     1       2.393  -4.196  -0.042  0.00  0.00    +0.039 A 
ATOM     11  C   UNL     1       1.195  -4.916  -0.035  0.00  0.00    +0.015 A 
ATOM     12  C   UNL     1       1.217  -6.289  -0.043  0.00  0.00    +0.026 A 
ATOM     13  C   UNL     1       2.436  -6.980  -0.058  0.00  0.00    +0.054 A 
ATOM     14  N   UNL     1       2.666  -8.350  -0.068  0.00  0.00    -0.204 N 
BRANCH  14  15
ATOM     15  S   UNL     1       1.484  -9.510  -0.063  0.00  0.00    +0.043 S 
ATOM     16  O   UNL     1       2.096 -10.649   0.528  0.00  0.00    -0.155 OA
ATOM     17  O   UNL     1       0.367  -8.886   0.554  0.00  0.00    -0.155 OA
ATOM     18  C   UNL     1       1.134  -9.827  -1.814  0.00  0.00    +0.218 C 
ENDBRANCH  14  15
ENDBRANCH   1  10
BRANCH   3  19
ATOM     19  N   UNL     1       1.178  -0.662  -0.012  0.00  0.00    -0.230 N 
ATOM     20  C   UNL     1       0.002  -0.004   0.002  0.00  0.00    +0.267 C 
ATOM     21  O   UNL     1      -1.044  -0.627   0.008  0.00  0.00    -0.268 OA
ATOM     22  H   UNL     1       2.012  -0.166  -0.017  0.00  0.00    +0.173 HD
BRANCH  20  23
ATOM     23  C   UNL     1      -0.018   1.462   0.010  0.00  0.00    +0.076 A 
ATOM     24  C   UNL     1      -1.096   2.318   0.019  0.00  0.00    +0.024 A 
ATOM     25  C   UNL     1      -0.851   3.695   0.043  0.00  0.00    -0.036 A 
ATOM     26  C   UNL     1       0.435   4.086  -0.011  0.00  0.00    -0.006 A 
ATOM     27  S   UNL     1       1.347   2.607   0.003  0.00  0.00    -0.088 S 
ATOM     28  C   UNL     1       1.090   5.437  -0.158  0.00  0.00    +0.043 C 
ATOM     29  C   UNL     1       0.063   6.563  -0.289  0.00  0.00    +0.005 C 
ATOM     30  C   UNL     1      -0.513   6.943   1.066  0.00  0.00    +0.000 C 
ATOM     31  C   UNL     1      -0.735   5.750   1.972  0.00  0.00    +0.000 C 
ATOM     32  C   UNL     1      -2.098   5.154   1.600  0.00  0.00    +0.005 C 
ATOM     33  C   UNL     1      -2.036   4.642   0.161  0.00  0.00    +0.036 C 
ENDBRANCH  20  23
ENDBRANCH   3  19
TORSDOF 4
