REMARK  Name = ZINC08933100
REMARK  10 active torsions:
REMARK  status: ('A' for Active; 'I' for Inactive)
REMARK    1  A    between atoms: C_1  and  C_2
REMARK    2  A    between atoms: C_7  and  C_37
REMARK    3  A    between atoms: C_9  and  C_10
REMARK    4  A    between atoms: C_9  and  N_71
REMARK    5  A    between atoms: C_10  and  C_11
REMARK    6  A    between atoms: C_11  and  N_12
REMARK    7  A    between atoms: C_13  and  C_15
REMARK    8  A    between atoms: C_15  and  N_16
REMARK    9  A    between atoms: N_29  and  C_30
REMARK   10  A    between atoms: C_30  and  C_31
REMARK                            x       y       z     vdW  Elec       q    Type
REMARK                         _______ _______ _______ _____ _____    ______ ____
ROOT
ATOM      1  N   UNL     1      -2.901   6.604   2.945  0.00  0.00    -0.219 N 
ATOM      2  C   UNL     1      -3.891   5.711   3.143  0.00  0.00    +0.292 A 
ATOM      3  O   UNL     1      -5.053   6.024   2.943  0.00  0.00    -0.264 OA
ATOM      4  C   UNL     1      -3.568   4.405   3.585  0.00  0.00    +0.119 A 
ATOM      5  C   UNL     1      -2.228   4.088   3.801  0.00  0.00    +0.033 A 
ATOM      6  C   UNL     1      -1.234   5.064   3.578  0.00  0.00    +0.143 A 
ATOM      7  N   UNL     1      -1.565   6.258   3.171  0.00  0.00    -0.175 NA
ATOM      8  C   UNL     1      -2.197   2.688   4.248  0.00  0.00    +0.009 A 
ATOM      9  C   UNL     1      -1.173   1.815   4.614  0.00  0.00    +0.010 A 
ATOM     10  C   UNL     1      -1.470   0.537   4.994  0.00  0.00    +0.001 A 
ATOM     11  C   UNL     1      -2.787   0.099   5.019  0.00  0.00    +0.002 A 
ATOM     12  C   UNL     1      -3.813   0.942   4.656  0.00  0.00    +0.026 A 
ATOM     13  C   UNL     1      -3.533   2.251   4.271  0.00  0.00    +0.051 A 
ATOM     14  N   UNL     1      -4.336   3.297   3.870  0.00  0.00    -0.331 N 
ENDROOT
BRANCH   1  15
ATOM     15  C   UNL     1      -3.229   7.957   2.489  0.00  0.00    +0.243 C 
BRANCH  15  17
ATOM     16  N   UNL     1      -3.776  10.146   3.503  0.00  0.00    -0.314 N 
ATOM     17  C   UNL     1      -3.458   8.848   3.682  0.00  0.00    +0.235 C 
ATOM     18  O   UNL     1      -3.357   8.398   4.804  0.00  0.00    -0.274 OA
ATOM     19  H   UNL     1      -3.856  10.506   2.606  0.00  0.00    +0.149 HD
BRANCH  16  20
ATOM     20  C   UNL     1      -3.998  11.013   4.663  0.00  0.00    +0.102 C 
BRANCH  20  21
ATOM     21  C   UNL     1      -4.341  12.425   4.186  0.00  0.00    +0.000 C 
BRANCH  21  22
ATOM     22  C   UNL     1      -4.574  13.330   5.398  0.00  0.00    -0.077 C 
BRANCH  22  30
ATOM     23  C   UNL     1      -2.598  15.242   4.802  0.00  0.00    -0.013 C 
ATOM     24  C   UNL     1      -3.944  15.258   4.075  0.00  0.00    -0.071 C 
ATOM     25  C   UNL     1      -4.325  16.701   3.737  0.00  0.00    -0.016 C 
ATOM     26  C   UNL     1      -5.682  16.712   3.029  0.00  0.00    -0.003 C 
ATOM     27  C   UNL     1      -6.726  16.049   3.931  0.00  0.00    -0.016 C 
ATOM     28  C   UNL     1      -6.276  14.625   4.263  0.00  0.00    -0.071 C 
ATOM     29  C   UNL     1      -7.306  13.965   5.182  0.00  0.00    -0.013 C 
ATOM     30  N   UNL     1      -4.976  14.684   4.965  0.00  0.00    +0.383 N 
ATOM     31  H   UNL     1      -5.072  15.284   5.793  0.00  0.00    -0.081 HD
ENDBRANCH  22  30
ENDBRANCH  21  22
ENDBRANCH  20  21
ENDBRANCH  16  20
ENDBRANCH  15  17
ENDBRANCH   1  15
BRANCH  14  32
ATOM     32  C   UNL     1      -5.795   3.239   3.761  0.00  0.00    +0.157 C 
BRANCH  32  33
ATOM     33  C   UNL     1      -6.178   2.791   2.374  0.00  0.00    -0.028 A 
ATOM     34  C   UNL     1      -6.378   3.725   1.376  0.00  0.00    +0.005 A 
ATOM     35  C   UNL     1      -6.725   3.314   0.103  0.00  0.00    +0.000 A 
ATOM     36  C   UNL     1      -6.882   1.968  -0.169  0.00  0.00    +0.000 A 
ATOM     37  C   UNL     1      -6.688   1.033   0.830  0.00  0.00    +0.000 A 
ATOM     38  C   UNL     1      -6.336   1.444   2.102  0.00  0.00    +0.005 A 
ENDBRANCH  32  33
ENDBRANCH  14  32
TORSDOF 8
