REMARK  Name = ZINC42910436
REMARK  12 active torsions:
REMARK  status: ('A' for Active; 'I' for Inactive)
REMARK    1  A    between atoms: C_1  and  C_2
REMARK    2  A    between atoms: C_2  and  O_3
REMARK    3  A    between atoms: O_3  and  C_4
REMARK    4  A    between atoms: C_9  and  O_10
REMARK    5  A    between atoms: O_10  and  C_11
REMARK    6  A    between atoms: C_11  and  C_12
REMARK    7  A    between atoms: N_14  and  N_15
REMARK    8  A    between atoms: N_18  and  C_19
REMARK    9  A    between atoms: C_21  and  C_27
REMARK   10  A    between atoms: C_21  and  C_28
REMARK   11  A    between atoms: C_23  and  C_25
REMARK   12  A    between atoms: C_23  and  C_26
REMARK                            x       y       z     vdW  Elec       q    Type
REMARK                         _______ _______ _______ _____ _____    ______ ____
ROOT
ATOM      1  N   UNL     1       4.009  -0.204  -7.681  0.00  0.00    -0.218 N 
ATOM      2  C   UNL     1       4.622  -0.533  -8.835  0.00  0.00    +0.316 C 
ATOM      3  O   UNL     1       4.955   0.337  -9.616  0.00  0.00    -0.251 OA
ATOM      4  N   UNL     1       4.865  -1.827  -9.124  0.00  0.00    -0.295 N 
ATOM      5  H   UNL     1       3.834   0.727  -7.473  0.00  0.00    +0.174 HD
ATOM      6  H   UNL     1       4.599  -2.522  -8.501  0.00  0.00    +0.151 HD
ENDROOT
BRANCH   4   7
ATOM      7  C   UNL     1       5.533  -2.186 -10.382  0.00  0.00    +0.072 C 
ATOM      8  C   UNL     1       4.483  -2.324 -11.486  0.00  0.00    +0.009 C 
ATOM      9  C   UNL     1       5.162  -2.710 -12.800  0.00  0.00    -0.072 C 
ATOM     10  N   UNL     1       5.987  -3.900 -12.662  0.00  0.00    +0.386 N 
ATOM     11  C   UNL     1       6.886  -3.971 -11.521  0.00  0.00    -0.072 C 
ATOM     12  C   UNL     1       6.233  -3.534 -10.214  0.00  0.00    +0.009 C 
ATOM     13  C   UNL     1       8.168  -3.168 -11.759  0.00  0.00    -0.010 C 
ATOM     14  C   UNL     1       7.305  -5.451 -11.351  0.00  0.00    -0.010 C 
ATOM     15  C   UNL     1       5.950  -1.524 -13.356  0.00  0.00    -0.010 C 
ATOM     16  C   UNL     1       4.043  -3.033 -13.817  0.00  0.00    -0.010 C 
ATOM     17  H   UNL     1       5.371  -4.717 -12.638  0.00  0.00    -0.084 HD
ATOM     18  H   UNL     1       6.541  -4.008 -13.516  0.00  0.00    -0.084 HD
ENDBRANCH   4   7
BRANCH   1  21
ATOM     19  C   UNL     1       3.011  -0.878  -5.627  0.00  0.00    +0.267 C 
ATOM     20  O   UNL     1       2.792   0.286  -5.367  0.00  0.00    -0.271 OA
ATOM     21  N   UNL     1       3.624  -1.207  -6.781  0.00  0.00    -0.230 N 
ATOM     22  H   UNL     1       3.799  -2.138  -6.989  0.00  0.00    +0.173 HD
BRANCH  19  23
ATOM     23  C   UNL     1       2.598  -1.957  -4.659  0.00  0.00    +0.326 C 
BRANCH  23  24
ATOM     24  O   UNL     1       1.973  -1.361  -3.521  0.00  0.00    -0.479 OA
BRANCH  24  30
ATOM     25  C   UNL     1       0.920  -1.691  -1.407  0.00  0.00    +0.162 A 
ATOM     26  C   UNL     1       0.473  -2.553  -0.419  0.00  0.00    +0.049 A 
ATOM     27  C   UNL     1       0.646  -3.917  -0.560  0.00  0.00    +0.004 A 
ATOM     28  C   UNL     1       1.265  -4.425  -1.688  0.00  0.00    +0.004 A 
ATOM     29  C   UNL     1       1.714  -3.570  -2.678  0.00  0.00    +0.049 A 
ATOM     30  C   UNL     1       1.538  -2.202  -2.545  0.00  0.00    +0.163 A 
BRANCH  25  31
ATOM     31  O   UNL     1       0.750  -0.349  -1.270  0.00  0.00    -0.489 OA
BRANCH  31  33
ATOM     32  C   UNL     1       0.007   1.631  -0.100  0.00  0.00    +0.048 C 
ATOM     33  C   UNL     1       0.108   0.105  -0.076  0.00  0.00    +0.226 C 
ENDBRANCH  31  33
ENDBRANCH  25  31
ENDBRANCH  24  30
ENDBRANCH  23  24
ENDBRANCH  19  23
ENDBRANCH   1  21
TORSDOF 7
