REMARK  Name = ZINC34749714
REMARK  9 active torsions:
REMARK  status: ('A' for Active; 'I' for Inactive)
REMARK    1  A    between atoms: C_1  and  C_2
REMARK    2  A    between atoms: C_2  and  N_3
REMARK    3  A    between atoms: N_3  and  C_4
REMARK    4  A    between atoms: C_4  and  C_5
REMARK    5  A    between atoms: C_6  and  C_8
REMARK    6  A    between atoms: C_8  and  N_9
REMARK    7  A    between atoms: C_13  and  C_32
REMARK    8  A    between atoms: N_22  and  C_25
REMARK    9  A    between atoms: C_25  and  C_26
REMARK                            x       y       z     vdW  Elec       q    Type
REMARK                         _______ _______ _______ _____ _____    ______ ____
ROOT
ATOM      1  N   UNL     1      -0.208  -1.381  -4.721  0.00  0.00    -0.271 N 
ATOM      2  C   UNL     1      -0.750  -2.594  -4.936  0.00  0.00    +0.265 A 
ATOM      3  O   UNL     1      -0.370  -3.561  -4.299  0.00  0.00    -0.267 OA
ATOM      4  C   UNL     1      -1.776  -2.733  -5.921  0.00  0.00    +0.080 A 
ATOM      5  C   UNL     1      -2.507  -3.929  -6.328  0.00  0.00    +0.004 A 
ATOM      6  C   UNL     1      -3.448  -3.820  -7.294  0.00  0.00    +0.056 A 
ATOM      7  S   UNL     1      -3.408  -2.089  -7.718  0.00  0.00    -0.076 S 
ATOM      8  C   UNL     1      -2.139  -1.556  -6.598  0.00  0.00    +0.118 A 
ATOM      9  N   UNL     1      -1.562  -0.388  -6.338  0.00  0.00    -0.208 NA
ATOM     10  C   UNL     1      -0.624  -0.287  -5.420  0.00  0.00    +0.202 A 
ATOM     11  N   UNL     1      -0.051   0.935  -5.169  0.00  0.00    -0.304 N 
ATOM     12  C   UNL     1       1.140   1.379  -5.910  0.00  0.00    +0.089 C 
ATOM     13  C   UNL     1       0.876   2.787  -6.454  0.00  0.00    -0.059 C 
ATOM     14  N   UNL     1       0.484   3.672  -5.350  0.00  0.00    +0.384 N 
ATOM     15  C   UNL     1      -0.793   3.224  -4.779  0.00  0.00    -0.059 C 
ATOM     16  C   UNL     1      -0.615   1.840  -4.156  0.00  0.00    +0.089 C 
ATOM     17  H   UNL     1       1.196   3.653  -4.636  0.00  0.00    -0.081 HD
ENDROOT
BRANCH   5  18
ATOM     18  C   UNL     1      -2.223  -5.239  -5.695  0.00  0.00    -0.017 A 
ATOM     19  C   UNL     1      -0.909  -5.694  -5.588  0.00  0.00    +0.008 A 
ATOM     20  C   UNL     1      -0.651  -6.915  -4.997  0.00  0.00    +0.001 A 
ATOM     21  C   UNL     1      -1.692  -7.686  -4.512  0.00  0.00    +0.000 A 
ATOM     22  C   UNL     1      -2.997  -7.239  -4.616  0.00  0.00    +0.001 A 
ATOM     23  C   UNL     1      -3.268  -6.018  -5.200  0.00  0.00    +0.008 A 
ENDBRANCH   5  18
BRANCH   1  24
ATOM     24  C   UNL     1       0.845  -1.233  -3.713  0.00  0.00    +0.224 C 
BRANCH  24  26
ATOM     25  N   UNL     1       0.998  -0.879  -1.270  0.00  0.00    -0.301 N 
ATOM     26  C   UNL     1       0.217  -1.038  -2.357  0.00  0.00    +0.236 C 
ATOM     27  O   UNL     1      -0.990  -1.025  -2.244  0.00  0.00    -0.274 OA
BRANCH  25  29
ATOM     28  C   UNL     1       0.172   0.803   0.301  0.00  0.00    +0.024 C 
ATOM     29  C   UNL     1       0.388  -0.690   0.049  0.00  0.00    +0.104 C 
ENDBRANCH  25  29
BRANCH  25  30
ATOM     30  C   UNL     1       2.457  -0.896  -1.407  0.00  0.00    +0.104 C 
ATOM     31  C   UNL     1       2.968  -2.329  -1.248  0.00  0.00    +0.024 C 
ENDBRANCH  25  30
ENDBRANCH  24  26
ENDBRANCH   1  24
BRANCH  14  32
ATOM     32  C   UNL     1       0.338   5.045  -5.854  0.00  0.00    -0.043 C 
BRANCH  32  33
ATOM     33  C   UNL     1       0.056   5.975  -4.702  0.00  0.00    -0.064 A 
ATOM     34  C   UNL     1      -1.248   6.219  -4.314  0.00  0.00    +0.002 A 
ATOM     35  C   UNL     1      -1.507   7.072  -3.258  0.00  0.00    +0.000 A 
ATOM     36  C   UNL     1      -0.461   7.681  -2.589  0.00  0.00    +0.000 A 
ATOM     37  C   UNL     1       0.843   7.436  -2.976  0.00  0.00    +0.000 A 
ATOM     38  C   UNL     1       1.102   6.579  -4.029  0.00  0.00    +0.002 A 
ENDBRANCH  32  33
ENDBRANCH  14  32
TORSDOF 7
