REMARK  Name = ZINC08916382
REMARK  12 active torsions:
REMARK  status: ('A' for Active; 'I' for Inactive)
REMARK    1  A    between atoms: C_1  and  C_2
REMARK    2  A    between atoms: C_2  and  C_3
REMARK    3  A    between atoms: C_2  and  C_4
REMARK    4  A    between atoms: C_2  and  O_5
REMARK    5  A    between atoms: O_5  and  C_6
REMARK    6  A    between atoms: C_15  and  C_27
REMARK    7  A    between atoms: C_17  and  C_23
REMARK    8  A    between atoms: C_17  and  C_25
REMARK    9  A    between atoms: C_18  and  N_22
REMARK   10  A    between atoms: C_19  and  C_20
REMARK   11  A    between atoms: C_30  and  O_37
REMARK   12  A    between atoms: O_37  and  C_38
REMARK                            x       y       z     vdW  Elec       q    Type
REMARK                         _______ _______ _______ _____ _____    ______ ____
ROOT
ATOM      1  C   UNL     1       0.679  -1.743   1.815  0.00  0.00    +0.404 C 
ATOM      2  O   UNL     1      -0.355  -1.868   2.440  0.00  0.00    -0.226 OA
ATOM      3  N   UNL     1       0.711  -0.963   0.716  0.00  0.00    -0.263 N 
ATOM      4  C   UNL     1       1.949  -0.789  -0.066  0.00  0.00    +0.138 C 
ATOM      5  C   UNL     1       2.224   0.692  -0.139  0.00  0.00    -0.003 C 
ATOM      6  C   UNL     1       1.249   1.575  -0.056  0.00  0.00    -0.026 C 
ATOM      7  C   UNL     1      -0.204   1.225   0.069  0.00  0.00    +0.048 C 
ATOM      8  C   UNL     1      -0.482  -0.250   0.248  0.00  0.00    +0.120 C 
ATOM      9  C   UNL     1      -0.806   2.060   1.200  0.00  0.00    +0.068 C 
ATOM     10  C   UNL     1      -0.718   3.539   0.824  0.00  0.00    +0.188 C 
ATOM     11  C   UNL     1       0.666   3.919   0.391  0.00  0.00    +0.054 C 
ATOM     12  C   UNL     1       1.592   3.023  -0.032  0.00  0.00    +0.074 C 
ENDROOT
BRANCH   9  13
ATOM     13  C   UNL     1      -0.035   1.816   2.472  0.00  0.00    -0.033 A 
ATOM     14  C   UNL     1       1.247   2.260   2.590  0.00  0.00    +0.008 A 
ATOM     15  C   UNL     1       1.975   2.050   3.758  0.00  0.00    +0.046 A 
ATOM     16  C   UNL     1       1.427   1.383   4.817  0.00  0.00    +0.128 A 
ATOM     17  C   UNL     1       0.104   0.905   4.727  0.00  0.00    +0.024 A 
ATOM     18  C   UNL     1      -0.635   1.125   3.538  0.00  0.00    -0.011 A 
ATOM     19  C   UNL     1      -1.954   0.649   3.449  0.00  0.00    +0.009 A 
ATOM     20  C   UNL     1      -2.503  -0.016   4.503  0.00  0.00    +0.001 A 
ATOM     21  C   UNL     1      -1.776  -0.232   5.672  0.00  0.00    +0.001 A 
ATOM     22  C   UNL     1      -0.496   0.215   5.793  0.00  0.00    +0.012 A 
BRANCH  16  23
ATOM     23  O   UNL     1       2.151   1.183   5.948  0.00  0.00    -0.495 OA
ATOM     24  C   UNL     1       3.485   1.696   5.963  0.00  0.00    +0.277 C 
ENDBRANCH  16  23
ENDBRANCH   9  13
BRANCH  11  25
ATOM     25  N   UNL     1       1.014   5.240   0.425  0.00  0.00    -0.358 N 
ATOM     26  H   UNL     1       2.022   5.551   0.115  0.00  0.00    +0.142 HD
ATOM     27  H   UNL     1       0.285   5.992   0.763  0.00  0.00    +0.142 HD
ENDBRANCH  11  25
BRANCH  12  28
ATOM     28  C   UNL     1       2.888   3.466  -0.451  0.00  0.00    +0.101 C 
ATOM     29  N   UNL     1       3.916   3.817  -0.784  0.00  0.00    -0.191 NA
ENDBRANCH  12  28
BRANCH  10  30
ATOM     30  C   UNL     1      -1.098   4.355   1.989  0.00  0.00    +0.091 C 
ATOM     31  N   UNL     1      -1.391   4.984   2.888  0.00  0.00    -0.194 NA
ENDBRANCH  10  30
BRANCH  10  32
ATOM     32  C   UNL     1      -1.657   3.811  -0.277  0.00  0.00    +0.091 C 
ATOM     33  N   UNL     1      -2.381   4.021  -1.127  0.00  0.00    -0.194 NA
ENDBRANCH  10  32
BRANCH   1  34
ATOM     34  O   UNL     1       1.792  -2.384   2.219  0.00  0.00    -0.445 OA
BRANCH  34  36
ATOM     35  C   UNL     1       0.639  -4.302   3.179  0.00  0.00    +0.055 C 
ATOM     36  C   UNL     1       1.683  -3.207   3.409  0.00  0.00    +0.107 C 
ATOM     37  C   UNL     1       3.038  -3.850   3.711  0.00  0.00    +0.055 C 
ATOM     38  C   UNL     1       1.257  -2.337   4.594  0.00  0.00    +0.055 C 
ENDBRANCH  34  36
ENDBRANCH   1  34
TORSDOF 8
