REMARK  Name = ZINC33551526
REMARK  8 active torsions:
REMARK  status: ('A' for Active; 'I' for Inactive)
REMARK    1  A    between atoms: C_1  and  C_2
REMARK    2  A    between atoms: C_2  and  C_3
REMARK    3  A    between atoms: C_6  and  N_9
REMARK    4  A    between atoms: C_14  and  C_33
REMARK    5  A    between atoms: C_17  and  C_22
REMARK    6  A    between atoms: C_17  and  C_30
REMARK    7  A    between atoms: C_22  and  C_23
REMARK    8  A    between atoms: C_26  and  O_29
REMARK                            x       y       z     vdW  Elec       q    Type
REMARK                         _______ _______ _______ _____ _____    ______ ____
ROOT
ATOM      1  N   UNL     1       1.580  -1.981  -0.139  0.00  0.00    -0.210 N 
ATOM      2  C   UNL     1       0.378  -2.644  -0.137  0.00  0.00    +0.229 C 
ATOM      3  O   UNL     1      -0.720  -2.179  -0.358  0.00  0.00    -0.275 OA
ATOM      4  C   UNL     1       0.699  -4.010   0.180  0.00  0.00    +0.077 C 
ATOM      5  C   UNL     1       0.135  -5.362   0.166  0.00  0.00    -0.026 C 
ATOM      6  N   UNL     1       1.315  -6.272   0.330  0.00  0.00    +0.396 N 
ATOM      7  C   UNL     1       2.548  -5.419   0.340  0.00  0.00    +0.052 C 
ATOM      8  C   UNL     1       2.130  -4.184  -0.447  0.00  0.00    +0.086 C 
ATOM      9  C   UNL     1       2.652  -2.828  -0.104  0.00  0.00    +0.229 C 
ATOM     10  O   UNL     1       3.800  -2.536   0.155  0.00  0.00    -0.275 OA
ATOM     11  H   UNL     1       1.224  -6.825   1.276  0.00  0.00    -0.083 HD
ATOM     12  H   UNL     1       1.349  -6.983  -0.509  0.00  0.00    -0.083 HD
ENDROOT
BRANCH   5  13
ATOM     13  C   UNL     1      -0.555  -5.628  -1.147  0.00  0.00    -0.053 A 
ATOM     14  C   UNL     1       0.097  -6.291  -2.140  0.00  0.00    +0.002 A 
ATOM     15  C   UNL     1      -0.525  -6.548  -3.361  0.00  0.00    +0.001 A 
ATOM     16  C   UNL     1      -1.803  -6.142  -3.594  0.00  0.00    +0.008 A 
ATOM     17  C   UNL     1      -2.509  -5.455  -2.592  0.00  0.00    -0.018 A 
ATOM     18  C   UNL     1      -1.878  -5.199  -1.349  0.00  0.00    -0.016 A 
ATOM     19  C   UNL     1      -2.582  -4.506  -0.349  0.00  0.00    +0.009 A 
ATOM     20  C   UNL     1      -3.859  -4.101  -0.583  0.00  0.00    +0.001 A 
ATOM     21  C   UNL     1      -4.482  -4.357  -1.803  0.00  0.00    +0.001 A 
ATOM     22  C   UNL     1      -3.830  -5.021  -2.797  0.00  0.00    +0.008 A 
ENDBRANCH   5  13
BRANCH   1  26
ATOM     23  C   UNL     1       1.923   2.172  -0.221  0.00  0.00    -0.048 A 
ATOM     24  C   UNL     1       0.673   1.583  -0.228  0.00  0.00    +0.005 A 
ATOM     25  C   UNL     1       0.556   0.207  -0.201  0.00  0.00    +0.024 A 
ATOM     26  C   UNL     1       1.696  -0.584  -0.167  0.00  0.00    +0.044 A 
ATOM     27  C   UNL     1       2.950   0.010  -0.160  0.00  0.00    +0.024 A 
ATOM     28  C   UNL     1       3.061   1.387  -0.187  0.00  0.00    +0.005 A 
BRANCH  23  30
ATOM     29  C   UNL     1       2.067   4.213   1.181  0.00  0.00    +0.009 C 
ATOM     30  C   UNL     1       2.048   3.674  -0.251  0.00  0.00    +0.032 C 
ENDBRANCH  23  30
ENDBRANCH   1  26
BRANCH   7  31
ATOM     31  C   UNL     1       3.689  -6.125  -0.346  0.00  0.00    +0.347 C 
ATOM     32  O   UNL     1       4.427  -5.510  -1.078  0.00  0.00    -0.248 OA
ATOM     33  O   UNL     1       3.884  -7.438  -0.143  0.00  0.00    -0.248 OA
ENDBRANCH   7  31
BRANCH   7  34
ATOM     34  C   UNL     1       2.929  -5.041   1.773  0.00  0.00    +0.035 C 
BRANCH  34  35
ATOM     35  C   UNL     1       3.361  -6.276   2.520  0.00  0.00    -0.048 A 
ATOM     36  C   UNL     1       2.429  -7.022   3.217  0.00  0.00    +0.007 A 
ATOM     37  C   UNL     1       2.822  -8.158   3.898  0.00  0.00    +0.045 A 
ATOM     38  C   UNL     1       4.155  -8.543   3.892  0.00  0.00    +0.117 A 
ATOM     39  C   UNL     1       5.089  -7.790   3.197  0.00  0.00    +0.045 A 
ATOM     40  C   UNL     1       4.690  -6.657   2.513  0.00  0.00    +0.007 A 
BRANCH  38  41
ATOM     41  O   UNL     1       4.544  -9.657   4.566  0.00  0.00    -0.507 OA
ATOM     42  H   UNL     1       5.601  -9.962   4.560  0.00  0.00    +0.292 HD
ENDBRANCH  38  41
ENDBRANCH  34  35
ENDBRANCH   7  34
TORSDOF 7
