REMARK  Name = ZINC09446976
REMARK  9 active torsions:
REMARK  status: ('A' for Active; 'I' for Inactive)
REMARK    1  A    between atoms: C_1  and  C_2
REMARK    2  A    between atoms: C_7  and  N_8
REMARK    3  A    between atoms: C_9  and  C_11
REMARK    4  A    between atoms: C_11  and  S_12
REMARK    5  A    between atoms: S_12  and  C_13
REMARK    6  A    between atoms: C_18  and  S_31
REMARK    7  A    between atoms: C_27  and  C_29
REMARK    8  A    between atoms: C_27  and  C_30
REMARK    9  A    between atoms: S_31  and  C_32
REMARK                            x       y       z     vdW  Elec       q    Type
REMARK                         _______ _______ _______ _____ _____    ______ ____
ROOT
ATOM      1  C   UNL     1       0.082   0.987   2.823  0.00  0.00    +0.198 A 
ATOM      2  N   UNL     1       1.153   0.235   2.709  0.00  0.00    -0.122 NA
ATOM      3  N   UNL     1       1.605  -0.079   3.873  0.00  0.00    -0.128 NA
ATOM      4  C   UNL     1       0.842   0.448   4.799  0.00  0.00    +0.174 A 
ATOM      5  N   UNL     1      -0.159   1.147   4.160  0.00  0.00    -0.248 N 
ATOM      6  C   UNL     1      -1.116   1.808   4.884  0.00  0.00    +0.177 A 
ATOM      7  N   UNL     1      -1.107   1.795   6.197  0.00  0.00    -0.216 NA
ATOM      8  C   UNL     1      -0.177   1.147   6.894  0.00  0.00    +0.115 A 
ATOM      9  C   UNL     1       0.859   0.429   6.278  0.00  0.00    +0.056 A 
ATOM     10  C   UNL     1       1.800  -0.228   7.176  0.00  0.00    -0.019 A 
ATOM     11  C   UNL     1       1.586  -0.086   8.505  0.00  0.00    +0.021 A 
ATOM     12  S   UNL     1       0.136   0.920   8.628  0.00  0.00    -0.071 S 
ATOM     13  C   UNL     1       2.419  -0.670   9.604  0.00  0.00    +0.203 C 
ATOM     14  O   UNL     1       3.286  -1.658   9.024  0.00  0.00    -0.368 OA
ATOM     15  C   UNL     1       3.973  -1.198   7.857  0.00  0.00    +0.068 C 
ATOM     16  C   UNL     1       2.992  -1.050   6.690  0.00  0.00    +0.071 C 
ATOM     17  C   UNL     1       5.061  -2.206   7.479  0.00  0.00    +0.041 C 
ATOM     18  C   UNL     1       4.618   0.157   8.153  0.00  0.00    +0.041 C 
ENDROOT
BRANCH   6  19
ATOM     19  S   UNL     1      -2.382   2.694   4.037  0.00  0.00    -0.091 S 
ATOM     20  C   UNL     1      -3.315   3.335   5.449  0.00  0.00    +0.093 C 
ENDBRANCH   6  19
BRANCH   1  21
ATOM     21  S   UNL     1      -0.871   1.656   1.501  0.00  0.00    -0.076 S 
BRANCH  21  22
ATOM     22  C   UNL     1      -0.021   1.073   0.008  0.00  0.00    +0.173 C 
BRANCH  22  24
ATOM     23  N   UNL     1      -0.288   1.272  -2.443  0.00  0.00    -0.285 N 
ATOM     24  C   UNL     1      -0.743   1.582  -1.213  0.00  0.00    +0.227 C 
ATOM     25  O   UNL     1      -1.734   2.271  -1.088  0.00  0.00    -0.275 OA
ATOM     26  H   UNL     1       0.547   0.790  -2.544  0.00  0.00    +0.155 HD
BRANCH  23  33
ATOM     27  C   UNL     1       1.104   1.578  -4.906  0.00  0.00    +0.045 C 
ATOM     28  C   UNL     1      -0.382   1.807  -4.796  0.00  0.00    -0.029 A 
ATOM     29  C   UNL     1      -1.108   2.176  -5.912  0.00  0.00    +0.005 A 
ATOM     30  C   UNL     1      -2.471   2.386  -5.812  0.00  0.00    +0.000 A 
ATOM     31  C   UNL     1      -3.112   2.226  -4.597  0.00  0.00    +0.002 A 
ATOM     32  C   UNL     1      -2.392   1.853  -3.479  0.00  0.00    +0.023 A 
ATOM     33  C   UNL     1      -1.022   1.646  -3.575  0.00  0.00    +0.036 A 
ENDBRANCH  23  33
ENDBRANCH  22  24
ENDBRANCH  21  22
ENDBRANCH   1  21
TORSDOF 5
