REMARK  Name = ZINC43795402
REMARK  4 active torsions:
REMARK  status: ('A' for Active; 'I' for Inactive)
REMARK    1  A    between atoms: C_10  and  S_13
REMARK    2  A    between atoms: S_13  and  C_14
REMARK    3  A    between atoms: C_14  and  C_15
REMARK    4  A    between atoms: C_15  and  C_16
REMARK                            x       y       z     vdW  Elec       q    Type
REMARK                         _______ _______ _______ _____ _____    ______ ____
ROOT
ATOM      1  C   UNL     1      -0.017   1.377   0.010  0.00  0.00    +0.069 A 
ATOM      2  C   UNL     1       1.177   2.084   0.002  0.00  0.00    +0.070 A 
ATOM      3  C   UNL     1       2.400   1.396  -0.013  0.00  0.00    +0.093 A 
ATOM      4  C   UNL     1       2.405  -0.002  -0.021  0.00  0.00    +0.071 A 
ATOM      5  C   UNL     1       1.211  -0.691  -0.014  0.00  0.00    +0.161 A 
ATOM      6  C   UNL     1       0.002  -0.004   0.002  0.00  0.00    +0.160 A 
ATOM      7  F   UNL     1      -1.161  -0.692   0.010  0.00  0.00    -0.202 F 
ATOM      8  F   UNL     1       1.216  -2.042  -0.022  0.00  0.00    -0.202 F 
ATOM      9  N   UNL     1       3.386   2.332  -0.018  0.00  0.00    -0.222 NA
ATOM     10  C   UNL     1       2.856   3.530  -0.006  0.00  0.00    +0.167 A 
ATOM     11  N   UNL     1       1.493   3.434   0.006  0.00  0.00    -0.333 N 
ATOM     12  H   UNL     1       0.864   4.172   0.016  0.00  0.00    +0.168 HD
ENDROOT
BRANCH  10  13
ATOM     13  S   UNL     1       3.764   5.040  -0.007  0.00  0.00    -0.087 S 
BRANCH  13  14
ATOM     14  C   UNL     1       5.498   4.508  -0.027  0.00  0.00    +0.086 C 
BRANCH  14  15
ATOM     15  C   UNL     1       6.409   5.738  -0.029  0.00  0.00    +0.107 C 
BRANCH  15  16
ATOM     16  C   UNL     1       7.849   5.297  -0.046  0.00  0.00    +0.221 C 
ATOM     17  O   UNL     1       8.121   4.115  -0.055  0.00  0.00    -0.275 OA
ATOM     18  N   UNL     1       8.836   6.215  -0.051  0.00  0.00    -0.240 N 
ATOM     19  C   UNL     1      10.124   5.821  -0.066  0.00  0.00    +0.303 C 
ATOM     20  O   UNL     1      10.397   4.636  -0.075  0.00  0.00    -0.253 OA
ATOM     21  N   UNL     1      11.111   6.739  -0.070  0.00  0.00    -0.313 N 
ATOM     22  H   UNL     1       8.618   7.161  -0.043  0.00  0.00    +0.159 HD
ATOM     23  H   UNL     1      10.893   7.684  -0.063  0.00  0.00    +0.146 HD
ATOM     24  H   UNL     1      12.038   6.455  -0.081  0.00  0.00    +0.146 HD
ENDBRANCH  15  16
ENDBRANCH  14  15
ENDBRANCH  13  14
ENDBRANCH  10  13
TORSDOF 4
