REMARK  Name = ZINC40006025
REMARK  4 active torsions:
REMARK  status: ('A' for Active; 'I' for Inactive)
REMARK    1  A    between atoms: C_4  and  N_16
REMARK    2  A    between atoms: C_5  and  C_7
REMARK    3  A    between atoms: C_17  and  C_18
REMARK    4  A    between atoms: C_23  and  O_24
REMARK                            x       y       z     vdW  Elec       q    Type
REMARK                         _______ _______ _______ _____ _____    ______ ____
ROOT
ATOM      1  C   UNL     1       0.243   1.732   0.484  0.00  0.00    +0.000 A 
ATOM      2  C   UNL     1       1.502   2.303   0.537  0.00  0.00    +0.002 A 
ATOM      3  C   UNL     1       2.626   1.522   0.364  0.00  0.00    +0.028 A 
ATOM      4  C   UNL     1       2.490   0.150   0.136  0.00  0.00    +0.069 A 
ATOM      5  C   UNL     1       1.216  -0.419   0.084  0.00  0.00    +0.010 A 
ATOM      6  C   UNL     1       0.101   0.374   0.259  0.00  0.00    +0.008 A 
ENDROOT
BRANCH   5   7
ATOM      7  C   UNL     1       1.060  -1.898  -0.162  0.00  0.00    +0.214 C 
ATOM      8  C   UNL     1       1.295  -2.156  -1.639  0.00  0.00    +0.247 C 
ATOM      9  O   UNL     1       2.334  -1.851  -2.183  0.00  0.00    -0.273 OA
ATOM     10  N   UNL     1       0.281  -2.745  -2.317  0.00  0.00    -0.263 N 
ATOM     11  C   UNL     1      -0.855  -3.067  -1.676  0.00  0.00    +0.178 C 
ATOM     12  S   UNL     1      -2.104  -3.809  -2.580  0.00  0.00    -0.015 S 
ATOM     13  N   UNL     1      -1.069  -2.842  -0.376  0.00  0.00    -0.123 NA
ATOM     14  N   UNL     1      -0.245  -2.315   0.378  0.00  0.00    -0.299 N 
ATOM     15  H   UNL     1       0.374  -2.934  -3.264  0.00  0.00    +0.157 HD
ATOM     16  H   UNL     1      -0.456  -2.176   1.315  0.00  0.00    +0.181 HD
ENDBRANCH   5   7
BRANCH   4  17
ATOM     17  N   UNL     1       3.600  -0.631  -0.036  0.00  0.00    -0.255 NA
ATOM     18  C   UNL     1       4.550  -0.245  -0.842  0.00  0.00    +0.123 C 
BRANCH  18  19
ATOM     19  C   UNL     1       5.793  -1.024  -0.939  0.00  0.00    +0.037 A 
ATOM     20  C   UNL     1       6.817  -0.611  -1.798  0.00  0.00    +0.028 A 
ATOM     21  C   UNL     1       7.980  -1.346  -1.883  0.00  0.00    +0.020 A 
ATOM     22  C   UNL     1       8.140  -2.493  -1.121  0.00  0.00    +0.034 A 
ATOM     23  C   UNL     1       7.137  -2.913  -0.269  0.00  0.00    +0.061 A 
ATOM     24  C   UNL     1       5.962  -2.183  -0.166  0.00  0.00    +0.139 A 
ATOM     25 BR   UNL     1       7.369  -4.480   0.763  0.00  0.00    -0.046 Br
ATOM     26 BR   UNL     1       9.364  -0.787  -3.045  0.00  0.00    -0.050 Br
BRANCH  24  27
ATOM     27  O   UNL     1       4.978  -2.591   0.675  0.00  0.00    -0.505 OA
ATOM     28  H   UNL     1       4.339  -3.193   0.271  0.00  0.00    +0.292 HD
ENDBRANCH  24  27
ENDBRANCH  18  19
ENDBRANCH   4  17
TORSDOF 4
