REMARK  Name = ZINC20504766
REMARK  7 active torsions:
REMARK  status: ('A' for Active; 'I' for Inactive)
REMARK    1  A    between atoms: C_1  and  S_2
REMARK    2  A    between atoms: S_2  and  C_5
REMARK    3  A    between atoms: C_5  and  C_6
REMARK    4  A    between atoms: C_6  and  C_7
REMARK    5  A    between atoms: C_7  and  C_9
REMARK    6  A    between atoms: C_7  and  N_21
REMARK    7  A    between atoms: N_11  and  C_12
REMARK                            x       y       z     vdW  Elec       q    Type
REMARK                         _______ _______ _______ _____ _____    ______ ____
ROOT
ATOM      1  C   UNL     1      -1.220  -2.007  -0.396  0.00  0.00    +0.203 C 
ATOM      2  O   UNL     1      -0.184  -2.569  -0.682  0.00  0.00    -0.277 OA
ATOM      3  N   UNL     1      -1.200  -0.722   0.010  0.00  0.00    -0.285 N 
ATOM      4  H   UNL     1      -2.129  -0.235   0.341  0.00  0.00    +0.155 HD
ENDROOT
BRANCH   3   5
ATOM      5  C   UNL     1       0.004  -0.007   0.011  0.00  0.00    +0.062 A 
ATOM      6  C   UNL     1       0.456   0.596  -1.156  0.00  0.00    +0.041 A 
ATOM      7  C   UNL     1       1.644   1.302  -1.152  0.00  0.00    +0.032 A 
ATOM      8  C   UNL     1       2.384   1.407   0.013  0.00  0.00    +0.020 A 
ATOM      9  C   UNL     1       1.936   0.808   1.177  0.00  0.00    +0.032 A 
ATOM     10  C   UNL     1       0.748   0.102   1.179  0.00  0.00    +0.041 A 
ATOM     11 BR   UNL     1       0.137  -0.717   2.770  0.00  0.00    -0.048 Br
ATOM     12 BR   UNL     1       4.009   2.374   0.014  0.00  0.00    -0.050 Br
ATOM     13 BR   UNL     1      -0.549   0.445  -2.750  0.00  0.00    -0.048 Br
ENDBRANCH   3   5
BRANCH   1  14
ATOM     14  C   UNL     1      -2.530  -2.746  -0.494  0.00  0.00    +0.015 C 
BRANCH  14  15
ATOM     15  N   UNL     1      -2.279  -4.193  -0.481  0.00  0.00    +0.386 N 
ATOM     16  H   UNL     1      -1.772  -4.468   0.456  0.00  0.00    -0.089 HD
ATOM     17  H   UNL     1      -1.641  -4.462  -1.335  0.00  0.00    -0.089 HD
ATOM     18  H   UNL     1      -3.235  -4.732  -0.553  0.00  0.00    -0.089 HD
ENDBRANCH  14  15
BRANCH  14  19
ATOM     19  C   UNL     1      -3.235  -2.363  -1.798  0.00  0.00    +0.015 C 
BRANCH  19  20
ATOM     20  C   UNL     1      -4.618  -3.014  -1.840  0.00  0.00    +0.164 C 
BRANCH  20  22
ATOM     21  C   UNL     1      -7.047  -3.416  -3.246  0.00  0.00    +0.194 C 
ATOM     22  S   UNL     1      -5.453  -2.561  -3.385  0.00  0.00    -0.034 S 
ATOM     23  O   UNL     1      -5.692  -1.160  -3.372  0.00  0.00    -0.175 OA
ATOM     24  O   UNL     1      -4.732  -3.128  -4.470  0.00  0.00    -0.175 OA
ENDBRANCH  20  22
ENDBRANCH  19  20
ENDBRANCH  14  19
ENDBRANCH   1  14
TORSDOF 6
