REMARK  Name = ZINC40744393
REMARK  8 active torsions:
REMARK  status: ('A' for Active; 'I' for Inactive)
REMARK    1  A    between atoms: C_5  and  C_7
REMARK    2  A    between atoms: C_7  and  N_8
REMARK    3  A    between atoms: C_10  and  C_17
REMARK    4  A    between atoms: C_17  and  N_18
REMARK    5  A    between atoms: N_18  and  C_19
REMARK    6  A    between atoms: C_19  and  C_20
REMARK    7  A    between atoms: C_20  and  N_21
REMARK    8  A    between atoms: C_22  and  C_24
REMARK                            x       y       z     vdW  Elec       q    Type
REMARK                         _______ _______ _______ _____ _____    ______ ____
ROOT
ATOM      1  C   UNL     1       3.372  -3.890   4.194  0.00  0.00    -0.045 C 
ENDROOT
BRANCH   1   4
ATOM      2  N   UNL     1       1.369  -2.680   1.350  0.00  0.00    -0.342 N 
ATOM      3  C   UNL     1       2.554  -3.017   1.947  0.00  0.00    +0.089 A 
ATOM      4  C   UNL     1       2.332  -3.432   3.204  0.00  0.00    -0.039 A 
ATOM      5  C   UNL     1       0.887  -3.355   3.431  0.00  0.00    +0.001 A 
ATOM      6  C   UNL     1       0.330  -2.871   2.233  0.00  0.00    +0.050 A 
ATOM      7  C   UNL     1      -1.046  -2.685   2.147  0.00  0.00    +0.026 A 
ATOM      8  C   UNL     1      -1.844  -2.974   3.232  0.00  0.00    +0.002 A 
ATOM      9  C   UNL     1      -1.290  -3.448   4.413  0.00  0.00    +0.001 A 
ATOM     10  C   UNL     1       0.058  -3.646   4.516  0.00  0.00    +0.010 A 
BRANCH   2  11
ATOM     11  C   UNL     1       1.229  -2.186  -0.022  0.00  0.00    +0.158 C 
BRANCH  11  16
ATOM     12  C   UNL     1      -0.017   1.378   0.010  0.00  0.00    +0.000 A 
ATOM     13  C   UNL     1       1.171   2.086   0.002  0.00  0.00    +0.001 A 
ATOM     14  C   UNL     1       2.377   1.412  -0.013  0.00  0.00    +0.020 A 
ATOM     15  C   UNL     1       2.397   0.029  -0.021  0.00  0.00    +0.046 A 
ATOM     16  C   UNL     1       1.208  -0.679  -0.013  0.00  0.00    -0.009 A 
ATOM     17  C   UNL     1       0.002  -0.004   0.002  0.00  0.00    +0.007 A 
ATOM     18 CL   UNL     1       3.912  -0.818  -0.041  0.00  0.00    -0.083 Cl
ENDBRANCH  11  16
ENDBRANCH   2  11
ENDBRANCH   1   4
BRANCH   1  19
ATOM     19  N   UNL     1       3.399  -5.358   4.230  0.00  0.00    +0.383 N 
ATOM     20  H   UNL     1       2.494  -5.705   4.509  0.00  0.00    -0.085 HD
ATOM     21  H   UNL     1       3.627  -5.713   3.314  0.00  0.00    -0.085 HD
BRANCH  19  22
ATOM     22  C   UNL     1       4.413  -5.805   5.195  0.00  0.00    -0.063 C 
BRANCH  22  23
ATOM     23  C   UNL     1       4.442  -7.334   5.234  0.00  0.00    +0.085 C 
BRANCH  23  24
ATOM     24  N   UNL     1       5.453  -7.780   6.196  0.00  0.00    -0.312 N 
ATOM     25  C   UNL     1       5.656  -9.097   6.398  0.00  0.00    +0.269 C 
ATOM     26  O   UNL     1       5.001  -9.914   5.783  0.00  0.00    -0.268 OA
ATOM     27  H   UNL     1       5.976  -7.127   6.687  0.00  0.00    +0.149 HD
BRANCH  25  28
ATOM     28  C   UNL     1       6.678  -9.547   7.371  0.00  0.00    +0.209 A 
ATOM     29  C   UNL     1       7.009 -10.941   7.687  0.00  0.00    +0.192 A 
ATOM     30  N   UNL     1       7.955 -10.944   8.587  0.00  0.00    -0.033 NA
ATOM     31  O   UNL     1       8.274  -9.598   8.889  0.00  0.00    -0.240 OA
ATOM     32  N   UNL     1       7.445  -8.771   8.092  0.00  0.00    -0.042 NA
ATOM     33  N   UNL     1       6.418 -12.064   7.125  0.00  0.00    -0.339 N 
ATOM     34  H   UNL     1       5.719 -11.963   6.460  0.00  0.00    +0.144 HD
ATOM     35  H   UNL     1       6.703 -12.950   7.398  0.00  0.00    +0.144 HD
ENDBRANCH  25  28
ENDBRANCH  23  24
ENDBRANCH  22  23
ENDBRANCH  19  22
ENDBRANCH   1  19
TORSDOF 8
