REMARK  Name = ZINC57530894
REMARK  14 active torsions:
REMARK  status: ('A' for Active; 'I' for Inactive)
REMARK    1  A    between atoms: C_1  and  C_2
REMARK    2  A    between atoms: C_2  and  C_3
REMARK    3  A    between atoms: C_3  and  C_4
REMARK    4  A    between atoms: C_3  and  C_5
REMARK    5  A    between atoms: C_3  and  N_6
REMARK    6  A    between atoms: C_7  and  C_11
REMARK    7  A    between atoms: C_11  and  C_13
REMARK    8  A    between atoms: C_11  and  N_27
REMARK    9  A    between atoms: C_17  and  C_26
REMARK   10  A    between atoms: C_19  and  C_25
REMARK   11  A    between atoms: N_27  and  C_28
REMARK   12  A    between atoms: N_27  and  C_36
REMARK   13  A    between atoms: C_28  and  C_29
REMARK   14  A    between atoms: C_36  and  C_37
REMARK                            x       y       z     vdW  Elec       q    Type
REMARK                         _______ _______ _______ _____ _____    ______ ____
ROOT
ATOM      1  C   UNL     1       2.311  -2.268   3.612  0.00  0.00    +0.163 C 
ENDROOT
BRANCH   1   2
ATOM      2  C   UNL     1       3.782  -2.588   3.678  0.00  0.00    +0.042 A 
ATOM      3  C   UNL     1       4.692  -1.583   3.708  0.00  0.00    +0.021 A 
ATOM      4  C   UNL     1       6.113  -1.927   3.772  0.00  0.00    -0.001 A 
ATOM      5  C   UNL     1       7.098  -0.934   3.805  0.00  0.00    +0.013 A 
ATOM      6  C   UNL     1       8.416  -1.289   3.866  0.00  0.00    -0.050 A 
ATOM      7  C   UNL     1       8.787  -2.627   3.894  0.00  0.00    +0.008 A 
ATOM      8  C   UNL     1       7.834  -3.622   3.861  0.00  0.00    -0.026 A 
ATOM      9  C   UNL     1       6.486  -3.284   3.801  0.00  0.00    +0.052 A 
ATOM     10  N   UNL     1       5.511  -4.259   3.768  0.00  0.00    -0.322 N 
ATOM     11  H   UNL     1       5.770  -5.194   3.788  0.00  0.00    +0.169 HD
ATOM     12  C   UNL     1       4.208  -3.933   3.714  0.00  0.00    +0.254 A 
ATOM     13  O   UNL     1       3.374  -4.821   3.692  0.00  0.00    -0.268 OA
ATOM     14  C   UNL     1       8.251  -5.069   3.892  0.00  0.00    +0.046 C 
ATOM     15  C   UNL     1       9.476  -0.219   3.902  0.00  0.00    +0.044 C 
ENDBRANCH   1   2
BRANCH   1  17
ATOM     16  N   UNL     1       1.458  -2.024   1.221  0.00  0.00    -0.222 N 
ATOM     17  C   UNL     1       1.747  -2.765   2.306  0.00  0.00    +0.174 A 
ATOM     18  N   UNL     1       1.443  -4.005   2.007  0.00  0.00    -0.111 NA
ATOM     19  N   UNL     1       0.990  -4.023   0.801  0.00  0.00    -0.023 NA
ATOM     20  N   UNL     1       0.993  -2.827   0.325  0.00  0.00    -0.043 NA
BRANCH  16  21
ATOM     21  C   UNL     1       1.633  -0.576   1.085  0.00  0.00    +0.062 C 
ATOM     22  C   UNL     1       3.095  -0.211   1.350  0.00  0.00    +0.036 C 
ATOM     23  C   UNL     1       0.737   0.143   2.096  0.00  0.00    +0.036 C 
BRANCH  21  25
ATOM     24  C   UNL     1       1.431   1.366  -0.475  0.00  0.00    +0.006 C 
ATOM     25  C   UNL     1       1.249  -0.146  -0.333  0.00  0.00    +0.026 C 
ENDBRANCH  21  25
ENDBRANCH  16  21
ENDBRANCH   1  17
BRANCH   1  26
ATOM     26  N   UNL     1       1.617  -2.924   4.728  0.00  0.00    -0.277 NA
BRANCH  26  27
ATOM     27  C   UNL     1       0.223  -2.470   4.820  0.00  0.00    +0.121 C 
BRANCH  27  28
ATOM     28  C   UNL     1      -0.622  -3.240   3.837  0.00  0.00    -0.033 A 
ATOM     29  C   UNL     1      -0.925  -2.689   2.606  0.00  0.00    +0.008 A 
ATOM     30  C   UNL     1      -1.699  -3.394   1.704  0.00  0.00    +0.038 A 
ATOM     31  C   UNL     1      -2.171  -4.653   2.034  0.00  0.00    +0.123 A 
ATOM     32  C   UNL     1      -1.867  -5.204   3.267  0.00  0.00    +0.038 A 
ATOM     33  C   UNL     1      -1.089  -4.499   4.166  0.00  0.00    +0.008 A 
ATOM     34  F   UNL     1      -2.928  -5.343   1.153  0.00  0.00    -0.205 F 
ENDBRANCH  27  28
ENDBRANCH  26  27
BRANCH  26  35
ATOM     35  C   UNL     1       2.328  -2.702   5.994  0.00  0.00    +0.160 C 
BRANCH  35  36
ATOM     36  C   UNL     1       1.828  -3.677   7.028  0.00  0.00    +0.119 A 
ATOM     37  C   UNL     1       2.385  -4.865   7.323  0.00  0.00    +0.046 A 
ATOM     38  C   UNL     1       1.597  -5.445   8.344  0.00  0.00    +0.041 A 
ATOM     39  C   UNL     1       0.606  -4.576   8.612  0.00  0.00    +0.195 A 
ATOM     40  O   UNL     1       0.754  -3.505   7.816  0.00  0.00    -0.467 OA
ENDBRANCH  35  36
ENDBRANCH  26  35
ENDBRANCH   1  26
TORSDOF 9
