REMARK  Name = ZINC06057116
REMARK  4 active torsions:
REMARK  status: ('A' for Active; 'I' for Inactive)
REMARK    1  A    between atoms: C_3  and  C_6
REMARK    2  A    between atoms: N_7  and  C_8
REMARK    3  A    between atoms: C_11  and  S_14
REMARK    4  A    between atoms: S_14  and  N_17
REMARK                            x       y       z     vdW  Elec       q    Type
REMARK                         _______ _______ _______ _____ _____    ______ ____
ROOT
ATOM      1  C   UNL     1       5.940   1.140  -0.049  0.00  0.00    +0.064 A 
ATOM      2  C   UNL     1       6.362   2.166  -0.897  0.00  0.00    +0.029 A 
ATOM      3  C   UNL     1       7.686   2.552  -0.902  0.00  0.00    +0.031 A 
ATOM      4  C   UNL     1       8.596   1.925  -0.070  0.00  0.00    +0.113 A 
ATOM      5  C   UNL     1       8.186   0.907   0.773  0.00  0.00    +0.031 A 
ATOM      6  C   UNL     1       6.864   0.515   0.793  0.00  0.00    +0.029 A 
ENDROOT
BRANCH   4   7
ATOM      7  S   UNL     1      10.286   2.424  -0.084  0.00  0.00    +0.102 S 
ATOM      8  O   UNL     1      11.041   1.316   0.388  0.00  0.00    -0.146 OA
ATOM      9  O   UNL     1      10.522   3.022  -1.351  0.00  0.00    -0.146 OA
BRANCH   7  10
ATOM     10  N   UNL     1      10.451   3.624   1.045  0.00  0.00    -0.093 NA
ATOM     11  C   UNL     1      11.615   4.178   1.242  0.00  0.00    +0.212 C 
ATOM     12  N   UNL     1      12.704   3.766   0.512  0.00  0.00    -0.369 N 
ATOM     13  N   UNL     1      11.752   5.174   2.179  0.00  0.00    -0.369 N 
ATOM     14  H   UNL     1      12.608   3.063  -0.149  0.00  0.00    +0.159 HD
ATOM     15  H   UNL     1      10.983   5.465   2.694  0.00  0.00    +0.159 HD
ATOM     16  H   UNL     1      12.618   5.586   2.325  0.00  0.00    +0.159 HD
ATOM     17  H   UNL     1      13.570   4.178   0.658  0.00  0.00    +0.159 HD
ENDBRANCH   7  10
ENDBRANCH   4   7
BRANCH   1  19
ATOM     18  C   UNL     1       3.681   1.653  -0.024  0.00  0.00    +0.126 C 
ATOM     19  N   UNL     1       4.629   0.752  -0.038  0.00  0.00    -0.254 NA
BRANCH  18  22
ATOM     20  C   UNL     1      -0.016   1.351   0.009  0.00  0.00    +0.008 A 
ATOM     21  C   UNL     1       1.176   2.036   0.002  0.00  0.00    +0.017 A 
ATOM     22  C   UNL     1       2.321   1.251  -0.013  0.00  0.00    +0.030 A 
ATOM     23  S   UNL     1       1.636  -0.395  -0.016  0.00  0.00    -0.096 S 
ATOM     24  C   UNL     1       0.002  -0.004   0.002  0.00  0.00    +0.046 A 
ENDBRANCH  18  22
ENDBRANCH   1  19
TORSDOF 4
