REMARK  Name = ZINC50200901
REMARK  8 active torsions:
REMARK  status: ('A' for Active; 'I' for Inactive)
REMARK    1  A    between atoms: C_1  and  C_2
REMARK    2  A    between atoms: C_2  and  C_3
REMARK    3  A    between atoms: C_2  and  C_4
REMARK    4  A    between atoms: C_4  and  C_6
REMARK    5  A    between atoms: C_4  and  N_19
REMARK    6  A    between atoms: N_8  and  C_9
REMARK    7  A    between atoms: C_14  and  C_15
REMARK    8  A    between atoms: C_20  and  C_22
REMARK                            x       y       z     vdW  Elec       q    Type
REMARK                         _______ _______ _______ _____ _____    ______ ____
ROOT
ATOM      1  C   UNL     1      -1.431   0.040  -1.507  0.00  0.00    +0.238 C 
ATOM      2  O   UNL     1      -1.804  -0.881  -2.201  0.00  0.00    -0.273 OA
ATOM      3  N   UNL     1      -1.806   1.301  -1.801  0.00  0.00    -0.283 N 
ATOM      4  H   UNL     1      -1.564   2.030  -1.209  0.00  0.00    +0.155 HD
ENDROOT
BRANCH   3   5
ATOM      5  C   UNL     1      -2.541   1.556  -2.955  0.00  0.00    +0.048 A 
ATOM      6  C   UNL     1      -2.467   0.688  -4.036  0.00  0.00    +0.025 A 
ATOM      7  C   UNL     1      -3.196   0.943  -5.180  0.00  0.00    +0.017 A 
ATOM      8  C   UNL     1      -4.006   2.066  -5.261  0.00  0.00    +0.019 A 
ATOM      9  C   UNL     1      -4.092   2.940  -4.199  0.00  0.00    +0.032 A 
ATOM     10  C   UNL     1      -3.365   2.691  -3.030  0.00  0.00    +0.085 A 
ATOM     11 BR   UNL     1      -4.996   2.400  -6.837  0.00  0.00    -0.050 Br
BRANCH  10  12
ATOM     12  C   UNL     1      -3.457   3.616  -1.890  0.00  0.00    +0.388 C 
ATOM     13  O   UNL     1      -4.081   4.663  -2.000  0.00  0.00    -0.241 OA
ATOM     14  O   UNL     1      -2.909   3.339  -0.831  0.00  0.00    -0.241 OA
ENDBRANCH  10  12
ENDBRANCH   3   5
BRANCH   1  15
ATOM     15  C   UNL     1      -0.548  -0.224  -0.314  0.00  0.00    +0.162 C 
BRANCH  15  16
ATOM     16  N   UNL     1      -0.707  -1.617   0.112  0.00  0.00    -0.304 N 
ATOM     17  C   UNL     1      -0.449  -1.965   1.388  0.00  0.00    +0.211 C 
ATOM     18  O   UNL     1      -0.086  -1.125   2.184  0.00  0.00    -0.276 OA
ATOM     19  C   UNL     1      -0.612  -3.398   1.826  0.00  0.00    +0.109 C 
ATOM     20  H   UNL     1      -0.997  -2.289  -0.525  0.00  0.00    +0.149 HD
ENDBRANCH  15  16
BRANCH  15  22
ATOM     21  C   UNL     1       1.802  -0.181   0.532  0.00  0.00    +0.009 C 
ATOM     22  C   UNL     1       0.912   0.030  -0.694  0.00  0.00    +0.012 C 
ATOM     23  C   UNL     1       1.328  -0.943  -1.800  0.00  0.00    +0.009 C 
ENDBRANCH  15  22
ENDBRANCH   1  15
TORSDOF 5
