REMARK  Name = ZINC08770425
REMARK  9 active torsions:
REMARK  status: ('A' for Active; 'I' for Inactive)
REMARK    1  A    between atoms: C_1  and  O_2
REMARK    2  A    between atoms: O_2  and  C_3
REMARK    3  A    between atoms: C_5  and  N_11
REMARK    4  A    between atoms: C_7  and  O_9
REMARK    5  A    between atoms: O_9  and  C_10
REMARK    6  A    between atoms: C_15  and  N_51
REMARK    7  A    between atoms: C_19  and  C_20
REMARK    8  A    between atoms: C_19  and  N_51
REMARK    9  A    between atoms: C_20  and  C_21
REMARK                            x       y       z     vdW  Elec       q    Type
REMARK                         _______ _______ _______ _____ _____    ______ ____
ROOT
ATOM      1  N   UNL     1      -1.834   2.309   0.782  0.00  0.00    -0.212 N 
ATOM      2  C   UNL     1      -0.752   1.639   1.207  0.00  0.00    +0.225 C 
ATOM      3  O   UNL     1      -0.432   1.479   2.365  0.00  0.00    -0.275 OA
ATOM      4  C   UNL     1       0.004   1.111   0.007  0.00  0.00    +0.090 C 
ATOM      5  C   UNL     1      -0.831   1.599  -1.194  0.00  0.00    +0.026 C 
ATOM      6  C   UNL     1      -1.975   2.350  -0.549  0.00  0.00    +0.213 C 
ATOM      7  O   UNL     1      -2.876   2.903  -1.143  0.00  0.00    -0.277 OA
ENDROOT
BRANCH   1  10
ATOM      8  C   UNL     1      -4.431   2.743   3.359  0.00  0.00    +0.125 A 
ATOM      9  C   UNL     1      -3.534   2.139   2.491  0.00  0.00    +0.069 A 
ATOM     10  C   UNL     1      -2.742   2.919   1.660  0.00  0.00    +0.051 A 
ATOM     11  C   UNL     1      -2.843   4.302   1.703  0.00  0.00    +0.069 A 
ATOM     12  C   UNL     1      -3.745   4.904   2.567  0.00  0.00    +0.125 A 
ATOM     13  C   UNL     1      -4.537   4.125   3.397  0.00  0.00    +0.091 A 
BRANCH   8  15
ATOM     14  C   UNL     1      -6.109   2.667   5.041  0.00  0.00    +0.277 C 
ATOM     15  O   UNL     1      -5.207   1.979   4.172  0.00  0.00    -0.495 OA
ENDBRANCH   8  15
BRANCH  12  16
ATOM     16  O   UNL     1      -3.849   6.259   2.605  0.00  0.00    -0.495 OA
ATOM     17  C   UNL     1      -4.794   6.811   3.523  0.00  0.00    +0.277 C 
ENDBRANCH  12  16
ENDBRANCH   1  10
BRANCH   5  18
ATOM     18  N   UNL     1      -1.336   0.449  -1.966  0.00  0.00    +0.387 N 
ATOM     19  H   UNL     1      -2.209   0.112  -1.542  0.00  0.00    -0.085 HD
ATOM     20  H   UNL     1      -0.637  -0.303  -1.952  0.00  0.00    -0.085 HD
BRANCH  18  21
ATOM     21  C   UNL     1      -1.596   0.844  -3.364  0.00  0.00    -0.077 C 
BRANCH  21  22
ATOM     22  C   UNL     1      -2.118  -0.367  -4.139  0.00  0.00    +0.018 C 
BRANCH  22  23
ATOM     23  C   UNL     1      -2.386   0.029  -5.568  0.00  0.00    -0.024 A 
ATOM     24  C   UNL     1      -3.564   0.417  -6.082  0.00  0.00    +0.087 A 
ATOM     25  N   UNL     1      -3.422   0.698  -7.413  0.00  0.00    -0.360 N 
ATOM     26  H   UNL     1      -4.136   0.998  -7.998  0.00  0.00    +0.165 HD
ATOM     27  C   UNL     1      -2.116   0.492  -7.799  0.00  0.00    +0.047 A 
ATOM     28  C   UNL     1      -1.409   0.069  -6.659  0.00  0.00    +0.004 A 
ATOM     29  C   UNL     1      -0.045  -0.213  -6.750  0.00  0.00    +0.030 A 
ATOM     30  C   UNL     1       0.601  -0.072  -7.958  0.00  0.00    +0.042 A 
ATOM     31  C   UNL     1      -0.097   0.348  -9.083  0.00  0.00    +0.022 A 
ATOM     32  C   UNL     1      -1.445   0.624  -9.010  0.00  0.00    +0.027 A 
ATOM     33 CL   UNL     1       2.297  -0.422  -8.077  0.00  0.00    -0.084 Cl
ENDBRANCH  22  23
ENDBRANCH  21  22
ENDBRANCH  18  21
ENDBRANCH   5  18
TORSDOF 7
