REMARK  Name = ZINC13555381
REMARK  8 active torsions:
REMARK  status: ('A' for Active; 'I' for Inactive)
REMARK    1  A    between atoms: C_1  and  O_2
REMARK    2  A    between atoms: O_2  and  C_3
REMARK    3  A    between atoms: C_6  and  C_11
REMARK    4  A    between atoms: C_8  and  O_9
REMARK    5  A    between atoms: O_9  and  C_10
REMARK    6  A    between atoms: C_25  and  S_35
REMARK    7  A    between atoms: C_28  and  C_30
REMARK    8  A    between atoms: S_35  and  C_36
REMARK                            x       y       z     vdW  Elec       q    Type
REMARK                         _______ _______ _______ _____ _____    ______ ____
ROOT
ATOM      1  C   UNL     1       2.507  -2.501  -4.386  0.00  0.00    +0.234 C 
ATOM      2  C   UNL     1       4.004  -2.504  -4.170  0.00  0.00    +0.026 C 
ATOM      3  C   UNL     1       4.723  -1.458  -4.583  0.00  0.00    +0.050 C 
ATOM      4  C   UNL     1       4.020  -0.340  -5.257  0.00  0.00    +0.038 A 
ATOM      5  C   UNL     1       4.614   0.907  -5.409  0.00  0.00    +0.013 A 
ATOM      6  C   UNL     1       3.920   1.918  -6.045  0.00  0.00    +0.001 A 
ATOM      7  C   UNL     1       2.643   1.693  -6.529  0.00  0.00    +0.004 A 
ATOM      8  C   UNL     1       2.045   0.455  -6.382  0.00  0.00    +0.046 A 
ATOM      9  C   UNL     1       2.727  -0.567  -5.747  0.00  0.00    +0.131 A 
ATOM     10  O   UNL     1       2.174  -1.794  -5.581  0.00  0.00    -0.479 OA
ATOM     11  N   UNL     1       6.107  -1.382  -4.392  0.00  0.00    -0.283 N 
ATOM     12  C   UNL     1       6.683  -2.301  -3.530  0.00  0.00    +0.220 A 
ATOM     13  N   UNL     1       7.873  -2.329  -2.995  0.00  0.00    -0.187 NA
ATOM     14  C   UNL     1       7.987  -3.413  -2.214  0.00  0.00    +0.210 A 
ATOM     15  N   UNL     1       6.859  -4.088  -2.249  0.00  0.00    -0.141 NA
ATOM     16  N   UNL     1       6.000  -3.390  -3.098  0.00  0.00    -0.220 N 
ATOM     17  C   UNL     1       4.631  -3.699  -3.498  0.00  0.00    +0.179 C 
ATOM     18  H   UNL     1       6.643  -0.713  -4.847  0.00  0.00    +0.155 HD
ENDROOT
BRANCH   1  22
ATOM     19  C   UNL     1       0.607  -0.608  -1.056  0.00  0.00    +0.162 A 
ATOM     20  C   UNL     1       1.246   0.157  -2.019  0.00  0.00    +0.050 A 
ATOM     21  C   UNL     1       1.860  -0.458  -3.094  0.00  0.00    +0.011 A 
ATOM     22  C   UNL     1       1.837  -1.836  -3.212  0.00  0.00    +0.001 A 
ATOM     23  C   UNL     1       1.200  -2.604  -2.255  0.00  0.00    +0.057 A 
ATOM     24  C   UNL     1       0.589  -1.994  -1.172  0.00  0.00    +0.162 A 
BRANCH  19  26
ATOM     25  C   UNL     1       0.061   1.423   0.056  0.00  0.00    +0.277 C 
ATOM     26  O   UNL     1       0.003  -0.004   0.002  0.00  0.00    -0.491 OA
ENDBRANCH  19  26
BRANCH  24  27
ATOM     27  O   UNL     1      -0.033  -2.749  -0.227  0.00  0.00    -0.491 OA
ATOM     28  C   UNL     1      -0.012  -4.166  -0.410  0.00  0.00    +0.277 C 
ENDBRANCH  24  27
ENDBRANCH   1  22
BRANCH  17  29
ATOM     29  C   UNL     1       4.642  -4.863  -4.455  0.00  0.00    +0.019 A 
ATOM     30  C   UNL     1       4.054  -6.078  -4.328  0.00  0.00    +0.013 A 
ATOM     31  C   UNL     1       4.198  -7.002  -5.346  0.00  0.00    +0.008 A 
ATOM     32  C   UNL     1       4.923  -6.665  -6.441  0.00  0.00    +0.045 A 
ATOM     33  S   UNL     1       5.424  -4.996  -6.054  0.00  0.00    -0.099 S 
ENDBRANCH  17  29
BRANCH  14  34
ATOM     34  S   UNL     1       9.419  -3.862  -1.289  0.00  0.00    -0.088 S 
ATOM     35  C   UNL     1      10.610  -2.545  -1.659  0.00  0.00    +0.093 C 
ENDBRANCH  14  34
TORSDOF 5
