REMARK  Name = ZINC59160767
REMARK  12 active torsions:
REMARK  status: ('A' for Active; 'I' for Inactive)
REMARK    1  A    between atoms: C_1  and  C_2
REMARK    2  A    between atoms: C_2  and  C_3
REMARK    3  A    between atoms: C_2  and  C_4
REMARK    4  A    between atoms: C_4  and  C_5
REMARK    5  A    between atoms: C_5  and  C_7
REMARK    6  A    between atoms: C_5  and  N_29
REMARK    7  A    between atoms: N_9  and  N_10
REMARK    8  A    between atoms: C_11  and  C_12
REMARK    9  A    between atoms: C_15  and  O_19
REMARK   10  A    between atoms: O_19  and  C_20
REMARK   11  A    between atoms: C_20  and  C_21
REMARK   12  A    between atoms: C_26  and  C_27
REMARK                            x       y       z     vdW  Elec       q    Type
REMARK                         _______ _______ _______ _____ _____    ______ ____
ROOT
ATOM      1  C   UNL     1      -6.480  -3.599  -3.138  0.00  0.00    -0.004 A 
ATOM      2  C   UNL     1      -7.259  -4.034  -2.062  0.00  0.00    +0.013 A 
ATOM      3  C   UNL     1      -8.537  -4.500  -2.283  0.00  0.00    +0.047 A 
ATOM      4  C   UNL     1      -9.051  -4.539  -3.572  0.00  0.00    +0.134 A 
ATOM      5  C   UNL     1      -8.281  -4.108  -4.645  0.00  0.00    +0.056 A 
ATOM      6  C   UNL     1      -7.004  -3.635  -4.433  0.00  0.00    +0.027 A 
ATOM      7  I   UNL     1      -9.065  -4.171  -6.587  0.00  0.00    -0.040 I 
ENDROOT
BRANCH   1   9
ATOM      8  N   UNL     1      -4.628  -3.067  -1.703  0.00  0.00    -0.188 NA
ATOM      9  C   UNL     1      -5.113  -3.099  -2.907  0.00  0.00    +0.138 C 
BRANCH   8  12
ATOM     10  C   UNL     1      -2.826  -2.559  -0.234  0.00  0.00    +0.218 C 
ATOM     11  O   UNL     1      -3.499  -2.940   0.701  0.00  0.00    -0.276 OA
ATOM     12  N   UNL     1      -3.329  -2.592  -1.484  0.00  0.00    -0.208 N 
ATOM     13  H   UNL     1      -2.791  -2.287  -2.231  0.00  0.00    +0.177 HD
BRANCH  10  14
ATOM     14  C   UNL     1      -1.428  -2.048   0.003  0.00  0.00    +0.015 C 
BRANCH  14  15
ATOM     15  N   UNL     1      -0.940  -2.538   1.299  0.00  0.00    +0.386 N 
ATOM     16  H   UNL     1      -1.014  -3.544   1.327  0.00  0.00    -0.089 HD
ATOM     17  H   UNL     1       0.025  -2.268   1.419  0.00  0.00    -0.089 HD
ATOM     18  H   UNL     1      -1.496  -2.138   2.040  0.00  0.00    -0.089 HD
ENDBRANCH  14  15
BRANCH  14  19
ATOM     19  C   UNL     1      -1.439  -0.518   0.007  0.00  0.00    -0.004 C 
BRANCH  19  21
ATOM     20  C   UNL     1       0.784  -0.381  -1.125  0.00  0.00    +0.007 C 
ATOM     21  C   UNL     1      -0.005   0.002   0.129  0.00  0.00    -0.018 C 
ATOM     22  C   UNL     1      -0.025   1.525   0.274  0.00  0.00    +0.007 C 
ENDBRANCH  19  21
ENDBRANCH  14  19
ENDBRANCH  10  14
ENDBRANCH   8  12
ENDBRANCH   1   9
BRANCH   4  23
ATOM     23  O   UNL     1     -10.312  -4.999  -3.785  0.00  0.00    -0.486 OA
BRANCH  23  24
ATOM     24  C   UNL     1     -11.049  -5.427  -2.638  0.00  0.00    +0.265 C 
BRANCH  24  25
ATOM     25  C   UNL     1     -12.414  -5.901  -3.065  0.00  0.00    +0.007 A 
ATOM     26  C   UNL     1     -12.767  -5.878  -4.399  0.00  0.00    +0.008 A 
ATOM     27  C   UNL     1     -14.020  -6.313  -4.793  0.00  0.00    +0.000 A 
ATOM     28  C   UNL     1     -14.927  -6.773  -3.854  0.00  0.00    +0.001 A 
ATOM     29  C   UNL     1     -14.586  -6.801  -2.518  0.00  0.00    +0.019 A 
ATOM     30  C   UNL     1     -13.321  -6.370  -2.114  0.00  0.00    +0.058 A 
BRANCH  30  31
ATOM     31  C   UNL     1     -12.959  -6.402  -0.729  0.00  0.00    +0.100 C 
ATOM     32  N   UNL     1     -12.671  -6.428   0.370  0.00  0.00    -0.191 NA
ENDBRANCH  30  31
ENDBRANCH  24  25
ENDBRANCH  23  24
ENDBRANCH   4  23
TORSDOF 10
