REMARK  Name = ZINC39637139
REMARK  5 active torsions:
REMARK  status: ('A' for Active; 'I' for Inactive)
REMARK    1  A    between atoms: C_1  and  C_2
REMARK    2  A    between atoms: C_7  and  N_12
REMARK    3  A    between atoms: C_9  and  C_11
REMARK    4  A    between atoms: C_13  and  C_15
REMARK    5  A    between atoms: C_26  and  C_28
REMARK                            x       y       z     vdW  Elec       q    Type
REMARK                         _______ _______ _______ _____ _____    ______ ____
ROOT
ATOM      1  C   UNL     1       1.363  -0.333   6.074  0.00  0.00    +0.100 C 
ATOM      2  C   UNL     1       0.754  -1.669   6.555  0.00  0.00    +0.121 C 
ATOM      3  N   UNL     1       0.806  -1.593   8.034  0.00  0.00    -0.296 N 
ATOM      4  C   UNL     1       0.456  -0.186   8.344  0.00  0.00    +0.115 C 
ATOM      5  C   UNL     1       1.164   0.638   7.250  0.00  0.00    -0.004 C 
ATOM      6  C   UNL     1       0.288   1.812   6.824  0.00  0.00    -0.010 C 
ATOM      7  C   UNL     1       0.153   2.793   7.993  0.00  0.00    -0.082 C 
ATOM      8  N   UNL     1       1.484   3.268   8.391  0.00  0.00    +0.379 N 
ATOM      9  C   UNL     1       2.289   2.145   8.887  0.00  0.00    -0.082 C 
ATOM     10  C   UNL     1       2.514   1.137   7.756  0.00  0.00    -0.010 C 
ATOM     11  C   UNL     1       1.105  -2.580   8.902  0.00  0.00    +0.249 C 
ATOM     12  O   UNL     1       1.105  -2.359  10.097  0.00  0.00    -0.270 OA
ATOM     13  H   UNL     1       1.943   3.684   7.595  0.00  0.00    -0.086 HD
ATOM     14  H   UNL     1       1.388   3.959   9.120  0.00  0.00    -0.086 HD
ENDROOT
BRANCH  11  15
ATOM     15  C   UNL     1       1.432  -3.930   8.400  0.00  0.00    +0.073 A 
ATOM     16  C   UNL     1       2.756  -4.270   8.111  0.00  0.00    +0.054 A 
ATOM     17  C   UNL     1       3.055  -5.535   7.643  0.00  0.00    +0.021 A 
ATOM     18  C   UNL     1       2.046  -6.464   7.460  0.00  0.00    +0.003 A 
ATOM     19  C   UNL     1       0.733  -6.135   7.744  0.00  0.00    +0.021 A 
ATOM     20  C   UNL     1       0.420  -4.876   8.218  0.00  0.00    +0.054 A 
ATOM     21 CL   UNL     1      -1.228  -4.468   8.581  0.00  0.00    -0.083 Cl
ATOM     22 CL   UNL     1       4.023  -3.105   8.338  0.00  0.00    -0.083 Cl
ENDBRANCH  11  15
BRANCH   1  24
ATOM     23  N   UNL     1       1.282   0.918   3.942  0.00  0.00    -0.312 N 
ATOM     24  C   UNL     1       0.634   0.166   4.853  0.00  0.00    +0.218 C 
ATOM     25  O   UNL     1      -0.536  -0.109   4.690  0.00  0.00    -0.275 OA
ATOM     26  H   UNL     1       2.218   1.138   4.071  0.00  0.00    +0.149 HD
BRANCH  23  32
ATOM     27  C   UNL     1      -0.933   3.495   1.362  0.00  0.00    +0.008 C 
ATOM     28  C   UNL     1       0.517   3.176   0.995  0.00  0.00    -0.009 C 
ATOM     29  C   UNL     1       0.544   2.099  -0.091  0.00  0.00    +0.003 C 
ATOM     30  C   UNL     1      -0.140   0.833   0.429  0.00  0.00    +0.002 C 
ATOM     31  C   UNL     1       0.600   0.326   1.669  0.00  0.00    +0.022 C 
ATOM     32  C   UNL     1       0.573   1.404   2.755  0.00  0.00    +0.076 C 
ATOM     33  C   UNL     1       1.258   2.669   2.234  0.00  0.00    +0.009 C 
ATOM     34  C   UNL     1       1.231   3.747   3.320  0.00  0.00    +0.009 C 
ENDBRANCH  23  32
ENDBRANCH   1  24
TORSDOF 3
