REMARK  Name = ZINC39445388
REMARK  8 active torsions:
REMARK  status: ('A' for Active; 'I' for Inactive)
REMARK    1  A    between atoms: C_4  and  C_7
REMARK    2  A    between atoms: C_11  and  C_14
REMARK    3  A    between atoms: C_14  and  N_15
REMARK    4  A    between atoms: C_16  and  C_18
REMARK    5  A    between atoms: C_21  and  C_25
REMARK    6  A    between atoms: C_25  and  N_26
REMARK    7  A    between atoms: C_30  and  C_32
REMARK    8  A    between atoms: C_32  and  O_33
REMARK                            x       y       z     vdW  Elec       q    Type
REMARK                         _______ _______ _______ _____ _____    ______ ____
ROOT
ATOM      1  C   UNL     1       1.678  -6.465  -0.216  0.00  0.00    +0.101 A 
ATOM      2  C   UNL     1       1.270  -7.780  -0.430  0.00  0.00    +0.020 A 
ATOM      3  C   UNL     1       0.162  -8.265   0.264  0.00  0.00    +0.020 A 
ATOM      4  C   UNL     1      -0.503  -7.461   1.133  0.00  0.00    +0.003 A 
ATOM      5  N   UNL     1      -0.113  -6.181   1.346  0.00  0.00    -0.327 N 
ATOM      6  C   UNL     1       0.954  -5.665   0.706  0.00  0.00    +0.261 A 
ATOM      7  O   UNL     1       1.294  -4.514   0.915  0.00  0.00    -0.267 OA
ATOM      8  H   UNL     1      -0.607  -5.630   1.972  0.00  0.00    +0.169 HD
ENDROOT
BRANCH   1  10
ATOM      9  N   UNL     1       3.296  -4.684  -0.630  0.00  0.00    -0.309 N 
ATOM     10  C   UNL     1       2.841  -5.917  -0.930  0.00  0.00    +0.249 C 
ATOM     11  O   UNL     1       3.393  -6.576  -1.790  0.00  0.00    -0.270 OA
ATOM     12  H   UNL     1       2.813  -4.129   0.002  0.00  0.00    +0.149 HD
BRANCH   9  13
ATOM     13  C   UNL     1       4.521  -4.183  -1.258  0.00  0.00    +0.134 C 
BRANCH  13  17
ATOM     14  C   UNL     1       3.738  -0.717  -0.009  0.00  0.00    +0.095 C 
ATOM     15  C   UNL     1       4.089  -1.182   1.428  0.00  0.00    +0.094 C 
ATOM     16  S   UNL     1       5.000  -2.746   1.086  0.00  0.00    -0.139 S 
ATOM     17  C   UNL     1       4.814  -2.770  -0.749  0.00  0.00    +0.130 C 
ATOM     18  N   UNL     1       3.625  -1.879  -0.909  0.00  0.00    -0.296 NA
ATOM     19  H   UNL     1       2.768  -2.385  -0.741  0.00  0.00    +0.124 HD
BRANCH  14  23
ATOM     20  C   UNL     1       0.021   1.387   0.052  0.00  0.00    +0.000 A 
ATOM     21  C   UNL     1       1.212   2.088   0.047  0.00  0.00    +0.000 A 
ATOM     22  C   UNL     1       2.415   1.408   0.028  0.00  0.00    +0.005 A 
ATOM     23  C   UNL     1       2.426   0.026   0.013  0.00  0.00    -0.030 A 
ATOM     24  C   UNL     1       1.235  -0.676   0.018  0.00  0.00    +0.005 A 
ATOM     25  C   UNL     1       0.032   0.005   0.036  0.00  0.00    +0.000 A 
ENDBRANCH  14  23
ENDBRANCH  13  17
ENDBRANCH   9  13
ENDBRANCH   1  10
BRANCH   4  26
ATOM     26  C   UNL     1      -1.698  -8.002   1.875  0.00  0.00    -0.024 C 
BRANCH  26  27
ATOM     27  N   UNL     1      -1.403  -8.046   3.313  0.00  0.00    +0.387 N 
ATOM     28  C   UNL     1      -0.330  -9.030   3.571  0.00  0.00    -0.078 C 
ATOM     29  C   UNL     1      -0.705  -9.676   4.928  0.00  0.00    -0.020 C 
ATOM     30  C   UNL     1      -2.251  -9.749   4.825  0.00  0.00    -0.015 C 
ATOM     31  C   UNL     1      -2.608  -8.460   4.054  0.00  0.00    -0.042 C 
ATOM     32  H   UNL     1      -1.108  -7.134   3.628  0.00  0.00    -0.081 HD
BRANCH  31  33
ATOM     33  C   UNL     1      -3.018  -7.363   5.038  0.00  0.00    +0.140 C 
BRANCH  33  34
ATOM     34  O   UNL     1      -2.002  -7.211   6.032  0.00  0.00    -0.397 OA
ATOM     35  H   UNL     1      -2.195  -6.530   6.691  0.00  0.00    +0.209 HD
ENDBRANCH  33  34
ENDBRANCH  31  33
ENDBRANCH  26  27
ENDBRANCH   4  26
TORSDOF 8
