REMARK  Name = ZINC63731430
REMARK  6 active torsions:
REMARK  status: ('A' for Active; 'I' for Inactive)
REMARK    1  A    between atoms: C_1  and  C_2
REMARK    2  A    between atoms: N_6  and  C_24
REMARK    3  A    between atoms: C_7  and  S_13
REMARK    4  A    between atoms: S_13  and  C_14
REMARK    5  A    between atoms: C_14  and  C_15
REMARK    6  A    between atoms: N_17  and  C_18
REMARK                            x       y       z     vdW  Elec       q    Type
REMARK                         _______ _______ _______ _____ _____    ______ ____
ROOT
ATOM      1  C   UNL     1      -0.053   1.530  -0.032  0.00  0.00    +0.068 C 
ATOM      2  C   UNL     1      -0.017   0.024  -0.021  0.00  0.00    +0.075 C 
ATOM      3  C   UNL     1      -1.079  -0.786  -0.011  0.00  0.00    +0.083 C 
ATOM      4  C   UNL     1      -2.545  -0.599   0.034  0.00  0.00    +0.133 C 
ATOM      5  N   UNL     1      -3.150   0.521  -0.253  0.00  0.00    -0.285 NA
ATOM      6  N   UNL     1      -3.206  -1.778   0.424  0.00  0.00    -0.253 N 
ATOM      7  C   UNL     1      -2.748  -3.049  -0.143  0.00  0.00    +0.260 C 
ATOM      8  N   UNL     1      -1.294  -3.215  -0.063  0.00  0.00    -0.230 NA
ATOM      9  C   UNL     1      -0.518  -2.181  -0.026  0.00  0.00    +0.185 C 
ATOM     10  N   UNL     1       0.827  -2.005  -0.017  0.00  0.00    -0.129 NA
ATOM     11  N   UNL     1       1.095  -0.743  -0.028  0.00  0.00    -0.152 NA
ATOM     12  H   UNL     1      -2.632   1.298  -0.516  0.00  0.00    +0.188 HD
ENDROOT
BRANCH   6  13
ATOM     13  C   UNL     1      -4.271  -1.738   1.329  0.00  0.00    +0.038 A 
ATOM     14  C   UNL     1      -4.987  -2.894   1.613  0.00  0.00    +0.024 A 
ATOM     15  C   UNL     1      -6.038  -2.851   2.507  0.00  0.00    +0.017 A 
ATOM     16  C   UNL     1      -6.379  -1.659   3.121  0.00  0.00    +0.018 A 
ATOM     17  C   UNL     1      -5.667  -0.506   2.840  0.00  0.00    +0.017 A 
ATOM     18  C   UNL     1      -4.612  -0.543   1.951  0.00  0.00    +0.024 A 
ATOM     19 BR   UNL     1      -7.819  -1.605   4.345  0.00  0.00    -0.050 Br
ENDBRANCH   6  13
BRANCH   7  20
ATOM     20  S   UNL     1      -3.248  -3.126  -1.885  0.00  0.00    -0.106 S 
BRANCH  20  21
ATOM     21  C   UNL     1      -2.428  -1.696  -2.641  0.00  0.00    +0.168 C 
BRANCH  21  22
ATOM     22  C   UNL     1      -2.764  -1.641  -4.109  0.00  0.00    +0.223 C 
ATOM     23  O   UNL     1      -3.487  -2.485  -4.597  0.00  0.00    -0.275 OA
ATOM     24  N   UNL     1      -2.263  -0.656  -4.880  0.00  0.00    -0.312 N 
ATOM     25  H   UNL     1      -1.685   0.018  -4.489  0.00  0.00    +0.149 HD
BRANCH  24  26
ATOM     26  C   UNL     1      -2.590  -0.603  -6.307  0.00  0.00    +0.073 C 
ATOM     27  C   UNL     1      -1.627  -1.502  -7.085  0.00  0.00    +0.022 C 
ATOM     28  C   UNL     1      -1.968  -1.446  -8.575  0.00  0.00    +0.002 C 
ATOM     29  C   UNL     1      -1.839  -0.006  -9.075  0.00  0.00    +0.000 C 
ATOM     30  C   UNL     1      -2.802   0.892  -8.297  0.00  0.00    +0.002 C 
ATOM     31  C   UNL     1      -2.460   0.837  -6.807  0.00  0.00    +0.022 C 
ENDBRANCH  24  26
ENDBRANCH  21  22
ENDBRANCH  20  21
ENDBRANCH   7  20
TORSDOF 5
