REMARK  Name = ZINC13640106
REMARK  8 active torsions:
REMARK  status: ('A' for Active; 'I' for Inactive)
REMARK    1  A    between atoms: C_1  and  C_2
REMARK    2  A    between atoms: C_2  and  O_3
REMARK    3  A    between atoms: O_3  and  C_4
REMARK    4  A    between atoms: C_7  and  N_10
REMARK    5  A    between atoms: C_11  and  C_13
REMARK    6  A    between atoms: C_20  and  C_29
REMARK    7  A    between atoms: C_32  and  O_36
REMARK    8  A    between atoms: C_34  and  O_35
REMARK                            x       y       z     vdW  Elec       q    Type
REMARK                         _______ _______ _______ _____ _____    ______ ____
ROOT
ATOM      1  C   UNL     1       2.291   0.906   0.248  0.00  0.00    +0.058 A 
ATOM      2  C   UNL     1       2.309  -0.485   0.336  0.00  0.00    +0.015 A 
ATOM      3  C   UNL     1       3.509  -1.161   0.351  0.00  0.00    +0.001 A 
ATOM      4  C   UNL     1       4.699  -0.454   0.286  0.00  0.00    +0.006 A 
ATOM      5  C   UNL     1       4.700   0.921   0.203  0.00  0.00    -0.019 A 
ATOM      6  C   UNL     1       3.497   1.632   0.166  0.00  0.00    +0.044 A 
ATOM      7  N   UNL     1       3.399   2.987   0.020  0.00  0.00    -0.336 N 
ATOM      8  C   UNL     1       4.658   3.749   0.047  0.00  0.00    +0.108 C 
ATOM      9  C   UNL     1       5.680   2.949  -0.733  0.00  0.00    +0.029 C 
ATOM     10  C   UNL     1       5.960   1.696   0.154  0.00  0.00    +0.049 C 
ATOM     11  C   UNL     1       7.209   1.159  -0.438  0.00  0.00    -0.023 C 
ATOM     12  C   UNL     1       7.904   2.154  -0.955  0.00  0.00    -0.030 C 
ATOM     13  C   UNL     1       7.123   3.462  -0.805  0.00  0.00    +0.033 C 
ATOM     14  H   UNL     1       2.840   3.240  -0.781  0.00  0.00    +0.147 HD
ENDROOT
BRANCH   8  15
ATOM     15  C   UNL     1       4.457   5.095  -0.599  0.00  0.00    +0.015 A 
ATOM     16  C   UNL     1       4.878   5.307  -1.899  0.00  0.00    +0.012 A 
ATOM     17  C   UNL     1       4.695   6.540  -2.494  0.00  0.00    +0.046 A 
ATOM     18  C   UNL     1       4.088   7.570  -1.788  0.00  0.00    +0.120 A 
ATOM     19  C   UNL     1       3.665   7.360  -0.485  0.00  0.00    +0.091 A 
ATOM     20  C   UNL     1       3.845   6.120   0.109  0.00  0.00    +0.125 A 
BRANCH  20  21
ATOM     21  O   UNL     1       3.426   5.909   1.384  0.00  0.00    -0.506 OA
ATOM     22  H   UNL     1       4.115   6.038   2.050  0.00  0.00    +0.292 HD
ENDBRANCH  20  21
BRANCH  18  23
ATOM     23  O   UNL     1       3.907   8.782  -2.375  0.00  0.00    -0.507 OA
ATOM     24  H   UNL     1       3.066   8.872  -2.842  0.00  0.00    +0.292 HD
ENDBRANCH  18  23
ENDBRANCH   8  15
BRANCH   1  26
ATOM     25  N   UNL     1      -0.153   0.932   0.305  0.00  0.00    -0.281 N 
ATOM     26  C   UNL     1       1.003   1.622   0.234  0.00  0.00    +0.250 C 
ATOM     27  O   UNL     1       0.982   2.836   0.157  0.00  0.00    -0.270 OA
ATOM     28  H   UNL     1      -0.140  -0.038   0.299  0.00  0.00    +0.155 HD
BRANCH  25  32
ATOM     29  C   UNL     1      -3.785   2.966   0.538  0.00  0.00    +0.121 A 
ATOM     30  C   UNL     1      -2.747   3.485  -0.223  0.00  0.00    +0.047 A 
ATOM     31  C   UNL     1      -1.544   2.812  -0.300  0.00  0.00    +0.027 A 
ATOM     32  C   UNL     1      -1.373   1.615   0.384  0.00  0.00    +0.034 A 
ATOM     33  C   UNL     1      -2.414   1.094   1.141  0.00  0.00    +0.027 A 
ATOM     34  C   UNL     1      -3.615   1.771   1.222  0.00  0.00    +0.047 A 
BRANCH  29  35
ATOM     35  O   UNL     1      -4.970   3.629   0.613  0.00  0.00    -0.492 OA
BRANCH  35  37
ATOM     36  C   UNL     1      -7.244   3.920   1.378  0.00  0.00    +0.048 C 
ATOM     37  C   UNL     1      -5.994   3.037   1.414  0.00  0.00    +0.225 C 
ENDBRANCH  35  37
ENDBRANCH  29  35
ENDBRANCH  25  32
ENDBRANCH   1  26
TORSDOF 7
