REMARK  Name = ZINC66240549
REMARK  9 active torsions:
REMARK  status: ('A' for Active; 'I' for Inactive)
REMARK    1  A    between atoms: C_1  and  C_2
REMARK    2  A    between atoms: N_8  and  C_9
REMARK    3  A    between atoms: C_9  and  C_11
REMARK    4  A    between atoms: C_9  and  C_12
REMARK    5  A    between atoms: C_12  and  N_13
REMARK    6  A    between atoms: C_14  and  C_16
REMARK    7  A    between atoms: C_19  and  N_22
REMARK    8  A    between atoms: C_23  and  N_29
REMARK    9  A    between atoms: C_24  and  C_27
REMARK                            x       y       z     vdW  Elec       q    Type
REMARK                         _______ _______ _______ _____ _____    ______ ____
ROOT
ATOM      1  C   UNL     1       2.900  -4.442   3.290  0.00  0.00    +0.037 A 
ATOM      2  C   UNL     1       2.260  -4.975   2.168  0.00  0.00    +0.015 A 
ATOM      3  C   UNL     1       2.065  -6.334   2.070  0.00  0.00    +0.028 A 
ATOM      4  C   UNL     1       2.504  -7.177   3.085  0.00  0.00    +0.067 A 
ATOM      5  C   UNL     1       3.142  -6.650   4.203  0.00  0.00    +0.028 A 
ATOM      6  C   UNL     1       3.345  -5.292   4.306  0.00  0.00    +0.015 A 
ENDROOT
BRANCH   4   7
ATOM      7  N   UNL     1       2.305  -8.556   2.982  0.00  0.00    -0.218 N 
ATOM      8  C   UNL     1       3.150  -9.518   3.436  0.00  0.00    +0.137 A 
ATOM      9  C   UNL     1       2.570 -10.746   3.130  0.00  0.00    +0.111 A 
ATOM     10  C   UNL     1       1.345 -10.475   2.476  0.00  0.00    +0.155 A 
ATOM     11  N   UNL     1       1.198  -9.182   2.399  0.00  0.00    -0.172 NA
BRANCH   8  12
ATOM     12  N   UNL     1       4.355  -9.316   4.079  0.00  0.00    -0.342 N 
ATOM     13  H   UNL     1       4.672  -8.415   4.244  0.00  0.00    +0.144 HD
ATOM     14  H   UNL     1       4.886 -10.077   4.364  0.00  0.00    +0.144 HD
ENDBRANCH   8  12
BRANCH   9  15
ATOM     15  C   UNL     1       3.110 -12.040   3.423  0.00  0.00    +0.104 C 
ATOM     16  N   UNL     1       3.539 -13.066   3.655  0.00  0.00    -0.191 NA
ENDBRANCH   9  15
ENDBRANCH   4   7
BRANCH   1  18
ATOM     17  N   UNL     1       2.681  -2.166   2.418  0.00  0.00    -0.313 N 
ATOM     18  C   UNL     1       3.111  -2.985   3.399  0.00  0.00    +0.244 C 
ATOM     19  O   UNL     1       3.673  -2.523   4.373  0.00  0.00    -0.270 OA
ATOM     20  H   UNL     1       2.233  -2.535   1.641  0.00  0.00    +0.149 HD
BRANCH  17  21
ATOM     21  C   UNL     1       2.890  -0.720   2.526  0.00  0.00    +0.089 C 
BRANCH  21  22
ATOM     22  C   UNL     1       2.166  -0.013   1.379  0.00  0.00    -0.054 C 
ATOM     23  C   UNL     1       2.542   1.470   1.375  0.00  0.00    -0.012 C 
BRANCH  22  30
ATOM     24  C   UNL     1       0.788  -2.033  -0.003  0.00  0.00    -0.013 C 
ATOM     25  C   UNL     1       0.330  -1.554   1.376  0.00  0.00    -0.071 C 
ATOM     26  C   UNL     1      -1.191  -1.688   1.482  0.00  0.00    -0.016 C 
ATOM     27  C   UNL     1      -1.645  -1.208   2.864  0.00  0.00    -0.003 C 
ATOM     28  C   UNL     1      -1.174   0.234   3.073  0.00  0.00    -0.019 C 
ATOM     29  C   UNL     1       0.346   0.296   2.908  0.00  0.00    -0.078 C 
ATOM     30  N   UNL     1       0.714  -0.149   1.559  0.00  0.00    +0.384 N 
ATOM     31  H   UNL     1       0.238   0.420   0.875  0.00  0.00    -0.081 HD
ENDBRANCH  22  30
ENDBRANCH  21  22
ENDBRANCH  17  21
ENDBRANCH   1  18
TORSDOF 7
