REMARK  Name = ZINC00824914
REMARK  7 active torsions:
REMARK  status: ('A' for Active; 'I' for Inactive)
REMARK    1  A    between atoms: C_3  and  C_6
REMARK    2  A    between atoms: N_8  and  C_9
REMARK    3  A    between atoms: C_9  and  C_11
REMARK    4  A    between atoms: C_9  and  N_15
REMARK    5  A    between atoms: N_15  and  C_16
REMARK    6  A    between atoms: C_19  and  S_22
REMARK    7  A    between atoms: S_22  and  N_25
REMARK                            x       y       z     vdW  Elec       q    Type
REMARK                         _______ _______ _______ _____ _____    ______ ____
ROOT
ATOM      1  C   UNL     1      -5.013   1.629   0.024  0.00  0.00    +0.210 C 
ENDROOT
BRANCH   1   4
ATOM      2  C   UNL     1      -2.641   1.072  -0.021  0.00  0.00    +0.252 C 
ATOM      3  O   UNL     1      -2.948  -0.105  -0.066  0.00  0.00    -0.270 OA
ATOM      4  N   UNL     1      -3.601   2.018   0.027  0.00  0.00    -0.289 N 
ATOM      5  H   UNL     1      -3.356   2.955   0.063  0.00  0.00    +0.151 HD
BRANCH   2   8
ATOM      6  C   UNL     1       1.119   1.288  -0.053  0.00  0.00    +0.008 A 
ATOM      7  C   UNL     1      -0.100   0.657  -0.061  0.00  0.00    +0.021 A 
ATOM      8  C   UNL     1      -1.228   1.461  -0.018  0.00  0.00    +0.074 A 
ATOM      9  S   UNL     1      -0.511   3.094   0.043  0.00  0.00    -0.092 S 
ATOM     10  C   UNL     1       1.163   2.645   0.001  0.00  0.00    +0.046 A 
ENDBRANCH   2   8
ENDBRANCH   1   4
BRANCH   1  11
ATOM     11  C   UNL     1      -5.785   2.517  -0.954  0.00  0.00    +0.225 C 
ATOM     12 CL   UNL     1      -5.104   2.320  -2.611  0.00  0.00    -0.080 Cl
ATOM     13 CL   UNL     1      -7.523   2.039  -0.957  0.00  0.00    -0.080 Cl
ATOM     14 CL   UNL     1      -5.637   4.241  -0.444  0.00  0.00    -0.080 Cl
ENDBRANCH   1  11
BRANCH   1  15
ATOM     15  N   UNL     1      -5.566   1.789   1.371  0.00  0.00    -0.323 N 
ATOM     16  H   UNL     1      -5.761   2.676   1.713  0.00  0.00    +0.148 HD
BRANCH  15  17
ATOM     17  C   UNL     1      -5.814   0.665   2.163  0.00  0.00    +0.029 A 
ATOM     18  C   UNL     1      -5.425  -0.594   1.725  0.00  0.00    +0.025 A 
ATOM     19  C   UNL     1      -5.667  -1.702   2.512  0.00  0.00    +0.030 A 
ATOM     20  C   UNL     1      -6.305  -1.561   3.731  0.00  0.00    +0.105 A 
ATOM     21  C   UNL     1      -6.698  -0.309   4.168  0.00  0.00    +0.030 A 
ATOM     22  C   UNL     1      -6.455   0.804   3.388  0.00  0.00    +0.025 A 
BRANCH  20  23
ATOM     23  S   UNL     1      -6.617  -2.978   4.730  0.00  0.00    +0.056 S 
ATOM     24  O   UNL     1      -5.666  -3.962   4.347  0.00  0.00    -0.153 OA
ATOM     25  O   UNL     1      -6.737  -2.514   6.068  0.00  0.00    -0.153 OA
BRANCH  23  26
ATOM     26  N   UNL     1      -8.104  -3.564   4.297  0.00  0.00    -0.204 NA
ATOM     27  H   UNL     1      -8.617  -3.121   3.604  0.00  0.00    +0.144 HD
ATOM     28  H   UNL     1      -8.462  -4.351   4.737  0.00  0.00    +0.144 HD
ENDBRANCH  23  26
ENDBRANCH  20  23
ENDBRANCH  15  17
ENDBRANCH   1  15
TORSDOF 7
