REMARK  Name = ZINC59244656
REMARK  5 active torsions:
REMARK  status: ('A' for Active; 'I' for Inactive)
REMARK    1  A    between atoms: N_17  and  C_18
REMARK    2  A    between atoms: C_18  and  C_19
REMARK    3  A    between atoms: C_19  and  C_20
REMARK    4  A    between atoms: C_23  and  S_26
REMARK    5  A    between atoms: S_26  and  N_29
REMARK                            x       y       z     vdW  Elec       q    Type
REMARK                         _______ _______ _______ _____ _____    ______ ____
ROOT
ATOM      1  C   UNL     1       0.023   1.395  -0.065  0.00  0.00    +0.002 A 
ATOM      2  C   UNL     1       1.215   2.094  -0.052  0.00  0.00    +0.001 A 
ATOM      3  C   UNL     1       2.419   1.412  -0.023  0.00  0.00    +0.017 A 
ATOM      4  C   UNL     1       2.424   0.030  -0.008  0.00  0.00    +0.035 A 
ATOM      5  C   UNL     1       1.222  -0.682  -0.021  0.00  0.00    +0.057 A 
ATOM      6  C   UNL     1       0.022   0.011  -0.050  0.00  0.00    +0.025 A 
ATOM      7  N   UNL     1       1.228  -2.083  -0.003  0.00  0.00    -0.222 N 
ATOM      8  C   UNL     1       2.164  -2.808   0.747  0.00  0.00    +0.057 A 
ATOM      9  C   UNL     1       1.790  -3.977   1.391  0.00  0.00    +0.025 A 
ATOM     10  C   UNL     1       2.719  -4.686   2.131  0.00  0.00    +0.002 A 
ATOM     11  C   UNL     1       4.022  -4.238   2.234  0.00  0.00    +0.001 A 
ATOM     12  C   UNL     1       4.407  -3.072   1.595  0.00  0.00    +0.017 A 
ATOM     13  C   UNL     1       3.482  -2.359   0.854  0.00  0.00    +0.035 A 
ATOM     14  S   UNL     1       3.943  -0.868   0.027  0.00  0.00    -0.086 S 
ATOM     15  C   UNL     1       0.308  -2.752  -0.726  0.00  0.00    +0.311 C 
ATOM     16  O   UNL     1      -0.582  -2.145  -1.288  0.00  0.00    -0.252 OA
ATOM     17  N   UNL     1       0.376  -4.095  -0.826  0.00  0.00    -0.298 N 
ATOM     18  H   UNL     1       1.050  -4.584  -0.329  0.00  0.00    +0.150 HD
ENDROOT
BRANCH  17  19
ATOM     19  C   UNL     1      -0.568  -4.814  -1.684  0.00  0.00    +0.110 C 
BRANCH  19  20
ATOM     20  C   UNL     1      -0.277  -6.314  -1.618  0.00  0.00    +0.054 C 
BRANCH  20  21
ATOM     21  C   UNL     1      -1.248  -7.054  -2.501  0.00  0.00    -0.046 A 
ATOM     22  C   UNL     1      -2.453  -7.495  -1.986  0.00  0.00    +0.005 A 
ATOM     23  C   UNL     1      -3.344  -8.174  -2.796  0.00  0.00    +0.029 A 
ATOM     24  C   UNL     1      -3.031  -8.411  -4.121  0.00  0.00    +0.105 A 
ATOM     25  C   UNL     1      -1.827  -7.969  -4.636  0.00  0.00    +0.029 A 
ATOM     26  C   UNL     1      -0.938  -7.287  -3.828  0.00  0.00    +0.005 A 
BRANCH  24  27
ATOM     27  S   UNL     1      -4.167  -9.277  -5.153  0.00  0.00    +0.056 S 
ATOM     28  O   UNL     1      -3.404  -9.847  -6.207  0.00  0.00    -0.153 OA
ATOM     29  O   UNL     1      -4.982 -10.060  -4.292  0.00  0.00    -0.153 OA
BRANCH  27  30
ATOM     30  N   UNL     1      -5.159  -8.146  -5.845  0.00  0.00    -0.204 NA
ATOM     31  H   UNL     1      -5.039  -7.206  -5.642  0.00  0.00    +0.144 HD
ATOM     32  H   UNL     1      -5.861  -8.425  -6.454  0.00  0.00    +0.144 HD
ENDBRANCH  27  30
ENDBRANCH  24  27
ENDBRANCH  20  21
ENDBRANCH  19  20
ENDBRANCH  17  19
TORSDOF 5
