REMARK  Name = ZINC38688653
REMARK  12 active torsions:
REMARK  status: ('A' for Active; 'I' for Inactive)
REMARK    1  A    between atoms: C_1  and  O_2
REMARK    2  A    between atoms: O_2  and  C_3
REMARK    3  A    between atoms: C_7  and  C_11
REMARK    4  A    between atoms: C_8  and  O_9
REMARK    5  A    between atoms: O_9  and  C_10
REMARK    6  A    between atoms: C_16  and  O_25
REMARK    7  A    between atoms: C_20  and  N_24
REMARK    8  A    between atoms: C_21  and  C_22
REMARK    9  A    between atoms: O_25  and  C_26
REMARK   10  A    between atoms: C_26  and  C_28
REMARK   11  A    between atoms: C_31  and  O_35
REMARK   12  A    between atoms: O_35  and  C_36
REMARK                            x       y       z     vdW  Elec       q    Type
REMARK                         _______ _______ _______ _____ _____    ______ ____
ROOT
ATOM      1  C   UNL     1       1.319  -4.144  -2.351  0.00  0.00    +0.102 C 
ATOM      2  C   UNL     1       2.760  -4.581  -2.366  0.00  0.00    +0.008 A 
ATOM      3  C   UNL     1       3.513  -4.481  -1.210  0.00  0.00    +0.012 A 
ATOM      4  C   UNL     1       4.836  -4.877  -1.204  0.00  0.00    +0.047 A 
ATOM      5  C   UNL     1       5.415  -5.377  -2.363  0.00  0.00    +0.135 A 
ATOM      6  C   UNL     1       4.663  -5.477  -3.522  0.00  0.00    +0.093 A 
ATOM      7  C   UNL     1       3.333  -5.079  -3.526  0.00  0.00    +0.138 A 
ATOM      8  O   UNL     1       2.611  -5.184  -4.668  0.00  0.00    -0.441 OA
ATOM      9  C   UNL     1       1.268  -5.182  -4.615  0.00  0.00    +0.199 C 
ATOM     10  C   UNL     1       0.598  -4.702  -3.546  0.00  0.00    +0.098 C 
ENDROOT
BRANCH   1  15
ATOM     11  C   UNL     1       0.587  -0.558  -1.384  0.00  0.00    +0.162 A 
ATOM     12  C   UNL     1       1.134   0.129  -2.456  0.00  0.00    +0.049 A 
ATOM     13  C   UNL     1       1.737  -0.567  -3.487  0.00  0.00    +0.004 A 
ATOM     14  C   UNL     1       1.796  -1.948  -3.452  0.00  0.00    +0.008 A 
ATOM     15  C   UNL     1       1.253  -2.639  -2.386  0.00  0.00    +0.011 A 
ATOM     16  C   UNL     1       0.652  -1.948  -1.346  0.00  0.00    +0.166 A 
BRANCH  11  18
ATOM     17  C   UNL     1      -0.036   1.549  -0.475  0.00  0.00    +0.277 C 
ATOM     18  O   UNL     1      -0.006   0.125  -0.368  0.00  0.00    -0.491 OA
ENDBRANCH  11  18
BRANCH  16  19
ATOM     19  O   UNL     1       0.122  -2.626  -0.293  0.00  0.00    -0.491 OA
ATOM     20  C   UNL     1      -1.248  -3.018  -0.397  0.00  0.00    +0.277 C 
ENDBRANCH  16  19
ENDBRANCH   1  15
BRANCH   9  21
ATOM     21  N   UNL     1       0.559  -5.681  -5.679  0.00  0.00    -0.328 N 
ATOM     22  H   UNL     1       1.027  -6.028  -6.455  0.00  0.00    +0.145 HD
ATOM     23  H   UNL     1      -0.411  -5.686  -5.656  0.00  0.00    +0.145 HD
ENDBRANCH   9  21
BRANCH  10  24
ATOM     24  C   UNL     1      -0.834  -4.727  -3.552  0.00  0.00    +0.101 C 
ATOM     25  N   UNL     1      -1.970  -4.748  -3.557  0.00  0.00    -0.191 NA
ENDBRANCH  10  24
BRANCH   5  26
ATOM     26  O   UNL     1       6.716  -5.768  -2.359  0.00  0.00    -0.422 OA
BRANCH  26  27
ATOM     27  C   UNL     1       7.602  -5.026  -3.053  0.00  0.00    +0.344 C 
ATOM     28  O   UNL     1       7.248  -3.984  -3.570  0.00  0.00    -0.245 OA
BRANCH  27  29
ATOM     29  C   UNL     1       8.999  -5.477  -3.185  0.00  0.00    +0.061 A 
ATOM     30  C   UNL     1       9.406  -6.678  -2.596  0.00  0.00    +0.018 A 
ATOM     31  C   UNL     1      10.712  -7.097  -2.722  0.00  0.00    +0.048 A 
ATOM     32  C   UNL     1      11.625  -6.328  -3.433  0.00  0.00    +0.138 A 
ATOM     33  C   UNL     1      11.225  -5.133  -4.021  0.00  0.00    +0.083 A 
ATOM     34  C   UNL     1       9.919  -4.709  -3.904  0.00  0.00    +0.038 A 
ATOM     35 CL   UNL     1      12.371  -4.176  -4.908  0.00  0.00    -0.080 Cl
BRANCH  32  36
ATOM     36  O   UNL     1      12.911  -6.744  -3.554  0.00  0.00    -0.494 OA
ATOM     37  C   UNL     1      13.255  -7.981  -2.925  0.00  0.00    +0.277 C 
ENDBRANCH  32  36
ENDBRANCH  27  29
ENDBRANCH  26  27
ENDBRANCH   5  26
TORSDOF 9
