REMARK  Name = ZINC35094598
REMARK  13 active torsions:
REMARK  status: ('A' for Active; 'I' for Inactive)
REMARK    1  A    between atoms: C_1  and  C_2
REMARK    2  A    between atoms: C_2  and  O_3
REMARK    3  A    between atoms: O_3  and  C_4
REMARK    4  A    between atoms: C_9  and  N_10
REMARK    5  A    between atoms: C_20  and  C_21
REMARK    6  A    between atoms: C_21  and  C_23
REMARK    7  A    between atoms: C_21  and  N_24
REMARK    8  A    between atoms: N_24  and  C_25
REMARK    9  A    between atoms: C_25  and  C_26
REMARK   10  A    between atoms: C_26  and  N_27
REMARK   11  A    between atoms: N_27  and  C_28
REMARK   12  A    between atoms: N_27  and  C_29
REMARK   13  A    between atoms: C_30  and  C_32
REMARK                            x       y       z     vdW  Elec       q    Type
REMARK                         _______ _______ _______ _____ _____    ______ ____
ROOT
ATOM      1  N   UNL     1       1.597   0.789  -4.227  0.00  0.00    -0.259 N 
ATOM      2  C   UNL     1       2.725   1.505  -4.444  0.00  0.00    +0.266 A 
ATOM      3  O   UNL     1       2.948   2.534  -3.833  0.00  0.00    -0.267 OA
ATOM      4  C   UNL     1       3.671   0.991  -5.444  0.00  0.00    +0.065 A 
ATOM      5  C   UNL     1       4.861   1.652  -5.742  0.00  0.00    +0.015 A 
ATOM      6  C   UNL     1       5.712   1.125  -6.688  0.00  0.00    +0.001 A 
ATOM      7  C   UNL     1       5.393  -0.056  -7.346  0.00  0.00    +0.002 A 
ATOM      8  C   UNL     1       4.223  -0.724  -7.067  0.00  0.00    +0.028 A 
ATOM      9  C   UNL     1       3.344  -0.211  -6.111  0.00  0.00    +0.078 A 
ATOM     10  N   UNL     1       2.180  -0.837  -5.805  0.00  0.00    -0.231 NA
ATOM     11  C   UNL     1       1.365  -0.362  -4.913  0.00  0.00    +0.138 A 
ENDROOT
BRANCH   1  17
ATOM     12  C   UNL     1      -0.290   2.188  -3.639  0.00  0.00    +0.144 A 
ATOM     13  C   UNL     1      -1.215   2.621  -2.702  0.00  0.00    +0.048 A 
ATOM     14  C   UNL     1      -1.189   2.113  -1.417  0.00  0.00    +0.004 A 
ATOM     15  C   UNL     1      -0.240   1.171  -1.062  0.00  0.00    +0.002 A 
ATOM     16  C   UNL     1       0.686   0.734  -1.989  0.00  0.00    +0.030 A 
ATOM     17  C   UNL     1       0.662   1.235  -3.283  0.00  0.00    +0.093 A 
BRANCH  12  18
ATOM     18  O   UNL     1      -0.315   2.687  -4.903  0.00  0.00    -0.490 OA
BRANCH  18  20
ATOM     19  C   UNL     1      -1.191   4.101  -6.656  0.00  0.00    +0.048 C 
ATOM     20  C   UNL     1      -1.319   3.660  -5.196  0.00  0.00    +0.226 C 
ENDBRANCH  18  20
ENDBRANCH  12  18
ENDBRANCH   1  17
BRANCH  11  21
ATOM     21  C   UNL     1       0.096  -1.122  -4.627  0.00  0.00    +0.140 C 
ATOM     22  C   UNL     1       0.440  -2.559  -4.231  0.00  0.00    +0.036 C 
BRANCH  21  23
ATOM     23  N   UNL     1      -0.747  -1.134  -5.825  0.00  0.00    -0.290 N 
ATOM     24  C   UNL     1      -2.033  -0.740  -5.748  0.00  0.00    +0.247 C 
ATOM     25  O   UNL     1      -2.741  -0.778  -6.736  0.00  0.00    -0.270 OA
BRANCH  24  26
ATOM     26  C   UNL     1      -2.583  -0.261  -4.465  0.00  0.00    +0.041 A 
ATOM     27  C   UNL     1      -2.217  -0.885  -3.270  0.00  0.00    +0.017 A 
ATOM     28  C   UNL     1      -2.730  -0.436  -2.072  0.00  0.00    +0.050 A 
ATOM     29  C   UNL     1      -3.612   0.636  -2.048  0.00  0.00    +0.166 A 
ATOM     30  C   UNL     1      -3.983   1.263  -3.239  0.00  0.00    +0.167 A 
ATOM     31  C   UNL     1      -3.467   0.821  -4.441  0.00  0.00    +0.062 A 
ATOM     32  O   UNL     1      -4.849   2.277  -2.945  0.00  0.00    -0.453 OA
ATOM     33  C   UNL     1      -5.322   2.003  -1.613  0.00  0.00    +0.466 C 
ATOM     34  O   UNL     1      -4.247   1.258  -1.014  0.00  0.00    -0.453 OA
ENDBRANCH  24  26
BRANCH  23  35
ATOM     35  C   UNL     1      -0.191  -1.574  -7.107  0.00  0.00    +0.090 C 
BRANCH  35  36
ATOM     36  C   UNL     1      -0.518  -3.052  -7.324  0.00  0.00    -0.060 C 
BRANCH  36  37
ATOM     37  N   UNL     1       0.039  -3.494  -8.610  0.00  0.00    +0.377 N 
ATOM     38  C   UNL     1       1.506  -3.424  -8.558  0.00  0.00    -0.097 C 
ATOM     39  C   UNL     1      -0.376  -4.878  -8.874  0.00  0.00    -0.097 C 
ATOM     40  H   UNL     1      -0.300  -2.894  -9.347  0.00  0.00    -0.083 HD
ENDBRANCH  36  37
ENDBRANCH  35  36
ENDBRANCH  23  35
ENDBRANCH  21  23
ENDBRANCH  11  21
TORSDOF 9
