REMARK  Name = ZINC44169329
REMARK  7 active torsions:
REMARK  status: ('A' for Active; 'I' for Inactive)
REMARK    1  A    between atoms: C_4  and  C_7
REMARK    2  A    between atoms: C_9  and  C_12
REMARK    3  A    between atoms: C_17  and  C_20
REMARK    4  A    between atoms: N_22  and  C_23
REMARK    5  A    between atoms: C_23  and  C_24
REMARK    6  A    between atoms: C_24  and  C_25
REMARK    7  A    between atoms: C_24  and  C_31
REMARK                            x       y       z     vdW  Elec       q    Type
REMARK                         _______ _______ _______ _____ _____    ______ ____
ROOT
ATOM      1  C   UNL     1       7.763  -3.605  -1.377  0.00  0.00    +0.010 C 
ATOM      2  C   UNL     1       8.070  -4.435  -2.630  0.00  0.00    +0.061 C 
ATOM      3  S   UNL     1       8.079  -6.193  -2.160  0.00  0.00    -0.163 S 
ATOM      4  C   UNL     1       9.168  -6.210  -0.701  0.00  0.00    +0.062 C 
ATOM      5  C   UNL     1       8.697  -5.115   0.263  0.00  0.00    +0.027 C 
ATOM      6  N   UNL     1       8.817  -3.804  -0.380  0.00  0.00    +0.394 N 
ATOM      7  H   UNL     1       9.716  -3.737  -0.832  0.00  0.00    -0.084 HD
ATOM      8  H   UNL     1       8.746  -3.084   0.324  0.00  0.00    -0.084 HD
ENDROOT
BRANCH   1  11
ATOM      9  C   UNL     1       6.941  -0.111  -2.282  0.00  0.00    +0.114 A 
ATOM     10  C   UNL     1       6.570  -1.438  -1.957  0.00  0.00    +0.074 A 
ATOM     11  C   UNL     1       7.694  -2.146  -1.748  0.00  0.00    +0.125 A 
ATOM     12  O   UNL     1       8.744  -1.329  -1.927  0.00  0.00    -0.361 OA
ATOM     13  N   UNL     1       8.250  -0.047  -2.269  0.00  0.00    -0.078 NA
BRANCH   9  17
ATOM     14  C   UNL     1       4.283   3.090  -3.162  0.00  0.00    +0.000 A 
ATOM     15  C   UNL     1       5.649   3.302  -3.185  0.00  0.00    +0.001 A 
ATOM     16  C   UNL     1       6.516   2.267  -2.900  0.00  0.00    +0.010 A 
ATOM     17  C   UNL     1       6.013   1.006  -2.589  0.00  0.00    +0.004 A 
ATOM     18  C   UNL     1       4.636   0.797  -2.567  0.00  0.00    +0.010 A 
ATOM     19  C   UNL     1       3.778   1.839  -2.854  0.00  0.00    +0.001 A 
ENDBRANCH   9  17
ENDBRANCH   1  11
BRANCH   5  20
ATOM     20  C   UNL     1       9.548  -5.142   1.506  0.00  0.00    +0.200 C 
ATOM     21  O   UNL     1      10.194  -4.164   1.819  0.00  0.00    -0.278 OA
ATOM     22  N   UNL     1       9.592  -6.252   2.269  0.00  0.00    -0.316 N 
ATOM     23  H   UNL     1       9.075  -7.033   2.018  0.00  0.00    +0.149 HD
BRANCH  22  24
ATOM     24  C   UNL     1      10.419  -6.277   3.477  0.00  0.00    +0.117 C 
BRANCH  24  25
ATOM     25  C   UNL     1      10.291  -7.643   4.154  0.00  0.00    +0.066 C 
BRANCH  25  26
ATOM     26  C   UNL     1      11.234  -7.714   5.327  0.00  0.00    -0.038 A 
ATOM     27  C   UNL     1      12.119  -8.770   5.440  0.00  0.00    +0.004 A 
ATOM     28  C   UNL     1      12.985  -8.834   6.516  0.00  0.00    +0.000 A 
ATOM     29  C   UNL     1      12.966  -7.842   7.479  0.00  0.00    +0.000 A 
ATOM     30  C   UNL     1      12.082  -6.786   7.365  0.00  0.00    +0.000 A 
ATOM     31  C   UNL     1      11.219  -6.719   6.287  0.00  0.00    +0.004 A 
ENDBRANCH  25  26
BRANCH  25  32
ATOM     32  C   UNL     1       8.876  -7.834   4.636  0.00  0.00    -0.038 A 
ATOM     33  C   UNL     1       8.276  -6.866   5.420  0.00  0.00    +0.004 A 
ATOM     34  C   UNL     1       6.978  -7.040   5.863  0.00  0.00    +0.000 A 
ATOM     35  C   UNL     1       6.279  -8.182   5.520  0.00  0.00    +0.000 A 
ATOM     36  C   UNL     1       6.878  -9.150   4.736  0.00  0.00    +0.000 A 
ATOM     37  C   UNL     1       8.175  -8.974   4.290  0.00  0.00    +0.004 A 
ENDBRANCH  25  32
ENDBRANCH  24  25
ENDBRANCH  22  24
ENDBRANCH   5  20
TORSDOF 7
