REMARK  Name = ZINC03018522
REMARK  11 active torsions:
REMARK  status: ('A' for Active; 'I' for Inactive)
REMARK    1  A    between atoms: C_1  and  C_2
REMARK    2  A    between atoms: C_5  and  N_9
REMARK    3  A    between atoms: C_6  and  C_8
REMARK    4  A    between atoms: C_10  and  C_12
REMARK    5  A    between atoms: C_13  and  C_34
REMARK    6  A    between atoms: C_18  and  S_23
REMARK    7  A    between atoms: N_19  and  N_22
REMARK    8  A    between atoms: S_23  and  C_24
REMARK    9  A    between atoms: C_24  and  C_25
REMARK   10  A    between atoms: N_27  and  C_28
REMARK   11  A    between atoms: C_28  and  C_29
REMARK                            x       y       z     vdW  Elec       q    Type
REMARK                         _______ _______ _______ _____ _____    ______ ____
ROOT
ATOM      1  C   UNL     1       3.706  -0.941   0.176  0.00  0.00    +0.080 A 
ATOM      2  C   UNL     1       3.933  -2.282   0.284  0.00  0.00    -0.017 A 
ATOM      3  C   UNL     1       5.243  -2.762   0.359  0.00  0.00    +0.077 A 
ATOM      4  C   UNL     1       6.261  -1.778   0.327  0.00  0.00    +0.117 A 
ATOM      5  S   UNL     1       5.355  -0.258   0.188  0.00  0.00    -0.064 S 
ATOM      6  N   UNL     1       7.544  -2.095   0.395  0.00  0.00    -0.215 NA
ATOM      7  C   UNL     1       7.939  -3.348   0.497  0.00  0.00    +0.190 A 
ATOM      8  N   UNL     1       7.047  -4.379   0.537  0.00  0.00    -0.209 N 
ATOM      9  C   UNL     1       5.720  -4.157   0.474  0.00  0.00    +0.280 A 
ATOM     10  O   UNL     1       4.931  -5.085   0.511  0.00  0.00    -0.265 OA
ATOM     11  C   UNL     1       2.774  -3.245   0.318  0.00  0.00    +0.046 C 
ENDROOT
BRANCH   1  13
ATOM     12  N   UNL     1       2.402   1.107  -0.014  0.00  0.00    -0.281 N 
ATOM     13  C   UNL     1       2.426  -0.237   0.081  0.00  0.00    +0.255 C 
ATOM     14  O   UNL     1       1.383  -0.865   0.088  0.00  0.00    -0.269 OA
ATOM     15  H   UNL     1       3.233   1.603  -0.085  0.00  0.00    +0.155 HD
BRANCH  12  20
ATOM     16  C   UNL     1      -2.556   3.863   0.003  0.00  0.00    +0.044 C 
ATOM     17  C   UNL     1      -1.238   3.131  -0.002  0.00  0.00    -0.050 A 
ATOM     18  C   UNL     1      -1.140   1.891  -0.607  0.00  0.00    +0.005 A 
ATOM     19  C   UNL     1       0.064   1.216  -0.608  0.00  0.00    +0.024 A 
ATOM     20  C   UNL     1       1.180   1.787  -0.010  0.00  0.00    +0.037 A 
ATOM     21  C   UNL     1       1.079   3.034   0.592  0.00  0.00    -0.029 A 
ATOM     22  C   UNL     1      -0.130   3.702   0.595  0.00  0.00    +0.008 A 
ATOM     23  C   UNL     1       2.287   3.657   1.243  0.00  0.00    +0.045 C 
ENDBRANCH  12  20
ENDBRANCH   1  13
BRANCH   8  24
ATOM     24  N   UNL     1       7.509  -5.660   0.643  0.00  0.00    -0.293 N 
ATOM     25  H   UNL     1       8.517  -5.680   0.681  0.00  0.00    +0.163 HD
ATOM     26  H   UNL     1       7.108  -6.124   1.445  0.00  0.00    +0.163 HD
ENDBRANCH   8  24
BRANCH   7  27
ATOM     27  S   UNL     1       9.664  -3.700   0.583  0.00  0.00    -0.077 S 
BRANCH  27  28
ATOM     28  C   UNL     1      10.332  -2.021   0.489  0.00  0.00    +0.173 C 
BRANCH  28  29
ATOM     29  C   UNL     1      11.837  -2.076   0.547  0.00  0.00    +0.224 C 
ATOM     30  O   UNL     1      12.402  -3.145   0.642  0.00  0.00    -0.275 OA
ATOM     31  N   UNL     1      12.556  -0.936   0.493  0.00  0.00    -0.308 N 
ATOM     32  H   UNL     1      12.104  -0.082   0.417  0.00  0.00    +0.149 HD
BRANCH  31  33
ATOM     33  C   UNL     1      14.019  -0.990   0.549  0.00  0.00    +0.178 C 
BRANCH  33  34
ATOM     34  C   UNL     1      14.575   0.408   0.471  0.00  0.00    +0.122 A 
ATOM     35  C   UNL     1      14.827   1.214   1.518  0.00  0.00    +0.046 A 
ATOM     36  C   UNL     1      15.338   2.423   0.991  0.00  0.00    +0.041 A 
ATOM     37  C   UNL     1      15.367   2.283  -0.346  0.00  0.00    +0.195 A 
ATOM     38  O   UNL     1      14.910   1.059  -0.655  0.00  0.00    -0.466 OA
ENDBRANCH  33  34
ENDBRANCH  31  33
ENDBRANCH  28  29
ENDBRANCH  27  28
ENDBRANCH   7  27
TORSDOF 8
