REMARK  Name = ZINC13134482
REMARK  7 active torsions:
REMARK  status: ('A' for Active; 'I' for Inactive)
REMARK    1  A    between atoms: C_7  and  C_13
REMARK    2  A    between atoms: N_15  and  N_16
REMARK    3  A    between atoms: C_17  and  C_19
REMARK    4  A    between atoms: C_23  and  S_25
REMARK    5  A    between atoms: S_25  and  N_28
REMARK    6  A    between atoms: N_28  and  C_29
REMARK    7  A    between atoms: C_29  and  C_30
REMARK                            x       y       z     vdW  Elec       q    Type
REMARK                         _______ _______ _______ _____ _____    ______ ____
ROOT
ATOM      1  N   UNL     1      -0.745  -3.988  -5.899  0.00  0.00    -0.230 N 
ATOM      2  C   UNL     1      -0.931  -2.687  -5.598  0.00  0.00    +0.260 C 
ATOM      3  O   UNL     1      -1.682  -2.008  -6.271  0.00  0.00    -0.269 OA
ATOM      4  H   UNL     1      -0.146  -4.529  -5.362  0.00  0.00    +0.173 HD
ENDROOT
BRANCH   2   5
ATOM      5  C   UNL     1      -0.222  -2.086  -4.449  0.00  0.00    +0.040 A 
ATOM      6  C   UNL     1       0.642  -2.863  -3.674  0.00  0.00    +0.014 A 
ATOM      7  C   UNL     1       1.301  -2.297  -2.603  0.00  0.00    +0.023 A 
ATOM      8  C   UNL     1       1.107  -0.960  -2.296  0.00  0.00    +0.067 A 
ATOM      9  C   UNL     1       0.253  -0.184  -3.061  0.00  0.00    +0.124 A 
ATOM     10  C   UNL     1      -0.416  -0.741  -4.131  0.00  0.00    +0.043 A 
ATOM     11 CL   UNL     1       1.941  -0.254  -0.947  0.00  0.00    -0.082 Cl
BRANCH   9  12
ATOM     12  S   UNL     1       0.013   1.515  -2.662  0.00  0.00    +0.060 S 
ATOM     13  O   UNL     1      -0.926   2.024  -3.599  0.00  0.00    -0.153 OA
ATOM     14  O   UNL     1       1.306   2.080  -2.496  0.00  0.00    -0.153 OA
BRANCH  12  15
ATOM     15  N   UNL     1      -0.721   1.571  -1.179  0.00  0.00    -0.183 NA
ATOM     16  H   UNL     1      -1.621   1.925  -1.096  0.00  0.00    +0.148 HD
BRANCH  15  17
ATOM     17  C   UNL     1      -0.013   1.086   0.008  0.00  0.00    +0.180 C 
BRANCH  17  18
ATOM     18  C   UNL     1      -0.718   1.572   1.248  0.00  0.00    +0.120 A 
ATOM     19  C   UNL     1      -1.704   0.926   1.896  0.00  0.00    +0.046 A 
ATOM     20  C   UNL     1      -2.070   1.736   2.996  0.00  0.00    +0.041 A 
ATOM     21  C   UNL     1      -1.286   2.828   2.954  0.00  0.00    +0.195 A 
ATOM     22  O   UNL     1      -0.465   2.720   1.896  0.00  0.00    -0.466 OA
ENDBRANCH  17  18
ENDBRANCH  15  17
ENDBRANCH  12  15
ENDBRANCH   9  12
ENDBRANCH   2   5
BRANCH   1  25
ATOM     23  C   UNL     1      -1.232  -5.858  -7.289  0.00  0.00    +0.281 C 
ATOM     24  O   UNL     1      -0.481  -6.537  -6.615  0.00  0.00    -0.267 OA
ATOM     25  N   UNL     1      -1.418  -4.557  -6.988  0.00  0.00    -0.229 N 
ATOM     26  H   UNL     1      -2.017  -4.016  -7.525  0.00  0.00    +0.173 HD
BRANCH  23  33
ATOM     27  C   UNL     1      -0.769 -10.033  -8.428  0.00  0.00    +0.001 A 
ATOM     28  C   UNL     1      -1.466 -10.533  -9.520  0.00  0.00    +0.001 A 
ATOM     29  C   UNL     1      -2.307  -9.721 -10.251  0.00  0.00    +0.014 A 
ATOM     30  C   UNL     1      -2.454  -8.387  -9.886  0.00  0.00    +0.050 A 
ATOM     31  C   UNL     1      -1.740  -7.876  -8.777  0.00  0.00    +0.020 A 
ATOM     32  C   UNL     1      -0.901  -8.714  -8.050  0.00  0.00    +0.011 A 
ATOM     33  C   UNL     1      -1.941  -6.458  -8.437  0.00  0.00    +0.155 A 
ATOM     34  N   UNL     1      -2.752  -5.734  -9.168  0.00  0.00    -0.166 NA
ATOM     35  N   UNL     1      -3.402  -6.177 -10.177  0.00  0.00    -0.242 N 
ATOM     36  H   UNL     1      -3.980  -5.563 -10.656  0.00  0.00    +0.192 HD
ATOM     37  C   UNL     1      -3.328  -7.452 -10.609  0.00  0.00    +0.272 A 
ATOM     38  O   UNL     1      -3.969  -7.821 -11.576  0.00  0.00    -0.266 OA
ENDBRANCH  23  33
ENDBRANCH   1  25
TORSDOF 7
