REMARK  Name = ZINC21155965
REMARK  13 active torsions:
REMARK  status: ('A' for Active; 'I' for Inactive)
REMARK    1  A    between atoms: C_1  and  C_2
REMARK    2  A    between atoms: C_2  and  O_3
REMARK    3  A    between atoms: O_3  and  C_4
REMARK    4  A    between atoms: C_6  and  C_16
REMARK    5  A    between atoms: C_8  and  O_13
REMARK    6  A    between atoms: C_9  and  O_10
REMARK    7  A    between atoms: O_10  and  C_11
REMARK    8  A    between atoms: C_11  and  C_12
REMARK    9  A    between atoms: O_13  and  C_14
REMARK   10  A    between atoms: C_14  and  C_15
REMARK   11  A    between atoms: N_18  and  C_19
REMARK   12  A    between atoms: C_28  and  O_29
REMARK   13  A    between atoms: N_30  and  C_31
REMARK                            x       y       z     vdW  Elec       q    Type
REMARK                         _______ _______ _______ _____ _____    ______ ____
ROOT
ATOM      1  C   UNL     1      -0.208   9.323   2.709  0.00  0.00    +0.139 A 
ATOM      2  C   UNL     1       0.861  10.192   2.846  0.00  0.00    +0.075 A 
ATOM      3  C   UNL     1       0.598  11.633   2.706  0.00  0.00    +0.042 A 
ATOM      4  C   UNL     1       1.629  12.567   2.828  0.00  0.00    +0.013 A 
ATOM      5  C   UNL     1       1.351  13.909   2.697  0.00  0.00    +0.001 A 
ATOM      6  C   UNL     1       0.054  14.334   2.445  0.00  0.00    +0.004 A 
ATOM      7  C   UNL     1      -0.973  13.422   2.323  0.00  0.00    +0.047 A 
ATOM      8  C   UNL     1      -0.714  12.063   2.451  0.00  0.00    +0.141 A 
ATOM      9  O   UNL     1      -1.710  11.159   2.334  0.00  0.00    -0.424 OA
ATOM     10  C   UNL     1      -1.491   9.841   2.454  0.00  0.00    +0.309 A 
ATOM     11  N   UNL     1       2.134   9.721   3.103  0.00  0.00    -0.380 N 
ATOM     12  H   UNL     1       2.422   9.442   4.128  0.00  0.00    +0.160 HD
ENDROOT
BRANCH  11  13
ATOM     13  C   UNL     1       2.935   9.672   1.873  0.00  0.00    +0.079 C 
ATOM     14  C   UNL     1       2.617   8.386   1.107  0.00  0.00    +0.024 C 
ATOM     15  C   UNL     1       3.451   8.335  -0.174  0.00  0.00    +0.002 C 
ATOM     16  C   UNL     1       4.938   8.360   0.184  0.00  0.00    +0.000 C 
ATOM     17  C   UNL     1       5.257   9.646   0.950  0.00  0.00    +0.002 C 
ATOM     18  C   UNL     1       4.423   9.697   2.231  0.00  0.00    +0.024 C 
ENDBRANCH  11  13
BRANCH   1  21
ATOM     19  C   UNL     1      -0.519   7.103   1.899  0.00  0.00    +0.249 C 
ATOM     20  O   UNL     1      -1.230   7.538   1.013  0.00  0.00    -0.270 OA
ATOM     21  N   UNL     1      -0.014   7.937   2.830  0.00  0.00    -0.274 N 
ATOM     22  H   UNL     1       0.549   7.532   3.683  0.00  0.00    +0.155 HD
BRANCH  19  25
ATOM     23  C   UNL     1       0.894   3.808   3.023  0.00  0.00    +0.166 A 
ATOM     24  C   UNL     1       0.609   5.159   2.971  0.00  0.00    +0.062 A 
ATOM     25  C   UNL     1      -0.208   5.661   1.955  0.00  0.00    +0.044 A 
ATOM     26  C   UNL     1      -0.731   4.795   0.991  0.00  0.00    +0.062 A 
ATOM     27  C   UNL     1      -0.438   3.445   1.044  0.00  0.00    +0.166 A 
ATOM     28  C   UNL     1       0.377   2.948   2.058  0.00  0.00    +0.204 A 
BRANCH  23  29
ATOM     29  O   UNL     1       1.685   3.318   4.016  0.00  0.00    -0.488 OA
BRANCH  29  31
ATOM     30  C   UNL     1       3.045   3.527   6.003  0.00  0.00    +0.048 C 
ATOM     31  C   UNL     1       2.182   4.257   4.972  0.00  0.00    +0.226 C 
ENDBRANCH  29  31
ENDBRANCH  23  29
BRANCH  28  32
ATOM     32  O   UNL     1       0.663   1.620   2.109  0.00  0.00    -0.485 OA
BRANCH  32  33
ATOM     33  C   UNL     1       1.825   1.180   1.404  0.00  0.00    +0.226 C 
ATOM     34  C   UNL     1       1.983  -0.333   1.576  0.00  0.00    +0.048 C 
ENDBRANCH  32  33
ENDBRANCH  28  32
BRANCH  27  35
ATOM     35  O   UNL     1      -0.946   2.601   0.106  0.00  0.00    -0.488 OA
BRANCH  35  36
ATOM     36  C   UNL     1      -1.774   3.179  -0.905  0.00  0.00    +0.226 C 
ATOM     37  C   UNL     1      -2.248   2.084  -1.863  0.00  0.00    +0.048 C 
ENDBRANCH  35  36
ENDBRANCH  27  35
ENDBRANCH  19  25
ENDBRANCH   1  21
BRANCH  10  38
ATOM     38  O   UNL     1      -2.429   9.071   2.339  0.00  0.00    -0.479 OA
ATOM     39  H   UNL     1      -3.438   9.459   2.139  0.00  0.00    +0.295 HD
ENDBRANCH  10  38
TORSDOF 10
