REMARK  Name = ZINC35502064
REMARK  4 active torsions:
REMARK  status: ('A' for Active; 'I' for Inactive)
REMARK    1  A    between atoms: C_1  and  N_2
REMARK    2  A    between atoms: N_2  and  C_3
REMARK    3  A    between atoms: C_3  and  C_5
REMARK    4  A    between atoms: C_3  and  C_12
REMARK                            x       y       z     vdW  Elec       q    Type
REMARK                         _______ _______ _______ _____ _____    ______ ____
ROOT
ATOM      1  C   UNL     1       0.690  -0.478  -1.207  0.00  0.00    -0.002 C 
ENDROOT
BRANCH   1   2
ATOM      2  C   UNL     1       0.603  -1.981  -1.277  0.00  0.00    -0.019 A 
ATOM      3  C   UNL     1       0.399  -2.772  -2.352  0.00  0.00    +0.013 A 
ATOM      4  C   UNL     1       0.352  -4.164  -2.205  0.00  0.00    -0.037 A 
ATOM      5  C   UNL     1       0.518  -4.641  -0.947  0.00  0.00    -0.007 A 
ATOM      6  S   UNL     1       0.751  -3.180   0.037  0.00  0.00    -0.099 S 
ATOM      7  C   UNL     1       0.511  -6.060  -0.478  0.00  0.00    +0.043 C 
ATOM      8  C   UNL     1       0.996  -6.970  -1.615  0.00  0.00    +0.005 C 
ATOM      9  C   UNL     1      -0.212  -7.382  -2.451  0.00  0.00    +0.001 C 
ATOM     10  C   UNL     1      -0.896  -6.157  -3.054  0.00  0.00    +0.005 C 
ATOM     11  C   UNL     1       0.130  -5.084  -3.401  0.00  0.00    +0.036 C 
ENDBRANCH   1   2
BRANCH   1  12
ATOM     12  C   UNL     1       2.137  -0.060  -1.158  0.00  0.00    -0.030 A 
ATOM     13  C   UNL     1       2.759   0.175   0.055  0.00  0.00    +0.031 A 
ATOM     14  C   UNL     1       4.063   0.550   0.063  0.00  0.00    +0.080 A 
ATOM     15  S   UNL     1       4.449   0.580  -1.680  0.00  0.00    -0.065 S 
ATOM     16  C   UNL     1       2.850   0.086  -2.302  0.00  0.00    +0.081 A 
ATOM     17 CL   UNL     1       2.340  -0.145  -3.945  0.00  0.00    -0.076 Cl
ATOM     18 CL   UNL     1       5.089   0.908   1.416  0.00  0.00    -0.076 Cl
ENDBRANCH   1  12
BRANCH   1  20
ATOM     19  C   UNL     1      -0.018   1.465   0.010  0.00  0.00    -0.099 C 
ATOM     20  N   UNL     1       0.002  -0.004   0.002  0.00  0.00    +0.385 N 
ATOM     21  H   UNL     1       0.490  -0.338   0.820  0.00  0.00    -0.085 HD
ATOM     22  H   UNL     1      -0.945  -0.353   0.009  0.00  0.00    -0.085 HD
ENDBRANCH   1  20
TORSDOF 3
