REMARK  Name = ZINC12250148
REMARK  13 active torsions:
REMARK  status: ('A' for Active; 'I' for Inactive)
REMARK    1  A    between atoms: C_1  and  C_2
REMARK    2  A    between atoms: C_2  and  C_3
REMARK    3  A    between atoms: C_7  and  C_39
REMARK    4  A    between atoms: C_8  and  N_9
REMARK    5  A    between atoms: C_10  and  C_12
REMARK    6  A    between atoms: C_13  and  C_38
REMARK    7  A    between atoms: C_15  and  S_26
REMARK    8  A    between atoms: C_16  and  C_24
REMARK    9  A    between atoms: C_17  and  C_19
REMARK   10  A    between atoms: S_26  and  C_27
REMARK   11  A    between atoms: C_27  and  C_28
REMARK   12  A    between atoms: N_30  and  C_31
REMARK   13  A    between atoms: C_36  and  C_37
REMARK                            x       y       z     vdW  Elec       q    Type
REMARK                         _______ _______ _______ _____ _____    ______ ____
ROOT
ATOM      1  C   UNL     1      -1.570   1.493  -0.006  0.00  0.00    +0.047 C 
ATOM      2  C   UNL     1      -2.507   1.013  -0.839  0.00  0.00    +0.015 C 
ATOM      3  N   UNL     1      -3.737   1.607  -0.934  0.00  0.00    -0.312 N 
ATOM      4  C   UNL     1      -3.919   2.894  -0.480  0.00  0.00    +0.080 C 
ATOM      5  C   UNL     1      -3.024   3.457   0.376  0.00  0.00    +0.072 C 
ATOM      6  C   UNL     1      -1.821   2.697   0.856  0.00  0.00    +0.134 C 
ATOM      7  C   UNL     1      -2.203  -0.200  -1.679  0.00  0.00    +0.061 C 
ATOM      8  H   UNL     1      -4.581   1.056  -1.374  0.00  0.00    +0.152 HD
ENDROOT
BRANCH   6   9
ATOM      9  C   UNL     1      -2.052   2.250   2.277  0.00  0.00    +0.118 A 
ATOM     10  C   UNL     1      -1.310   2.601   3.342  0.00  0.00    +0.045 A 
ATOM     11  C   UNL     1      -1.880   1.960   4.467  0.00  0.00    +0.041 A 
ATOM     12  C   UNL     1      -2.931   1.250   4.019  0.00  0.00    +0.195 A 
ATOM     13  O   UNL     1      -3.030   1.429   2.692  0.00  0.00    -0.467 OA
ENDBRANCH   6   9
BRANCH   1  15
ATOM     14  N   UNL     1      -0.242  -0.480   0.264  0.00  0.00    -0.281 N 
ATOM     15  C   UNL     1      -0.310   0.850   0.057  0.00  0.00    +0.247 C 
ATOM     16  O   UNL     1       0.712   1.499  -0.070  0.00  0.00    -0.270 OA
ATOM     17  H   UNL     1      -1.162  -1.057   0.444  0.00  0.00    +0.155 HD
BRANCH  14  23
ATOM     18  C   UNL     1       1.297  -2.077   1.219  0.00  0.00    -0.026 A 
ATOM     19  C   UNL     1       2.520  -2.719   1.200  0.00  0.00    +0.005 A 
ATOM     20  C   UNL     1       3.450  -2.408   0.225  0.00  0.00    +0.001 A 
ATOM     21  C   UNL     1       3.157  -1.458  -0.738  0.00  0.00    +0.005 A 
ATOM     22  C   UNL     1       1.934  -0.818  -0.727  0.00  0.00    -0.029 A 
ATOM     23  C   UNL     1       0.997  -1.127   0.251  0.00  0.00    +0.040 A 
ATOM     24  C   UNL     1       1.615   0.217  -1.776  0.00  0.00    +0.045 C 
BRANCH  18  26
ATOM     25  C   UNL     1      -0.682  -3.471   1.756  0.00  0.00    +0.009 C 
ATOM     26  C   UNL     1       0.286  -2.412   2.286  0.00  0.00    +0.033 C 
ENDBRANCH  18  26
ENDBRANCH  14  23
ENDBRANCH   1  15
BRANCH   5  27
ATOM     27  C   UNL     1      -3.233   4.800   0.827  0.00  0.00    +0.098 C 
ATOM     28  N   UNL     1      -3.398   5.865   1.185  0.00  0.00    -0.191 NA
ENDBRANCH   5  27
BRANCH   4  29
ATOM     29  S   UNL     1      -5.323   3.818  -1.010  0.00  0.00    -0.100 S 
BRANCH  29  30
ATOM     30  C   UNL     1      -6.112   2.598  -2.089  0.00  0.00    +0.171 C 
BRANCH  30  31
ATOM     31  C   UNL     1      -7.371   3.185  -2.673  0.00  0.00    +0.227 C 
ATOM     32  O   UNL     1      -7.702   4.317  -2.388  0.00  0.00    -0.275 OA
ATOM     33  N   UNL     1      -8.130   2.453  -3.513  0.00  0.00    -0.285 N 
ATOM     34  H   UNL     1      -7.869   1.404  -3.717  0.00  0.00    +0.155 HD
BRANCH  33  35
ATOM     35  C   UNL     1      -9.249   3.027  -4.126  0.00  0.00    +0.036 A 
ATOM     36  C   UNL     1      -9.928   4.066  -3.502  0.00  0.00    +0.023 A 
ATOM     37  C   UNL     1     -11.032   4.630  -4.109  0.00  0.00    +0.002 A 
ATOM     38  C   UNL     1     -11.463   4.162  -5.337  0.00  0.00    +0.000 A 
ATOM     39  C   UNL     1     -10.789   3.128  -5.961  0.00  0.00    +0.005 A 
ATOM     40  C   UNL     1      -9.681   2.562  -5.361  0.00  0.00    -0.029 A 
ATOM     41  C   UNL     1      -8.944   1.440  -6.044  0.00  0.00    +0.045 C 
ENDBRANCH  33  35
ENDBRANCH  30  31
ENDBRANCH  29  30
ENDBRANCH   4  29
TORSDOF 9
