REMARK  Name = ZINC01474677
REMARK  8 active torsions:
REMARK  status: ('A' for Active; 'I' for Inactive)
REMARK    1  A    between atoms: C_1  and  C_2
REMARK    2  A    between atoms: C_5  and  C_8
REMARK    3  A    between atoms: C_11  and  S_20
REMARK    4  A    between atoms: N_12  and  C_13
REMARK    5  A    between atoms: C_16  and  C_19
REMARK    6  A    between atoms: S_20  and  C_21
REMARK    7  A    between atoms: C_21  and  C_22
REMARK    8  A    between atoms: N_24  and  N_25
REMARK                            x       y       z     vdW  Elec       q    Type
REMARK                         _______ _______ _______ _____ _____    ______ ____
ROOT
ATOM      1  C   UNL     1       0.060  -4.251  -0.021  0.00  0.00    +0.169 A 
ATOM      2  N   UNL     1      -0.203  -5.029  -1.045  0.00  0.00    -0.128 NA
ATOM      3  N   UNL     1      -0.092  -6.262  -0.701  0.00  0.00    -0.122 NA
ATOM      4  C   UNL     1       0.249  -6.349   0.566  0.00  0.00    +0.197 A 
ATOM      5  N   UNL     1       0.363  -5.072   1.043  0.00  0.00    -0.270 N 
ENDROOT
BRANCH   1  10
ATOM      6  C   UNL     1      -0.018   1.503   0.010  0.00  0.00    +0.044 C 
ATOM      7  C   UNL     1       0.002  -0.004   0.002  0.00  0.00    -0.050 A 
ATOM      8  C   UNL     1       0.006  -0.686  -1.202  0.00  0.00    +0.004 A 
ATOM      9  C   UNL     1       0.024  -2.066  -1.216  0.00  0.00    +0.012 A 
ATOM     10  C   UNL     1       0.040  -2.773  -0.013  0.00  0.00    +0.020 A 
ATOM     11  C   UNL     1       0.037  -2.079   1.198  0.00  0.00    +0.012 A 
ATOM     12  C   UNL     1       0.023  -0.699   1.198  0.00  0.00    +0.004 A 
ENDBRANCH   1  10
BRANCH   5  13
ATOM     13  C   UNL     1       0.712  -4.681   2.343  0.00  0.00    +0.051 A 
ATOM     14  C   UNL     1       1.889  -3.978   2.565  0.00  0.00    +0.026 A 
ATOM     15  C   UNL     1       2.230  -3.594   3.847  0.00  0.00    +0.005 A 
ATOM     16  C   UNL     1       1.401  -3.908   4.909  0.00  0.00    -0.050 A 
ATOM     17  C   UNL     1       0.229  -4.609   4.690  0.00  0.00    +0.005 A 
ATOM     18  C   UNL     1      -0.121  -4.990   3.410  0.00  0.00    +0.026 A 
ATOM     19  C   UNL     1       1.777  -3.488   6.306  0.00  0.00    +0.044 C 
ENDBRANCH   5  13
BRANCH   4  20
ATOM     20  S   UNL     1       0.515  -7.833   1.477  0.00  0.00    -0.076 S 
BRANCH  20  21
ATOM     21  C   UNL     1       0.211  -9.151   0.269  0.00  0.00    +0.174 C 
BRANCH  21  22
ATOM     22  C   UNL     1       0.408 -10.492   0.927  0.00  0.00    +0.242 C 
ATOM     23  O   UNL     1       0.722 -10.553   2.097  0.00  0.00    -0.273 OA
ATOM     24  N   UNL     1       0.234 -11.624   0.217  0.00  0.00    -0.206 N 
ATOM     25  H   UNL     1      -0.017 -11.576  -0.719  0.00  0.00    +0.177 HD
BRANCH  24  26
ATOM     26  N   UNL     1       0.417 -12.871   0.829  0.00  0.00    -0.175 NA
ATOM     27  C   UNL     1       0.248 -13.972   0.138  0.00  0.00    +0.152 C 
ATOM     28  C   UNL     1       0.390 -15.367   0.615  0.00  0.00    +0.028 A 
ATOM     29  C   UNL     1       0.721 -15.924   1.845  0.00  0.00    +0.012 A 
ATOM     30  C   UNL     1       0.774 -17.297   1.984  0.00  0.00    +0.001 A 
ATOM     31  C   UNL     1       0.498 -18.114   0.901  0.00  0.00    +0.002 A 
ATOM     32  C   UNL     1       0.169 -17.571  -0.325  0.00  0.00    +0.024 A 
ATOM     33  C   UNL     1       0.111 -16.191  -0.483  0.00  0.00    +0.043 A 
ATOM     34  N   UNL     1      -0.189 -15.400  -1.587  0.00  0.00    -0.280 N 
ATOM     35  C   UNL     1      -0.132 -14.092  -1.284  0.00  0.00    +0.269 C 
ATOM     36  O   UNL     1      -0.350 -13.169  -2.048  0.00  0.00    -0.268 OA
ATOM     37  H   UNL     1      -0.415 -15.748  -2.463  0.00  0.00    +0.155 HD
ENDBRANCH  24  26
ENDBRANCH  21  22
ENDBRANCH  20  21
ENDBRANCH   4  20
TORSDOF 6
