REMARK  Name = ZINC64230899
REMARK  6 active torsions:
REMARK  status: ('A' for Active; 'I' for Inactive)
REMARK    1  A    between atoms: C_4  and  C_7
REMARK    2  A    between atoms: C_7  and  N_8
REMARK    3  A    between atoms: C_17  and  C_19
REMARK    4  A    between atoms: N_21  and  N_22
REMARK    5  A    between atoms: C_23  and  C_24
REMARK    6  A    between atoms: C_32  and  C_34
REMARK                            x       y       z     vdW  Elec       q    Type
REMARK                         _______ _______ _______ _____ _____    ______ ____
ROOT
ATOM      1  C   UNL     1       6.172   0.907   3.705  0.00  0.00    +0.284 C 
ATOM      2  O   UNL     1       6.593   0.809   4.841  0.00  0.00    -0.267 OA
ATOM      3  N   UNL     1       6.467   1.997   2.970  0.00  0.00    -0.202 N 
ATOM      4  H   UNL     1       6.131   2.076   2.063  0.00  0.00    +0.178 HD
ENDROOT
BRANCH   1  14
ATOM      5  N   UNL     1       4.152  -0.952   1.338  0.00  0.00    -0.224 N 
ATOM      6  C   UNL     1       3.768  -2.099   1.936  0.00  0.00    +0.275 A 
ATOM      7  O   UNL     1       3.074  -2.907   1.347  0.00  0.00    -0.266 OA
ATOM      8  C   UNL     1       4.207  -2.350   3.316  0.00  0.00    +0.050 A 
ATOM      9  C   UNL     1       3.866  -3.500   4.020  0.00  0.00    +0.014 A 
ATOM     10  C   UNL     1       4.318  -3.660   5.313  0.00  0.00    +0.001 A 
ATOM     11  C   UNL     1       5.107  -2.688   5.914  0.00  0.00    +0.001 A 
ATOM     12  C   UNL     1       5.456  -1.541   5.233  0.00  0.00    +0.011 A 
ATOM     13  C   UNL     1       5.011  -1.361   3.928  0.00  0.00    +0.020 A 
ATOM     14  C   UNL     1       5.339  -0.166   3.132  0.00  0.00    +0.155 A 
ATOM     15  N   UNL     1       4.884  -0.070   1.905  0.00  0.00    -0.163 NA
BRANCH   5  16
ATOM     16  C   UNL     1       3.711  -0.707  -0.038  0.00  0.00    +0.182 C 
BRANCH  16  20
ATOM     17  C   UNL     1      -0.017   1.378   0.010  0.00  0.00    +0.000 A 
ATOM     18  C   UNL     1       1.171   2.086   0.002  0.00  0.00    +0.000 A 
ATOM     19  C   UNL     1       2.377   1.411  -0.013  0.00  0.00    +0.005 A 
ATOM     20  C   UNL     1       2.396   0.029  -0.020  0.00  0.00    -0.026 A 
ATOM     21  C   UNL     1       1.208  -0.679  -0.012  0.00  0.00    +0.005 A 
ATOM     22  C   UNL     1       0.002  -0.004   0.002  0.00  0.00    +0.000 A 
ENDBRANCH  16  20
ENDBRANCH   5  16
ENDBRANCH   1  14
BRANCH   3  23
ATOM     23  N   UNL     1       7.259   3.017   3.514  0.00  0.00    -0.188 NA
ATOM     24  C   UNL     1       7.545   4.076   2.799  0.00  0.00    +0.137 C 
BRANCH  24  25
ATOM     25  C   UNL     1       8.337   5.096   3.343  0.00  0.00    +0.008 C 
ATOM     26  C   UNL     1       8.900   5.136   4.617  0.00  0.00    +0.005 A 
ATOM     27  C   UNL     1       8.866   4.235   5.705  0.00  0.00    +0.010 A 
ATOM     28  C   UNL     1       9.522   4.541   6.853  0.00  0.00    +0.001 A 
ATOM     29  C   UNL     1      10.237   5.734   6.993  0.00  0.00    +0.002 A 
ATOM     30  C   UNL     1      10.312   6.644   5.992  0.00  0.00    +0.026 A 
ATOM     31  C   UNL     1       9.652   6.395   4.759  0.00  0.00    +0.044 A 
ATOM     32  N   UNL     1       9.574   7.105   3.654  0.00  0.00    -0.373 N 
ATOM     33  C   UNL     1       8.765   6.381   2.669  0.00  0.00    +0.142 C 
ATOM     34  H   UNL     1       9.989   7.970   3.512  0.00  0.00    +0.161 HD
BRANCH  33  35
ATOM     35  C   UNL     1       7.556   7.197   2.293  0.00  0.00    -0.021 A 
ATOM     36  C   UNL     1       6.918   7.968   3.248  0.00  0.00    +0.006 A 
ATOM     37  C   UNL     1       5.809   8.717   2.903  0.00  0.00    +0.000 A 
ATOM     38  C   UNL     1       5.337   8.696   1.604  0.00  0.00    +0.000 A 
ATOM     39  C   UNL     1       5.975   7.927   0.649  0.00  0.00    +0.000 A 
ATOM     40  C   UNL     1       7.087   7.181   0.993  0.00  0.00    +0.006 A 
ENDBRANCH  33  35
ENDBRANCH  24  25
ENDBRANCH   3  23
TORSDOF 6
