REMARK  Name = ZINC38650842
REMARK  17 active torsions:
REMARK  status: ('A' for Active; 'I' for Inactive)
REMARK    1  A    between atoms: C_1  and  C_2
REMARK    2  A    between atoms: C_2  and  C_3
REMARK    3  A    between atoms: C_3  and  C_4
REMARK    4  A    between atoms: C_4  and  O_5
REMARK    5  A    between atoms: O_5  and  C_6
REMARK    6  A    between atoms: C_9  and  C_12
REMARK    7  A    between atoms: C_17  and  O_26
REMARK    8  A    between atoms: C_21  and  N_25
REMARK    9  A    between atoms: C_22  and  C_23
REMARK   10  A    between atoms: O_26  and  C_27
REMARK   11  A    between atoms: C_27  and  C_29
REMARK   12  A    between atoms: C_29  and  O_30
REMARK   13  A    between atoms: O_30  and  C_31
REMARK   14  A    between atoms: C_34  and  C_37
REMARK   15  A    between atoms: C_37  and  C_38
REMARK   16  A    between atoms: C_37  and  C_39
REMARK   17  A    between atoms: C_37  and  C_40
REMARK                            x       y       z     vdW  Elec       q    Type
REMARK                         _______ _______ _______ _____ _____    ______ ____
ROOT
ATOM      1  C   UNL     1       1.909  -8.078   3.058  0.00  0.00    +0.098 C 
ATOM      2  C   UNL     1       3.365  -8.464   3.076  0.00  0.00    +0.008 A 
ATOM      3  C   UNL     1       4.052  -8.584   1.881  0.00  0.00    +0.012 A 
ATOM      4  C   UNL     1       5.387  -8.937   1.878  0.00  0.00    +0.047 A 
ATOM      5  C   UNL     1       6.044  -9.172   3.077  0.00  0.00    +0.135 A 
ATOM      6  C   UNL     1       5.359  -9.053   4.275  0.00  0.00    +0.093 A 
ATOM      7  C   UNL     1       4.017  -8.697   4.276  0.00  0.00    +0.138 A 
ATOM      8  O   UNL     1       3.361  -8.585   5.457  0.00  0.00    -0.441 OA
ATOM      9  C   UNL     1       2.018  -8.629   5.485  0.00  0.00    +0.199 C 
ATOM     10  C   UNL     1       1.274  -8.397   4.382  0.00  0.00    +0.098 C 
ENDROOT
BRANCH   1  14
ATOM     11  C   UNL     1       1.564  -3.888   2.295  0.00  0.00    +0.121 A 
ATOM     12  C   UNL     1       0.990  -4.802   1.424  0.00  0.00    +0.046 A 
ATOM     13  C   UNL     1       1.103  -6.156   1.672  0.00  0.00    +0.008 A 
ATOM     14  C   UNL     1       1.788  -6.600   2.789  0.00  0.00    -0.034 A 
ATOM     15  C   UNL     1       2.360  -5.691   3.659  0.00  0.00    +0.008 A 
ATOM     16  C   UNL     1       2.255  -4.336   3.411  0.00  0.00    +0.046 A 
BRANCH  11  17
ATOM     17  O   UNL     1       1.455  -2.555   2.053  0.00  0.00    -0.492 OA
BRANCH  17  18
ATOM     18  C   UNL     1       0.729  -2.166   0.885  0.00  0.00    +0.229 C 
BRANCH  18  19
ATOM     19  C   UNL     1       0.713  -0.639   0.779  0.00  0.00    +0.041 C 
BRANCH  19  21
ATOM     20  C   UNL     1      -0.080   1.304  -0.576  0.00  0.00    +0.004 C 
ATOM     21  C   UNL     1      -0.064  -0.222  -0.471  0.00  0.00    -0.000 C 
ENDBRANCH  19  21
ENDBRANCH  18  19
ENDBRANCH  17  18
ENDBRANCH  11  17
ENDBRANCH   1  14
BRANCH   9  22
ATOM     22  N   UNL     1       1.385  -8.917   6.668  0.00  0.00    -0.328 N 
ATOM     23  H   UNL     1       1.907  -9.085   7.469  0.00  0.00    +0.145 HD
ATOM     24  H   UNL     1       0.417  -8.953   6.705  0.00  0.00    +0.145 HD
ENDBRANCH   9  22
BRANCH  10  25
ATOM     25  C   UNL     1      -0.153  -8.458   4.479  0.00  0.00    +0.101 C 
ATOM     26  N   UNL     1      -1.286  -8.506   4.556  0.00  0.00    -0.191 NA
ENDBRANCH  10  25
BRANCH   5  27
ATOM     27  O   UNL     1       7.358  -9.520   3.076  0.00  0.00    -0.423 OA
BRANCH  27  28
ATOM     28  C   UNL     1       7.679 -10.772   3.441  0.00  0.00    +0.350 C 
ATOM     29  O   UNL     1       6.808 -11.581   3.656  0.00  0.00    -0.247 OA
BRANCH  28  30
ATOM     30  C   UNL     1       9.127 -11.168   3.581  0.00  0.00    +0.349 C 
BRANCH  30  31
ATOM     31  O   UNL     1       9.209 -12.539   3.975  0.00  0.00    -0.481 OA
BRANCH  31  32
ATOM     32  C   UNL     1      10.453 -13.058   4.147  0.00  0.00    +0.121 A 
ATOM     33  C   UNL     1      11.572 -12.262   3.946  0.00  0.00    +0.046 A 
ATOM     34  C   UNL     1      12.835 -12.792   4.122  0.00  0.00    +0.008 A 
ATOM     35  C   UNL     1      12.986 -14.114   4.497  0.00  0.00    -0.042 A 
ATOM     36  C   UNL     1      11.873 -14.909   4.698  0.00  0.00    +0.008 A 
ATOM     37  C   UNL     1      10.607 -14.383   4.530  0.00  0.00    +0.046 A 
BRANCH  35  38
ATOM     38  C   UNL     1      14.366 -14.690   4.688  0.00  0.00    -0.013 C 
ATOM     39  C   UNL     1      15.098 -13.908   5.781  0.00  0.00    +0.015 C 
ATOM     40  C   UNL     1      14.253 -16.159   5.099  0.00  0.00    +0.015 C 
ATOM     41  C   UNL     1      15.147 -14.586   3.376  0.00  0.00    +0.015 C 
ENDBRANCH  35  38
ENDBRANCH  31  32
ENDBRANCH  30  31
ENDBRANCH  28  30
ENDBRANCH  27  28
ENDBRANCH   5  27
TORSDOF 13
