REMARK  Name = ZINC17945514
REMARK  15 active torsions:
REMARK  status: ('A' for Active; 'I' for Inactive)
REMARK    1  A    between atoms: C_1  and  C_2
REMARK    2  A    between atoms: C_2  and  N_66
REMARK    3  A    between atoms: C_3  and  C_4
REMARK    4  A    between atoms: C_3  and  N_66
REMARK    5  A    between atoms: C_5  and  C_6
REMARK    6  A    between atoms: C_5  and  N_66
REMARK    7  A    between atoms: C_6  and  C_7
REMARK    8  A    between atoms: C_7  and  C_9
REMARK    9  A    between atoms: C_7  and  C_10
REMARK   10  A    between atoms: C_13  and  S_16
REMARK   11  A    between atoms: S_16  and  N_19
REMARK   12  A    between atoms: N_19  and  C_20
REMARK   13  A    between atoms: C_20  and  C_21
REMARK   14  A    between atoms: C_21  and  C_22
REMARK   15  A    between atoms: C_31  and  C_32
REMARK                            x       y       z     vdW  Elec       q    Type
REMARK                         _______ _______ _______ _____ _____    ______ ____
ROOT
ATOM      1  S   UNL     1       3.869   4.205  -3.755  0.00  0.00    +0.058 S 
ATOM      2  O   UNL     1       4.476   5.481  -3.605  0.00  0.00    -0.153 OA
ATOM      3  O   UNL     1       4.598   3.059  -4.172  0.00  0.00    -0.153 OA
ENDROOT
BRANCH   1   7
ATOM      4  C   UNL     1       0.476   4.727  -6.705  0.00  0.00    -0.044 A 
ATOM      5  C   UNL     1       0.935   5.811  -5.981  0.00  0.00    +0.006 A 
ATOM      6  C   UNL     1       1.971   5.652  -5.081  0.00  0.00    +0.029 A 
ATOM      7  C   UNL     1       2.548   4.408  -4.903  0.00  0.00    +0.105 A 
ATOM      8  C   UNL     1       2.092   3.325  -5.630  0.00  0.00    +0.029 A 
ATOM      9  C   UNL     1       1.053   3.483  -6.528  0.00  0.00    +0.006 A 
BRANCH   4  10
ATOM     10  C   UNL     1      -0.654   4.900  -7.688  0.00  0.00    +0.014 C 
ATOM     11  C   UNL     1      -0.176   4.512  -9.088  0.00  0.00    +0.012 C 
BRANCH  10  12
ATOM     12  C   UNL     1      -1.825   4.003  -7.281  0.00  0.00    -0.011 C 
BRANCH  12  13
ATOM     13  C   UNL     1      -3.016   4.271  -8.204  0.00  0.00    -0.078 C 
BRANCH  13  14
ATOM     14  N   UNL     1      -4.131   3.382  -7.812  0.00  0.00    +0.379 N 
ATOM     15  H   UNL     1      -3.788   2.416  -7.769  0.00  0.00    -0.082 HD
BRANCH  14  17
ATOM     16  C   UNL     1      -5.141   5.217  -6.499  0.00  0.00    -0.017 C 
ATOM     17  C   UNL     1      -4.643   3.771  -6.481  0.00  0.00    -0.082 C 
ENDBRANCH  14  17
BRANCH  14  18
ATOM     18  C   UNL     1      -5.216   3.462  -8.813  0.00  0.00    -0.082 C 
ATOM     19  C   UNL     1      -6.175   2.291  -8.593  0.00  0.00    -0.017 C 
ENDBRANCH  14  18
ENDBRANCH  13  14
ENDBRANCH  12  13
ENDBRANCH  10  12
ENDBRANCH   4  10
ENDBRANCH   1   7
BRANCH   1  20
ATOM     20  N   UNL     1       3.192   3.828  -2.291  0.00  0.00    -0.190 NA
ATOM     21  H   UNL     1       3.280   4.441  -1.544  0.00  0.00    +0.148 HD
BRANCH  20  22
ATOM     22  C   UNL     1       2.460   2.570  -2.125  0.00  0.00    +0.110 C 
BRANCH  22  23
ATOM     23  C   UNL     1       2.265   2.287  -0.634  0.00  0.00    +0.054 C 
BRANCH  23  24
ATOM     24  C   UNL     1       1.513   0.992  -0.463  0.00  0.00    -0.021 A 
ATOM     25  C   UNL     1       0.187   0.855  -0.299  0.00  0.00    +0.087 A 
ATOM     26  N   UNL     1      -0.133  -0.470  -0.177  0.00  0.00    -0.360 N 
ATOM     27  H   UNL     1      -1.030  -0.817  -0.049  0.00  0.00    +0.165 HD
ATOM     28  C   UNL     1       1.007  -1.237  -0.263  0.00  0.00    +0.050 A 
ATOM     29  C   UNL     1       2.088  -0.355  -0.446  0.00  0.00    +0.003 A 
ATOM     30  C   UNL     1       3.385  -0.858  -0.567  0.00  0.00    +0.010 A 
ATOM     31  C   UNL     1       3.598  -2.206  -0.507  0.00  0.00    +0.001 A 
ATOM     32  C   UNL     1       2.535  -3.080  -0.327  0.00  0.00    +0.005 A 
ATOM     33  C   UNL     1       1.247  -2.606  -0.205  0.00  0.00    -0.027 A 
ATOM     34  C   UNL     1       0.102  -3.566  -0.010  0.00  0.00    +0.046 C 
ENDBRANCH  23  24
ENDBRANCH  22  23
ENDBRANCH  20  22
ENDBRANCH   1  20
TORSDOF 11
