REMARK  Name = ZINC15047557
REMARK  10 active torsions:
REMARK  status: ('A' for Active; 'I' for Inactive)
REMARK    1  A    between atoms: C_1  and  C_2
REMARK    2  A    between atoms: C_2  and  C_4
REMARK    3  A    between atoms: C_2  and  N_17
REMARK    4  A    between atoms: N_6  and  C_7
REMARK    5  A    between atoms: C_10  and  S_13
REMARK    6  A    between atoms: S_13  and  N_16
REMARK    7  A    between atoms: C_21  and  C_22
REMARK    8  A    between atoms: C_25  and  O_30
REMARK    9  A    between atoms: C_26  and  O_28
REMARK   10  A    between atoms: O_28  and  C_29
REMARK                            x       y       z     vdW  Elec       q    Type
REMARK                         _______ _______ _______ _____ _____    ______ ____
ROOT
ATOM      1  C   UNL     1      -3.998   1.058  -0.296  0.00  0.00    +0.038 C 
ATOM      2  C   UNL     1      -4.224   1.863   0.985  0.00  0.00    +0.166 C 
ENDROOT
BRANCH   2   3
ATOM      3  N   UNL     1      -5.511   2.559   0.903  0.00  0.00    -0.244 N 
ATOM      4  C   UNL     1      -6.444   2.300   1.804  0.00  0.00    +0.259 C 
ATOM      5  O   UNL     1      -6.262   1.497   2.700  0.00  0.00    -0.269 OA
ATOM      6  C   UNL     1      -7.717   3.037   1.669  0.00  0.00    +0.077 C 
ATOM      7  C   UNL     1      -8.835   2.980   2.437  0.00  0.00    +0.028 C 
ATOM      8  S   UNL     1      -7.382   4.020   0.214  0.00  0.00    -0.061 S 
ATOM      9  C   UNL     1      -5.719   3.446  -0.092  0.00  0.00    +0.121 C 
ATOM     10  S   UNL     1      -4.648   3.909  -1.344  0.00  0.00    -0.027 S 
BRANCH   7  11
ATOM     11  C   UNL     1      -9.925   3.939   2.218  0.00  0.00    -0.020 A 
ATOM     12  C   UNL     1     -11.201   3.681   2.732  0.00  0.00    +0.012 A 
ATOM     13  C   UNL     1     -12.222   4.583   2.525  0.00  0.00    +0.050 A 
ATOM     14  C   UNL     1     -11.989   5.749   1.808  0.00  0.00    +0.158 A 
ATOM     15  C   UNL     1     -10.720   6.013   1.292  0.00  0.00    +0.162 A 
ATOM     16  C   UNL     1      -9.690   5.118   1.499  0.00  0.00    +0.057 A 
BRANCH  15  17
ATOM     17  O   UNL     1     -10.497   7.156   0.590  0.00  0.00    -0.491 OA
ATOM     18  C   UNL     1      -9.174   7.363   0.091  0.00  0.00    +0.277 C 
ENDBRANCH  15  17
BRANCH  14  19
ATOM     19  O   UNL     1     -12.999   6.634   1.608  0.00  0.00    -0.503 OA
ATOM     20  H   UNL     1     -13.075   7.308   2.298  0.00  0.00    +0.292 HD
ENDBRANCH  14  19
ENDBRANCH   7  11
ENDBRANCH   2   3
BRANCH   2  21
ATOM     21  C   UNL     1      -3.117   2.873   1.146  0.00  0.00    +0.238 C 
ATOM     22  O   UNL     1      -3.377   4.056   1.188  0.00  0.00    -0.273 OA
ATOM     23  N   UNL     1      -1.838   2.459   1.242  0.00  0.00    -0.284 N 
ATOM     24  H   UNL     1      -1.623   1.519   1.143  0.00  0.00    +0.155 HD
BRANCH  23  25
ATOM     25  C   UNL     1      -0.819   3.388   1.486  0.00  0.00    +0.034 A 
ATOM     26  C   UNL     1      -1.061   4.489   2.296  0.00  0.00    +0.025 A 
ATOM     27  C   UNL     1      -0.052   5.401   2.539  0.00  0.00    +0.030 A 
ATOM     28  C   UNL     1       1.197   5.220   1.972  0.00  0.00    +0.105 A 
ATOM     29  C   UNL     1       1.439   4.127   1.161  0.00  0.00    +0.030 A 
ATOM     30  C   UNL     1       0.434   3.212   0.913  0.00  0.00    +0.025 A 
BRANCH  28  31
ATOM     31  S   UNL     1       2.481   6.384   2.285  0.00  0.00    +0.056 S 
ATOM     32  O   UNL     1       3.395   6.282   1.202  0.00  0.00    -0.153 OA
ATOM     33  O   UNL     1       1.845   7.606   2.634  0.00  0.00    -0.153 OA
BRANCH  31  34
ATOM     34  N   UNL     1       3.290   5.870   3.636  0.00  0.00    -0.204 NA
ATOM     35  H   UNL     1       3.013   5.057   4.087  0.00  0.00    +0.144 HD
ATOM     36  H   UNL     1       4.041   6.381   3.975  0.00  0.00    +0.144 HD
ENDBRANCH  31  34
ENDBRANCH  28  31
ENDBRANCH  23  25
ENDBRANCH   2  21
TORSDOF 8
