REMARK  Name = ZINC14624623
REMARK  13 active torsions:
REMARK  status: ('A' for Active; 'I' for Inactive)
REMARK    1  A    between atoms: C_1  and  C_2
REMARK    2  A    between atoms: C_2  and  C_3
REMARK    3  A    between atoms: C_3  and  C_4
REMARK    4  A    between atoms: C_4  and  N_5
REMARK    5  A    between atoms: C_6  and  N_35
REMARK    6  A    between atoms: C_7  and  N_14
REMARK    7  A    between atoms: N_14  and  C_15
REMARK    8  A    between atoms: C_15  and  C_16
REMARK    9  A    between atoms: C_16  and  O_17
REMARK   10  A    between atoms: O_17  and  C_18
REMARK   11  A    between atoms: C_19  and  C_21
REMARK   12  A    between atoms: C_24  and  N_30
REMARK   13  A    between atoms: C_25  and  N_27
REMARK                            x       y       z     vdW  Elec       q    Type
REMARK                         _______ _______ _______ _____ _____    ______ ____
ROOT
ATOM      1  N   UNL     1       4.886  -3.977   3.404  0.00  0.00    -0.258 N 
ATOM      2  C   UNL     1       5.582  -3.134   2.616  0.00  0.00    +0.251 C 
ATOM      3  O   UNL     1       6.681  -2.745   2.963  0.00  0.00    -0.270 OA
ENDROOT
BRANCH   1   6
ATOM      4  N   UNL     1       1.236  -4.397   3.460  0.00  0.00    -0.280 N 
ATOM      5  C   UNL     1       2.502  -4.011   3.837  0.00  0.00    +0.127 A 
ATOM      6  C   UNL     1       3.576  -4.359   3.045  0.00  0.00    +0.140 A 
ATOM      7  C   UNL     1       3.343  -5.101   1.871  0.00  0.00    +0.277 A 
ATOM      8  O   UNL     1       4.275  -5.422   1.153  0.00  0.00    -0.266 OA
ATOM      9  N   UNL     1       2.084  -5.454   1.548  0.00  0.00    -0.273 N 
ATOM     10  H   UNL     1       1.922  -5.966   0.740  0.00  0.00    +0.173 HD
ATOM     11  C   UNL     1       1.049  -5.110   2.335  0.00  0.00    +0.331 A 
ATOM     12  O   UNL     1      -0.076  -5.447   2.022  0.00  0.00    -0.246 OA
BRANCH   5  13
ATOM     13  N   UNL     1       2.693  -3.286   4.989  0.00  0.00    -0.343 N 
ATOM     14  H   UNL     1       1.933  -3.038   5.538  0.00  0.00    +0.144 HD
ATOM     15  H   UNL     1       3.588  -3.023   5.253  0.00  0.00    +0.144 HD
ENDBRANCH   5  13
BRANCH   4  16
ATOM     16  C   UNL     1       0.086  -4.035   4.292  0.00  0.00    +0.128 C 
BRANCH  16  17
ATOM     17  C   UNL     1      -0.157  -5.131   5.331  0.00  0.00    +0.021 C 
BRANCH  17  19
ATOM     18  C   UNL     1      -1.602  -5.850   7.239  0.00  0.00    +0.004 C 
ATOM     19  C   UNL     1      -1.359  -4.753   6.200  0.00  0.00    -0.002 C 
ENDBRANCH  17  19
ENDBRANCH  16  17
ENDBRANCH   4  16
ENDBRANCH   1   6
BRANCH   2  20
ATOM     20  C   UNL     1       5.012  -2.683   1.333  0.00  0.00    +0.040 A 
ATOM     21  C   UNL     1       3.626  -2.591   1.176  0.00  0.00    +0.015 A 
ATOM     22  C   UNL     1       3.096  -2.170  -0.022  0.00  0.00    +0.026 A 
ATOM     23  C   UNL     1       3.940  -1.837  -1.079  0.00  0.00    +0.060 A 
ATOM     24  C   UNL     1       5.320  -1.928  -0.926  0.00  0.00    +0.148 A 
ATOM     25  C   UNL     1       5.856  -2.342   0.272  0.00  0.00    +0.047 A 
BRANCH  23  26
ATOM     26  N   UNL     1       3.402  -1.412  -2.289  0.00  0.00    -0.328 N 
ATOM     27  C   UNL     1       3.033  -2.282  -3.415  0.00  0.00    +0.105 C 
ATOM     28  C   UNL     1       2.506  -1.372  -4.544  0.00  0.00    +0.020 C 
ATOM     29  C   UNL     1       3.136   0.004  -4.203  0.00  0.00    +0.020 C 
ATOM     30  C   UNL     1       3.102  -0.015  -2.653  0.00  0.00    +0.105 C 
ENDBRANCH  23  26
BRANCH  24  31
ATOM     31  N   UNL     1       6.214  -1.573  -2.052  0.00  0.00    +0.058 N 
ATOM     32  O   UNL     1       7.413  -1.651  -1.920  0.00  0.00    -0.126 OA
ATOM     33  O   UNL     1       5.744  -1.204  -3.103  0.00  0.00    -0.126 OA
ENDBRANCH  24  31
ENDBRANCH   2  20
BRANCH   1  34
ATOM     34  C   UNL     1       5.489  -4.497   4.633  0.00  0.00    +0.142 C 
BRANCH  34  35
ATOM     35  C   UNL     1       6.115  -5.866   4.356  0.00  0.00    +0.179 C 
BRANCH  35  36
ATOM     36  O   UNL     1       7.199  -5.716   3.437  0.00  0.00    -0.381 OA
ATOM     37  C   UNL     1       7.855  -6.942   3.108  0.00  0.00    +0.194 C 
ENDBRANCH  35  36
ENDBRANCH  34  35
ENDBRANCH   1  34
TORSDOF 11
