REMARK  Name = ZINC40794714
REMARK  6 active torsions:
REMARK  status: ('A' for Active; 'I' for Inactive)
REMARK    1  A    between atoms: C_1  and  C_2
REMARK    2  A    between atoms: C_5  and  S_8
REMARK    3  A    between atoms: S_8  and  N_11
REMARK    4  A    between atoms: N_11  and  N_12
REMARK    5  A    between atoms: C_14  and  N_31
REMARK    6  A    between atoms: C_15  and  N_19
REMARK                            x       y       z     vdW  Elec       q    Type
REMARK                         _______ _______ _______ _____ _____    ______ ____
ROOT
ATOM      1  N   UNL     1       2.543  -4.625   0.947  0.00  0.00    -0.244 N 
ATOM      2  C   UNL     1       3.233  -5.587   1.674  0.00  0.00    +0.159 A 
ATOM      3  C   UNL     1       4.078  -5.214   2.721  0.00  0.00    +0.107 A 
ATOM      4  C   UNL     1       4.747  -6.220   3.419  0.00  0.00    +0.147 A 
ATOM      5  N   UNL     1       4.556  -7.488   3.063  0.00  0.00    -0.219 NA
ATOM      6  C   UNL     1       3.750  -7.798   2.068  0.00  0.00    +0.225 A 
ATOM      7  N   UNL     1       3.095  -6.879   1.387  0.00  0.00    -0.218 NA
ATOM      8  H   UNL     1       2.649  -3.685   1.163  0.00  0.00    +0.169 HD
ENDROOT
BRANCH   4   9
ATOM      9  N   UNL     1       5.599  -5.903   4.470  0.00  0.00    -0.311 N 
ATOM     10  C   UNL     1       5.117  -5.925   5.858  0.00  0.00    +0.125 C 
ATOM     11  C   UNL     1       6.021  -6.854   6.677  0.00  0.00    +0.125 C 
ATOM     12  N   UNL     1       7.422  -6.491   6.420  0.00  0.00    -0.314 N 
ATOM     13  C   UNL     1       7.905  -6.469   5.032  0.00  0.00    +0.125 C 
ATOM     14  C   UNL     1       7.002  -5.546   4.214  0.00  0.00    +0.125 C 
ATOM     15  C   UNL     1       8.275  -6.174   7.471  0.00  0.00    +0.099 A 
ATOM     16  C   UNL     1       7.841  -6.333   8.783  0.00  0.00    +0.042 A 
ATOM     17  C   UNL     1       8.700  -6.013   9.819  0.00  0.00    +0.005 A 
ATOM     18  C   UNL     1       9.969  -5.544   9.507  0.00  0.00    +0.018 A 
ATOM     19  C   UNL     1      10.334  -5.411   8.182  0.00  0.00    +0.084 A 
ATOM     20  N   UNL     1       9.495  -5.729   7.214  0.00  0.00    -0.350 N 
ATOM     21  H   UNL     1       9.778  -5.630   6.292  0.00  0.00    +0.166 HD
ENDBRANCH   4   9
BRANCH   3  22
ATOM     22  N   UNL     1       4.250  -3.862   3.063  0.00  0.00    -0.353 N 
ATOM     23  H   UNL     1       3.837  -3.169   2.523  0.00  0.00    +0.143 HD
ATOM     24  H   UNL     1       4.781  -3.621   3.838  0.00  0.00    +0.143 HD
ENDBRANCH   3  22
BRANCH   1  25
ATOM     25  N   UNL     1       1.694  -5.012  -0.098  0.00  0.00    -0.109 NA
ATOM     26  H   UNL     1       2.033  -5.566  -0.819  0.00  0.00    +0.172 HD
BRANCH  25  27
ATOM     27  S   UNL     1       0.111  -4.524  -0.103  0.00  0.00    +0.074 S 
ATOM     28  O   UNL     1      -0.438  -4.915   1.148  0.00  0.00    -0.152 OA
ATOM     29  O   UNL     1      -0.440  -4.948  -1.342  0.00  0.00    -0.152 OA
BRANCH  27  34
ATOM     30  C   UNL     1       0.101   1.509  -0.183  0.00  0.00    +0.044 C 
ATOM     31  C   UNL     1       0.103   0.002  -0.163  0.00  0.00    -0.050 A 
ATOM     32  C   UNL     1       0.104  -0.705  -1.351  0.00  0.00    +0.005 A 
ATOM     33  C   UNL     1       0.107  -2.087  -1.332  0.00  0.00    +0.029 A 
ATOM     34  C   UNL     1       0.109  -2.763  -0.126  0.00  0.00    +0.107 A 
ATOM     35  C   UNL     1       0.109  -2.056   1.062  0.00  0.00    +0.029 A 
ATOM     36  C   UNL     1       0.111  -0.673   1.043  0.00  0.00    +0.005 A 
ENDBRANCH  27  34
ENDBRANCH  25  27
ENDBRANCH   1  25
TORSDOF 5
