REMARK  Name = ZINC52782694
REMARK  8 active torsions:
REMARK  status: ('A' for Active; 'I' for Inactive)
REMARK    1  A    between atoms: C_1  and  C_2
REMARK    2  A    between atoms: C_2  and  C_4
REMARK    3  A    between atoms: C_2  and  N_14
REMARK    4  A    between atoms: C_8  and  S_10
REMARK    5  A    between atoms: S_10  and  N_13
REMARK    6  A    between atoms: N_14  and  S_15
REMARK    7  A    between atoms: S_15  and  C_18
REMARK    8  A    between atoms: C_23  and  N_24
REMARK                            x       y       z     vdW  Elec       q    Type
REMARK                         _______ _______ _______ _____ _____    ______ ____
ROOT
ATOM      1  C   UNL     1      -0.523   1.592  -0.186  0.00  0.00    +0.031 C 
ATOM      2  C   UNL     1      -0.307   0.078  -0.144  0.00  0.00    +0.103 C 
ENDROOT
BRANCH   2   3
ATOM      3  C   UNL     1       0.360  -0.369  -1.420  0.00  0.00    -0.027 A 
ATOM      4  C   UNL     1      -0.390  -0.537  -2.569  0.00  0.00    +0.005 A 
ATOM      5  C   UNL     1       0.221  -0.948  -3.739  0.00  0.00    +0.002 A 
ATOM      6  C   UNL     1       1.582  -1.190  -3.759  0.00  0.00    +0.028 A 
ATOM      7  C   UNL     1       2.332  -1.022  -2.610  0.00  0.00    +0.105 A 
ATOM      8  C   UNL     1       1.721  -0.607  -1.442  0.00  0.00    +0.033 A 
BRANCH   7   9
ATOM      9  S   UNL     1       4.066  -1.331  -2.636  0.00  0.00    +0.056 S 
ATOM     10  O   UNL     1       4.446  -1.626  -1.299  0.00  0.00    -0.153 OA
ATOM     11  O   UNL     1       4.302  -2.230  -3.712  0.00  0.00    -0.153 OA
BRANCH   9  12
ATOM     12  N   UNL     1       4.811   0.093  -3.037  0.00  0.00    -0.204 NA
ATOM     13  H   UNL     1       5.702   0.284  -2.704  0.00  0.00    +0.144 HD
ATOM     14  H   UNL     1       4.357   0.735  -3.604  0.00  0.00    +0.144 HD
ENDBRANCH   9  12
ENDBRANCH   7   9
ENDBRANCH   2   3
BRANCH   2  15
ATOM     15  N   UNL     1      -1.600  -0.596  -0.007  0.00  0.00    -0.183 NA
ATOM     16  H   UNL     1      -2.151  -0.752  -0.789  0.00  0.00    +0.149 HD
BRANCH  15  17
ATOM     17  S   UNL     1      -2.122  -1.091   1.485  0.00  0.00    +0.061 S 
ATOM     18  O   UNL     1      -3.412  -1.656   1.298  0.00  0.00    -0.153 OA
ATOM     19  O   UNL     1      -1.049  -1.817   2.070  0.00  0.00    -0.153 OA
BRANCH  17  20
ATOM     20  C   UNL     1      -2.343   0.356   2.466  0.00  0.00    +0.135 A 
ATOM     21  C   UNL     1      -1.576   0.547   3.600  0.00  0.00    +0.031 A 
ATOM     22  C   UNL     1      -1.749   1.682   4.370  0.00  0.00    +0.002 A 
ATOM     23  C   UNL     1      -2.690   2.627   4.005  0.00  0.00    +0.002 A 
ATOM     24  C   UNL     1      -3.456   2.437   2.870  0.00  0.00    +0.035 A 
ATOM     25  C   UNL     1      -3.280   1.304   2.098  0.00  0.00    +0.152 A 
BRANCH  25  26
ATOM     26  N   UNL     1      -4.097   1.103   0.881  0.00  0.00    +0.058 N 
ATOM     27  O   UNL     1      -5.003   1.862   0.629  0.00  0.00    -0.126 OA
ATOM     28  O   UNL     1      -3.857   0.180   0.138  0.00  0.00    -0.126 OA
ENDBRANCH  25  26
ENDBRANCH  17  20
ENDBRANCH  15  17
ENDBRANCH   2  15
TORSDOF 7
