REMARK  Name = ZINC06442591
REMARK  7 active torsions:
REMARK  status: ('A' for Active; 'I' for Inactive)
REMARK    1  A    between atoms: C_1  and  C_2
REMARK    2  A    between atoms: C_7  and  C_15
REMARK    3  A    between atoms: C_13  and  C_14
REMARK    4  A    between atoms: C_15  and  C_17
REMARK    5  A    between atoms: C_15  and  N_73
REMARK    6  A    between atoms: N_21  and  C_22
REMARK    7  A    between atoms: C_22  and  C_23
REMARK                            x       y       z     vdW  Elec       q    Type
REMARK                         _______ _______ _______ _____ _____    ______ ____
ROOT
ATOM      1  C   UNL     1       1.536  -1.470  -1.585  0.00  0.00    +0.039 C 
ENDROOT
BRANCH   1   8
ATOM      2  C   UNL     1      -4.714   0.448  -6.154  0.00  0.00    +0.044 C 
ATOM      3  C   UNL     1      -3.438   0.284  -5.370  0.00  0.00    -0.046 A 
ATOM      4  C   UNL     1      -2.440   1.244  -5.472  0.00  0.00    +0.004 A 
ATOM      5  C   UNL     1      -1.276   1.114  -4.770  0.00  0.00    +0.010 A 
ATOM      6  C   UNL     1      -1.087   0.004  -3.940  0.00  0.00    -0.001 A 
ATOM      7  C   UNL     1       0.149  -0.167  -3.174  0.00  0.00    +0.017 A 
ATOM      8  C   UNL     1       0.277  -1.264  -2.386  0.00  0.00    +0.011 A 
ATOM      9  C   UNL     1      -0.763  -2.215  -2.319  0.00  0.00    +0.251 A 
ATOM     10  O   UNL     1      -0.626  -3.196  -1.609  0.00  0.00    -0.268 OA
ATOM     11  N   UNL     1      -1.904  -2.064  -3.015  0.00  0.00    -0.322 N 
ATOM     12  H   UNL     1      -2.600  -2.736  -2.943  0.00  0.00    +0.169 HD
ATOM     13  C   UNL     1      -2.096  -0.972  -3.834  0.00  0.00    +0.052 A 
ATOM     14  C   UNL     1      -3.273  -0.818  -4.558  0.00  0.00    -0.024 A 
ATOM     15  C   UNL     1      -4.365  -1.852  -4.456  0.00  0.00    +0.046 C 
ENDBRANCH   1   8
BRANCH   1  26
ATOM     16  C   UNL     1       3.414  -2.957  -1.239  0.00  0.00    -0.077 C 
ATOM     17  C   UNL     1       3.962  -4.349  -1.560  0.00  0.00    -0.018 C 
ATOM     18  C   UNL     1       4.208  -4.461  -3.067  0.00  0.00    +0.003 C 
ATOM     19  C   UNL     1       2.898  -4.184  -3.810  0.00  0.00    -0.044 C 
ATOM     20  C   UNL     1       2.381  -2.796  -3.425  0.00  0.00    -0.071 C 
ATOM     21  C   UNL     1       1.861  -5.240  -3.426  0.00  0.00    +0.005 C 
ATOM     22  C   UNL     1       2.381  -6.628  -3.808  0.00  0.00    +0.000 C 
ATOM     23  C   UNL     1       2.630  -6.681  -5.317  0.00  0.00    +0.000 C 
ATOM     24  C   UNL     1       3.667  -5.624  -5.701  0.00  0.00    +0.000 C 
ATOM     25  C   UNL     1       3.147  -4.237  -5.319  0.00  0.00    +0.005 C 
ATOM     26  N   UNL     1       2.142  -2.762  -1.966  0.00  0.00    +0.390 N 
ATOM     27  H   UNL     1       1.496  -3.520  -1.717  0.00  0.00    -0.080 HD
ENDBRANCH   1  26
BRANCH   1  28
ATOM     28  C   UNL     1       2.492  -0.336  -1.851  0.00  0.00    +0.143 A 
ATOM     29  N   UNL     1       3.174  -0.129  -2.952  0.00  0.00    -0.115 NA
ATOM     30  N   UNL     1       3.880   0.936  -2.788  0.00  0.00    -0.023 NA
ATOM     31  N   UNL     1       3.663   1.416  -1.614  0.00  0.00    -0.044 NA
ATOM     32  N   UNL     1       2.811   0.662  -1.006  0.00  0.00    -0.226 N 
BRANCH  32  33
ATOM     33  C   UNL     1       2.292   0.853   0.350  0.00  0.00    +0.182 C 
BRANCH  33  34
ATOM     34  C   UNL     1       1.113   1.791   0.310  0.00  0.00    -0.026 A 
ATOM     35  C   UNL     1      -0.172   1.285   0.250  0.00  0.00    +0.005 A 
ATOM     36  C   UNL     1      -1.252   2.146   0.208  0.00  0.00    +0.000 A 
ATOM     37  C   UNL     1      -1.048   3.513   0.235  0.00  0.00    +0.000 A 
ATOM     38  C   UNL     1       0.236   4.019   0.296  0.00  0.00    +0.000 A 
ATOM     39  C   UNL     1       1.317   3.158   0.333  0.00  0.00    +0.005 A 
ENDBRANCH  33  34
ENDBRANCH  32  33
ENDBRANCH   1  28
TORSDOF 5
