REMARK  Name = ZINC34750040
REMARK  11 active torsions:
REMARK  status: ('A' for Active; 'I' for Inactive)
REMARK    1  A    between atoms: C_1  and  C_2
REMARK    2  A    between atoms: C_2  and  C_3
REMARK    3  A    between atoms: C_3  and  C_4
REMARK    4  A    between atoms: C_4  and  S_5
REMARK    5  A    between atoms: S_5  and  C_6
REMARK    6  A    between atoms: C_17  and  C_19
REMARK    7  A    between atoms: C_17  and  C_20
REMARK    8  A    between atoms: N_24  and  C_27
REMARK    9  A    between atoms: C_27  and  C_28
REMARK   10  A    between atoms: C_31  and  C_35
REMARK   11  A    between atoms: C_33  and  C_34
REMARK                            x       y       z     vdW  Elec       q    Type
REMARK                         _______ _______ _______ _____ _____    ______ ____
ROOT
ATOM      1  C   UNL     1       1.538  -4.368  -2.616  0.00  0.00    +0.191 A 
ATOM      2  N   UNL     1       2.089  -5.114  -3.566  0.00  0.00    -0.206 NA
ATOM      3  C   UNL     1       2.067  -6.436  -3.523  0.00  0.00    +0.134 A 
ATOM      4  C   UNL     1       1.435  -7.087  -2.427  0.00  0.00    +0.051 A 
ATOM      5  C   UNL     1       1.288  -8.518  -2.171  0.00  0.00    -0.020 A 
ATOM      6  C   UNL     1       0.638  -8.878  -1.044  0.00  0.00    +0.021 A 
ATOM      7  S   UNL     1       0.188  -7.354  -0.264  0.00  0.00    -0.071 S 
ATOM      8  C   UNL     1       0.873  -6.232  -1.456  0.00  0.00    +0.115 A 
ATOM      9  N   UNL     1       0.941  -4.920  -1.568  0.00  0.00    -0.215 NA
ATOM     10  C   UNL     1       0.371 -10.278  -0.583  0.00  0.00    +0.203 C 
ATOM     11  O   UNL     1       0.635 -11.163  -1.683  0.00  0.00    -0.368 OA
ATOM     12  C   UNL     1       1.888 -10.915  -2.326  0.00  0.00    +0.068 C 
ATOM     13  C   UNL     1       1.829  -9.598  -3.106  0.00  0.00    +0.071 C 
ATOM     14  C   UNL     1       2.992 -10.831  -1.270  0.00  0.00    +0.041 C 
ATOM     15  C   UNL     1       2.199 -12.061  -3.291  0.00  0.00    +0.041 C 
ATOM     16  N   UNL     1       2.652  -7.177  -4.534  0.00  0.00    -0.318 N 
ATOM     17  C   UNL     1       1.853  -7.682  -5.661  0.00  0.00    +0.088 C 
ATOM     18  C   UNL     1       2.556  -7.296  -6.966  0.00  0.00    -0.059 C 
ATOM     19  N   UNL     1       3.941  -7.784  -6.938  0.00  0.00    +0.384 N 
ATOM     20  C   UNL     1       4.688  -7.107  -5.871  0.00  0.00    -0.059 C 
ATOM     21  C   UNL     1       4.091  -7.479  -4.514  0.00  0.00    +0.088 C 
ATOM     22  H   UNL     1       3.942  -8.779  -6.769  0.00  0.00    -0.081 HD
ENDROOT
BRANCH   1  23
ATOM     23  S   UNL     1       1.609  -2.612  -2.745  0.00  0.00    -0.086 S 
BRANCH  23  24
ATOM     24  C   UNL     1       0.757  -2.027  -1.255  0.00  0.00    +0.077 C 
BRANCH  24  25
ATOM     25  C   UNL     1       0.746  -0.497  -1.241  0.00  0.00    +0.011 C 
BRANCH  25  27
ATOM     26  C   UNL     1       0.017   1.526   0.031  0.00  0.00    +0.004 C 
ATOM     27  C   UNL     1       0.027  -0.004   0.017  0.00  0.00    -0.003 C 
ENDBRANCH  25  27
ENDBRANCH  24  25
ENDBRANCH  23  24
ENDBRANCH   1  23
BRANCH  19  28
ATOM     28  C   UNL     1       4.581  -7.510  -8.232  0.00  0.00    -0.043 C 
BRANCH  28  29
ATOM     29  C   UNL     1       5.960  -8.118  -8.248  0.00  0.00    -0.061 A 
ATOM     30  C   UNL     1       7.068  -7.326  -8.011  0.00  0.00    +0.002 A 
ATOM     31  C   UNL     1       8.332  -7.884  -8.026  0.00  0.00    +0.003 A 
ATOM     32  C   UNL     1       8.489  -9.235  -8.279  0.00  0.00    -0.050 A 
ATOM     33  C   UNL     1       7.381 -10.027  -8.515  0.00  0.00    +0.007 A 
ATOM     34  C   UNL     1       6.116  -9.469  -8.496  0.00  0.00    -0.049 A 
ATOM     35  C   UNL     1       4.908 -10.334  -8.749  0.00  0.00    +0.044 C 
ATOM     36  C   UNL     1       9.868  -9.843  -8.297  0.00  0.00    +0.044 C 
ENDBRANCH  28  29
ENDBRANCH  19  28
TORSDOF 6
