REMARK  Name = ZINC09435189
REMARK  5 active torsions:
REMARK  status: ('A' for Active; 'I' for Inactive)
REMARK    1  A    between atoms: C_4  and  C_7
REMARK    2  A    between atoms: C_7  and  C_9
REMARK    3  A    between atoms: C_18  and  C_21
REMARK    4  A    between atoms: C_25  and  O_27
REMARK    5  A    between atoms: O_27  and  C_28
REMARK                            x       y       z     vdW  Elec       q    Type
REMARK                         _______ _______ _______ _____ _____    ______ ____
ROOT
ATOM      1  C   UNL     1      -2.506   5.417   1.606  0.00  0.00    +0.024 A 
ATOM      2  C   UNL     1      -1.570   6.382   1.219  0.00  0.00    +0.013 A 
ATOM      3  C   UNL     1      -0.328   5.999   0.758  0.00  0.00    +0.025 A 
ATOM      4  C   UNL     1      -0.011   4.648   0.678  0.00  0.00    +0.049 A 
ATOM      5  C   UNL     1      -0.953   3.685   1.025  0.00  0.00    +0.053 A 
ATOM      6  C   UNL     1      -2.190   4.056   1.507  0.00  0.00    +0.036 A 
ATOM      7  N   UNL     1      -0.617   2.356   0.795  0.00  0.00    -0.316 N 
ATOM      8  C   UNL     1       0.382   1.688   1.425  0.00  0.00    +0.017 C 
ATOM      9  C   UNL     1       1.625   2.166   1.609  0.00  0.00    +0.036 C 
ATOM     10  C   UNL     1       2.128   3.518   1.165  0.00  0.00    +0.136 C 
ATOM     11  N   UNL     1       1.242   4.224   0.264  0.00  0.00    -0.331 N 
ATOM     12  C   UNL     1       2.596   1.385   2.279  0.00  0.00    +0.163 C 
ATOM     13  O   UNL     1       3.719   1.830   2.408  0.00  0.00    -0.292 OA
ATOM     14  C   UNL     1       2.288   0.027   2.835  0.00  0.00    +0.080 C 
ATOM     15  C   UNL     1       0.797  -0.029   3.188  0.00  0.00    +0.014 C 
ATOM     16  C   UNL     1       0.007   0.302   1.923  0.00  0.00    +0.051 C 
ATOM     17  H   UNL     1      -1.135   1.870   0.134  0.00  0.00    +0.152 HD
ATOM     18  H   UNL     1       1.530   4.404  -0.644  0.00  0.00    +0.147 HD
ENDROOT
BRANCH  10  19
ATOM     19  C   UNL     1       2.340   4.373   2.388  0.00  0.00    -0.019 A 
ATOM     20  C   UNL     1       1.262   4.721   3.182  0.00  0.00    +0.009 A 
ATOM     21  C   UNL     1       1.453   5.505   4.305  0.00  0.00    +0.042 A 
ATOM     22  C   UNL     1       2.722   5.943   4.637  0.00  0.00    +0.165 A 
ATOM     23  C   UNL     1       3.806   5.593   3.840  0.00  0.00    +0.164 A 
ATOM     24  C   UNL     1       3.611   4.802   2.718  0.00  0.00    +0.055 A 
ATOM     25  F   UNL     1       2.909   6.709   5.734  0.00  0.00    -0.202 F 
BRANCH  23  26
ATOM     26  O   UNL     1       5.055   6.021   4.163  0.00  0.00    -0.453 OA
BRANCH  26  27
ATOM     27  C   UNL     1       5.735   5.340   5.122  0.00  0.00    +0.129 A 
ATOM     28  C   UNL     1       5.196   4.183   5.667  0.00  0.00    +0.046 A 
ATOM     29  C   UNL     1       5.892   3.490   6.638  0.00  0.00    +0.004 A 
ATOM     30  C   UNL     1       7.119   3.954   7.076  0.00  0.00    +0.000 A 
ATOM     31  C   UNL     1       7.655   5.109   6.539  0.00  0.00    +0.004 A 
ATOM     32  C   UNL     1       6.966   5.803   5.563  0.00  0.00    +0.046 A 
ENDBRANCH  26  27
ENDBRANCH  23  26
ENDBRANCH  10  19
BRANCH   1  33
ATOM     33  C   UNL     1      -3.824   5.833   2.119  0.00  0.00    +0.193 C 
ATOM     34  O   UNL     1      -3.920   6.824   2.817  0.00  0.00    -0.287 OA
BRANCH  33  38
ATOM     35  C   UNL     1      -7.287   3.570   1.157  0.00  0.00    +0.000 A 
ATOM     36  C   UNL     1      -7.372   4.601   2.077  0.00  0.00    +0.001 A 
ATOM     37  C   UNL     1      -6.251   5.339   2.394  0.00  0.00    +0.012 A 
ATOM     38  C   UNL     1      -5.029   5.045   1.784  0.00  0.00    +0.022 A 
ATOM     39  C   UNL     1      -4.952   4.007   0.853  0.00  0.00    +0.012 A 
ATOM     40  C   UNL     1      -6.080   3.273   0.549  0.00  0.00    +0.001 A 
ENDBRANCH  33  38
ENDBRANCH   1  33
TORSDOF 5
