REMARK  Name = ZINC38760501
REMARK  7 active torsions:
REMARK  status: ('A' for Active; 'I' for Inactive)
REMARK    1  A    between atoms: C_1  and  C_2
REMARK    2  A    between atoms: C_7  and  C_9
REMARK    3  A    between atoms: C_7  and  C_10
REMARK    4  A    between atoms: N_11  and  C_13
REMARK    5  A    between atoms: C_13  and  N_14
REMARK    6  A    between atoms: N_22  and  N_23
REMARK    7  A    between atoms: C_24  and  C_26
REMARK                            x       y       z     vdW  Elec       q    Type
REMARK                         _______ _______ _______ _____ _____    ______ ____
ROOT
ATOM      1  N   UNL     1      -3.509  -2.721  -0.667  0.00  0.00    -0.282 N 
ATOM      2  C   UNL     1      -4.219  -2.077   0.341  0.00  0.00    +0.044 A 
ATOM      3  C   UNL     1      -3.817  -1.557   1.567  0.00  0.00    +0.024 A 
ATOM      4  C   UNL     1      -4.739  -0.957   2.401  0.00  0.00    +0.002 A 
ATOM      5  C   UNL     1      -6.070  -0.865   2.030  0.00  0.00    +0.001 A 
ATOM      6  C   UNL     1      -6.488  -1.376   0.818  0.00  0.00    +0.012 A 
ATOM      7  C   UNL     1      -5.566  -1.982  -0.029  0.00  0.00    +0.028 A 
ATOM      8  C   UNL     1      -5.679  -2.616  -1.363  0.00  0.00    +0.153 C 
ATOM      9  N   UNL     1      -6.760  -2.753  -2.094  0.00  0.00    -0.174 NA
ATOM     10  C   UNL     1      -4.309  -3.055  -1.694  0.00  0.00    +0.270 C 
ATOM     11  O   UNL     1      -3.965  -3.622  -2.714  0.00  0.00    -0.268 OA
ENDROOT
BRANCH   9  12
ATOM     12  N   UNL     1      -6.686  -3.384  -3.342  0.00  0.00    -0.201 N 
ATOM     13  C   UNL     1      -7.796  -3.524  -4.093  0.00  0.00    +0.282 C 
ATOM     14  O   UNL     1      -8.861  -3.104  -3.687  0.00  0.00    -0.267 OA
ATOM     15  H   UNL     1      -5.836  -3.719  -3.667  0.00  0.00    +0.178 HD
BRANCH  13  16
ATOM     16  C   UNL     1      -7.718  -4.191  -5.414  0.00  0.00    +0.128 A 
ATOM     17  C   UNL     1      -8.883  -4.324  -6.185  0.00  0.00    +0.034 A 
ATOM     18  C   UNL     1      -8.824  -4.936  -7.403  0.00  0.00    +0.012 A 
ATOM     19  C   UNL     1      -7.579  -5.418  -7.847  0.00  0.00    +0.000 A 
ATOM     20  C   UNL     1      -7.446  -6.057  -9.090  0.00  0.00    +0.010 A 
ATOM     21  C   UNL     1      -6.225  -6.511  -9.487  0.00  0.00    +0.001 A 
ATOM     22  C   UNL     1      -5.102  -6.350  -8.676  0.00  0.00    +0.002 A 
ATOM     23  C   UNL     1      -5.193  -5.736  -7.466  0.00  0.00    +0.028 A 
ATOM     24  C   UNL     1      -6.438  -5.252  -7.019  0.00  0.00    +0.072 A 
ATOM     25  N   UNL     1      -6.554  -4.642  -5.840  0.00  0.00    -0.242 NA
ENDBRANCH  13  16
ENDBRANCH   9  12
BRANCH   1  26
ATOM     26  C   UNL     1      -2.071  -2.994  -0.618  0.00  0.00    +0.039 C 
BRANCH  26  36
ATOM     27  C   UNL     1      -0.142   1.523  -0.839  0.00  0.00    +0.009 C 
ATOM     28  C   UNL     1      -0.069   0.015  -0.559  0.00  0.00    -0.048 C 
ATOM     29  C   UNL     1       0.677  -0.759  -1.681  0.00  0.00    -0.011 C 
ATOM     30  C   UNL     1       0.094  -2.180  -1.438  0.00  0.00    -0.065 C 
ATOM     31  C   UNL     1       0.729  -2.731  -0.176  0.00  0.00    -0.009 C 
ATOM     32  C   UNL     1       0.851  -1.790   1.002  0.00  0.00    -0.036 C 
ATOM     33  C   UNL     1       0.657  -0.309   0.747  0.00  0.00    +0.011 C 
ATOM     34  C   UNL     1      -0.109  -2.240   2.119  0.00  0.00    +0.011 C 
ATOM     35  C   UNL     1       2.282  -1.966   1.577  0.00  0.00    +0.011 C 
ATOM     36  N   UNL     1      -1.348  -1.910  -1.273  0.00  0.00    +0.393 N 
ATOM     37  C   UNL     1      -1.466  -0.645  -0.523  0.00  0.00    -0.070 C 
ATOM     38  H   UNL     1      -1.754  -1.763  -2.200  0.00  0.00    -0.079 HD
ENDBRANCH  26  36
ENDBRANCH   1  26
TORSDOF 4
