REMARK  Name = ZINC09738906
REMARK  7 active torsions:
REMARK  status: ('A' for Active; 'I' for Inactive)
REMARK    1  A    between atoms: C_1  and  C_2
REMARK    2  A    between atoms: C_2  and  C_3
REMARK    3  A    between atoms: C_2  and  C_4
REMARK    4  A    between atoms: C_2  and  C_5
REMARK    5  A    between atoms: C_8  and  N_11
REMARK    6  A    between atoms: C_14  and  C_25
REMARK    7  A    between atoms: C_16  and  C_18
REMARK                            x       y       z     vdW  Elec       q    Type
REMARK                         _______ _______ _______ _____ _____    ______ ____
ROOT
ATOM      1  N   UNL     1      -1.127   1.972   0.018  0.00  0.00    -0.245 N 
ATOM      2  C   UNL     1      -0.748   3.303   0.026  0.00  0.00    +0.170 A 
ATOM      3  C   UNL     1       0.659   3.321   0.013  0.00  0.00    +0.117 A 
ATOM      4  C   UNL     1       1.311   4.554   0.013  0.00  0.00    +0.154 A 
ATOM      5  N   UNL     1       0.574   5.665   0.024  0.00  0.00    -0.220 NA
ATOM      6  C   UNL     1      -0.748   5.605   0.035  0.00  0.00    +0.163 A 
ATOM      7  N   UNL     1      -1.404   4.449   0.036  0.00  0.00    -0.208 NA
ATOM      8  N   UNL     1       1.077   2.002   0.003  0.00  0.00    -0.303 N 
ATOM      9  H   UNL     1       1.998   1.698  -0.007  0.00  0.00    +0.171 HD
ATOM     10  C   UNL     1      -0.014   1.212   0.009  0.00  0.00    +0.333 A 
ATOM     11  O   UNL     1       0.002  -0.004   0.002  0.00  0.00    -0.246 OA
ENDROOT
BRANCH   6  12
ATOM     12  C   UNL     1      -1.523   6.869   0.048  0.00  0.00    +0.019 A 
ATOM     13  C   UNL     1      -2.917   6.835   0.055  0.00  0.00    +0.013 A 
ATOM     14  C   UNL     1      -3.633   8.014   0.072  0.00  0.00    +0.021 A 
ATOM     15  C   UNL     1      -2.971   9.229   0.070  0.00  0.00    +0.041 A 
ATOM     16  C   UNL     1      -1.587   9.269   0.058  0.00  0.00    +0.021 A 
ATOM     17  C   UNL     1      -0.861   8.095   0.047  0.00  0.00    +0.013 A 
ATOM     18 CL   UNL     1      -3.878  10.709   0.084  0.00  0.00    -0.084 Cl
ENDBRANCH   6  12
BRANCH   1  22
ATOM     19  C   UNL     1      -5.046   0.554   0.027  0.00  0.00    -0.042 A 
ATOM     20  C   UNL     1      -3.990  -0.338   0.018  0.00  0.00    +0.006 A 
ATOM     21  C   UNL     1      -2.690   0.129   0.015  0.00  0.00    +0.026 A 
ATOM     22  C   UNL     1      -2.444   1.495   0.021  0.00  0.00    +0.053 A 
ATOM     23  C   UNL     1      -3.507   2.388   0.035  0.00  0.00    +0.026 A 
ATOM     24  C   UNL     1      -4.805   1.915   0.032  0.00  0.00    +0.006 A 
BRANCH  19  26
ATOM     25  C   UNL     1      -6.692  -0.816   1.277  0.00  0.00    +0.015 C 
ATOM     26  C   UNL     1      -6.463   0.041   0.030  0.00  0.00    -0.013 C 
ATOM     27  C   UNL     1      -7.434   1.224   0.040  0.00  0.00    +0.015 C 
ATOM     28  C   UNL     1      -6.702  -0.805  -1.222  0.00  0.00    +0.015 C 
ENDBRANCH  19  26
ENDBRANCH   1  22
BRANCH   4  29
ATOM     29  C   UNL     1       2.790   4.628   0.001  0.00  0.00    +0.262 C 
ATOM     30  O   UNL     1       3.450   3.607  -0.010  0.00  0.00    -0.269 OA
ATOM     31  N   UNL     1       3.405   5.827   0.001  0.00  0.00    -0.324 N 
ATOM     32  H   UNL     1       2.879   6.642   0.009  0.00  0.00    +0.145 HD
ATOM     33  H   UNL     1       4.374   5.876  -0.007  0.00  0.00    +0.145 HD
ENDBRANCH   4  29
TORSDOF 4
