REMARK  Name = ZINC21524947
REMARK  5 active torsions:
REMARK  status: ('A' for Active; 'I' for Inactive)
REMARK    1  A    between atoms: C_1  and  N_2
REMARK    2  A    between atoms: C_5  and  C_24
REMARK    3  A    between atoms: C_8  and  C_17
REMARK    4  A    between atoms: C_20  and  O_23
REMARK    5  A    between atoms: N_33  and  C_36
REMARK                            x       y       z     vdW  Elec       q    Type
REMARK                         _______ _______ _______ _____ _____    ______ ____
ROOT
ATOM      1  C   UNL     1       1.140   3.610   0.276  0.00  0.00    +0.154 C 
ATOM      2  N   UNL     1       1.032   2.167   0.509  0.00  0.00    -0.294 N 
ATOM      3  C   UNL     1      -0.175   1.483   0.301  0.00  0.00    +0.082 A 
ATOM      4  C   UNL     1      -0.221   0.021   0.557  0.00  0.00    +0.089 A 
ATOM      5  C   UNL     1      -1.503  -0.384   0.279  0.00  0.00    +0.069 A 
ATOM      6  N   UNL     1      -2.206   0.714  -0.106  0.00  0.00    -0.306 N 
ATOM      7  C   UNL     1      -1.386   1.835  -0.104  0.00  0.00    +0.073 A 
ATOM      8  C   UNL     1      -1.899   3.193  -0.531  0.00  0.00    +0.150 C 
ATOM      9  N   UNL     1      -3.356   3.211  -0.329  0.00  0.00    -0.330 N 
ATOM     10  C   UNL     1      -4.119   2.074  -0.618  0.00  0.00    +0.052 A 
ATOM     11  C   UNL     1      -3.553   0.803  -0.487  0.00  0.00    +0.068 A 
ATOM     12  C   UNL     1      -4.306  -0.326  -0.752  0.00  0.00    +0.028 A 
ATOM     13  C   UNL     1      -5.625  -0.194  -1.148  0.00  0.00    +0.002 A 
ATOM     14  C   UNL     1      -6.186   1.063  -1.287  0.00  0.00    +0.002 A 
ATOM     15  C   UNL     1      -5.438   2.196  -1.023  0.00  0.00    +0.025 A 
ATOM     16  C   UNL     1       0.991  -0.664   1.015  0.00  0.00    +0.266 A 
ATOM     17  O   UNL     1       1.016  -1.859   1.242  0.00  0.00    -0.267 OA
ATOM     18  N   UNL     1       2.084   0.127   1.170  0.00  0.00    -0.263 N 
ATOM     19  C   UNL     1       2.091   1.442   0.932  0.00  0.00    +0.332 A 
ATOM     20  O   UNL     1       3.137   2.035   1.110  0.00  0.00    -0.246 OA
ATOM     21  C   UNL     1       3.329  -0.498   1.625  0.00  0.00    +0.157 C 
ATOM     22  H   UNL     1      -3.847   4.119   0.050  0.00  0.00    +0.147 HD
ENDROOT
BRANCH   5  23
ATOM     23  C   UNL     1      -2.024  -1.761   0.382  0.00  0.00    -0.000 A 
ATOM     24  C   UNL     1      -3.118  -2.037   1.206  0.00  0.00    +0.011 A 
ATOM     25  C   UNL     1      -3.603  -3.325   1.294  0.00  0.00    +0.020 A 
ATOM     26  C   UNL     1      -3.002  -4.345   0.575  0.00  0.00    +0.041 A 
ATOM     27  C   UNL     1      -1.914  -4.079  -0.240  0.00  0.00    +0.020 A 
ATOM     28  C   UNL     1      -1.423  -2.794  -0.340  0.00  0.00    +0.011 A 
ATOM     29 CL   UNL     1      -3.615  -5.965   0.696  0.00  0.00    -0.084 Cl
ENDBRANCH   5  23
BRANCH   8  30
ATOM     30  C   UNL     1      -1.582   3.424  -1.986  0.00  0.00    -0.021 A 
ATOM     31  C   UNL     1      -0.721   4.441  -2.353  0.00  0.00    +0.009 A 
ATOM     32  C   UNL     1      -0.424   4.651  -3.686  0.00  0.00    +0.046 A 
ATOM     33  C   UNL     1      -1.000   3.846  -4.658  0.00  0.00    +0.117 A 
ATOM     34  C   UNL     1      -1.868   2.829  -4.288  0.00  0.00    +0.046 A 
ATOM     35  C   UNL     1      -2.157   2.620  -2.953  0.00  0.00    +0.009 A 
BRANCH  33  36
ATOM     36  O   UNL     1      -0.714   4.053  -5.970  0.00  0.00    -0.507 OA
ATOM     37  H   UNL     1      -1.171   3.414  -6.740  0.00  0.00    +0.292 HD
ENDBRANCH  33  36
ENDBRANCH   8  30
TORSDOF 3
