REMARK  Name = ZINC05371866
REMARK  9 active torsions:
REMARK  status: ('A' for Active; 'I' for Inactive)
REMARK    1  A    between atoms: C_2  and  N_24
REMARK    2  A    between atoms: C_3  and  S_10
REMARK    3  A    between atoms: C_5  and  S_6
REMARK    4  A    between atoms: S_6  and  N_9
REMARK    5  A    between atoms: S_10  and  S_11
REMARK    6  A    between atoms: S_11  and  C_12
REMARK    7  A    between atoms: C_13  and  N_21
REMARK    8  A    between atoms: C_15  and  S_17
REMARK    9  A    between atoms: S_17  and  N_20
REMARK                            x       y       z     vdW  Elec       q    Type
REMARK                         _______ _______ _______ _____ _____    ______ ____
ROOT
ATOM      1  S   UNL     1       0.002  -0.004   0.002  0.00  0.00    -0.042 S 
ENDROOT
BRANCH   1   4
ATOM      2  C   UNL     1      -0.848   3.914   0.030  0.00  0.00    +0.070 A 
ATOM      3  C   UNL     1      -1.117   2.573   0.020  0.00  0.00    +0.149 A 
ATOM      4  C   UNL     1      -0.021   1.708   0.011  0.00  0.00    +0.088 A 
ATOM      5  S   UNL     1       1.349   2.851   0.004  0.00  0.00    -0.059 S 
ATOM      6  C   UNL     1       0.451   4.334   0.020  0.00  0.00    +0.145 A 
BRANCH   6   7
ATOM      7  S   UNL     1       1.067   5.985   0.022  0.00  0.00    +0.062 S 
ATOM      8  O   UNL     1       2.370   5.933  -0.541  0.00  0.00    -0.153 OA
ATOM      9  O   UNL     1       0.037   6.803  -0.514  0.00  0.00    -0.153 OA
BRANCH   7  10
ATOM     10  N   UNL     1       1.253   6.436   1.605  0.00  0.00    -0.203 NA
ATOM     11  H   UNL     1       1.942   7.073   1.850  0.00  0.00    +0.144 HD
ATOM     12  H   UNL     1       0.673   6.062   2.287  0.00  0.00    +0.144 HD
ENDBRANCH   7  10
ENDBRANCH   6   7
BRANCH   3  13
ATOM     13  N   UNL     1      -2.506   2.062   0.024  0.00  0.00    +0.058 N 
ATOM     14  O   UNL     1      -3.518   2.905   0.032  0.00  0.00    -0.126 OA
ATOM     15  O   UNL     1      -2.730   0.764   0.019  0.00  0.00    -0.126 OA
ENDBRANCH   3  13
ENDBRANCH   1   4
BRANCH   1  16
ATOM     16  S   UNL     1       1.887  -0.310  -0.017  0.00  0.00    -0.042 S 
BRANCH  16  17
ATOM     17  C   UNL     1       2.220  -0.222   1.660  0.00  0.00    +0.088 A 
ATOM     18  C   UNL     1       3.438  -0.368   2.325  0.00  0.00    +0.149 A 
ATOM     19  C   UNL     1       3.421  -0.245   3.687  0.00  0.00    +0.070 A 
ATOM     20  C   UNL     1       2.236  -0.001   4.319  0.00  0.00    +0.145 A 
ATOM     21  S   UNL     1       1.097   0.074   3.015  0.00  0.00    -0.059 S 
BRANCH  20  22
ATOM     22  S   UNL     1       1.937   0.193   6.045  0.00  0.00    +0.062 S 
ATOM     23  O   UNL     1       0.570  -0.128   6.259  0.00  0.00    -0.153 OA
ATOM     24  O   UNL     1       2.992  -0.480   6.718  0.00  0.00    -0.153 OA
BRANCH  22  25
ATOM     25  N   UNL     1       2.105   1.803   6.393  0.00  0.00    -0.203 NA
ATOM     26  H   UNL     1       1.593   2.199   7.116  0.00  0.00    +0.144 HD
ATOM     27  H   UNL     1       2.715   2.351   5.874  0.00  0.00    +0.144 HD
ENDBRANCH  22  25
ENDBRANCH  20  22
BRANCH  18  28
ATOM     28  N   UNL     1       4.693  -0.640   1.588  0.00  0.00    +0.058 N 
ATOM     29  O   UNL     1       5.827  -0.773   2.245  0.00  0.00    -0.126 OA
ATOM     30  O   UNL     1       4.676  -0.748   0.275  0.00  0.00    -0.126 OA
ENDBRANCH  18  28
ENDBRANCH  16  17
ENDBRANCH   1  16
TORSDOF 9
