REMARK  Name = ZINC49409657
REMARK  9 active torsions:
REMARK  status: ('A' for Active; 'I' for Inactive)
REMARK    1  A    between atoms: C_1  and  N_2
REMARK    2  A    between atoms: N_2  and  C_3
REMARK    3  A    between atoms: N_2  and  C_4
REMARK    4  A    between atoms: C_4  and  C_6
REMARK    5  A    between atoms: C_4  and  C_22
REMARK    6  A    between atoms: C_6  and  N_7
REMARK    7  A    between atoms: C_8  and  C_10
REMARK    8  A    between atoms: N_12  and  C_13
REMARK    9  A    between atoms: C_18  and  N_19
REMARK                            x       y       z     vdW  Elec       q    Type
REMARK                         _______ _______ _______ _____ _____    ______ ____
ROOT
ATOM      1  N   UNL     1      -1.646   1.261  -1.478  0.00  0.00    -0.309 N 
ATOM      2  C   UNL     1      -2.036   1.897  -2.600  0.00  0.00    +0.299 C 
ATOM      3  O   UNL     1      -2.613   1.285  -3.475  0.00  0.00    -0.265 OA
ATOM      4  H   UNL     1      -1.185   1.750  -0.779  0.00  0.00    +0.149 HD
ENDROOT
BRANCH   2   5
ATOM      5  C   UNL     1      -1.759   3.355  -2.767  0.00  0.00    +0.303 C 
ATOM      6  O   UNL     1      -1.182   3.967  -1.892  0.00  0.00    -0.265 OA
ATOM      7  N   UNL     1      -2.150   3.991  -3.889  0.00  0.00    -0.276 N 
ATOM      8  H   UNL     1      -2.676   3.521  -4.555  0.00  0.00    +0.155 HD
BRANCH   7   9
ATOM      9  C   UNL     1      -1.797   5.327  -4.094  0.00  0.00    +0.064 A 
ATOM     10  C   UNL     1      -0.574   5.802  -3.638  0.00  0.00    +0.025 A 
ATOM     11  C   UNL     1      -0.229   7.124  -3.842  0.00  0.00    +0.002 A 
ATOM     12  C   UNL     1      -1.099   7.974  -4.499  0.00  0.00    +0.002 A 
ATOM     13  C   UNL     1      -2.318   7.505  -4.954  0.00  0.00    +0.034 A 
ATOM     14  C   UNL     1      -2.667   6.183  -4.758  0.00  0.00    +0.147 A 
BRANCH  14  15
ATOM     15  N   UNL     1      -3.969   5.680  -5.250  0.00  0.00    +0.058 N 
ATOM     16  O   UNL     1      -4.680   6.395  -5.918  0.00  0.00    -0.126 OA
ATOM     17  O   UNL     1      -4.322   4.555  -4.984  0.00  0.00    -0.126 OA
ENDBRANCH  14  15
ENDBRANCH   7   9
ENDBRANCH   2   5
BRANCH   1  18
ATOM     18  C   UNL     1      -1.918  -0.170  -1.314  0.00  0.00    +0.094 C 
BRANCH  18  19
ATOM     19  C   UNL     1      -1.268  -0.668  -0.022  0.00  0.00    -0.020 C 
BRANCH  19  20
ATOM     20  C   UNL     1       0.232  -0.588  -0.150  0.00  0.00    -0.041 A 
ATOM     21  C   UNL     1       0.919   0.466   0.421  0.00  0.00    +0.003 A 
ATOM     22  C   UNL     1       2.295   0.540   0.303  0.00  0.00    +0.000 A 
ATOM     23  C   UNL     1       2.983  -0.441  -0.386  0.00  0.00    +0.001 A 
ATOM     24  C   UNL     1       2.297  -1.496  -0.958  0.00  0.00    +0.020 A 
ATOM     25  C   UNL     1       0.921  -1.573  -0.836  0.00  0.00    +0.043 A 
ATOM     26 CL   UNL     1       0.058  -2.900  -1.548  0.00  0.00    -0.083 Cl
ENDBRANCH  19  20
BRANCH  19  28
ATOM     27  C   UNL     1      -3.176   0.165   1.170  0.00  0.00    -0.096 C 
ATOM     28  N   UNL     1      -1.708   0.170   1.102  0.00  0.00    +0.382 N 
ATOM     29  C   UNL     1      -1.158  -0.363   2.355  0.00  0.00    -0.096 C 
ATOM     30  H   UNL     1      -1.381   1.115   0.966  0.00  0.00    -0.082 HD
ENDBRANCH  19  28
ENDBRANCH  18  19
ENDBRANCH   1  18
TORSDOF 7
