REMARK  Name = ZINC38989781
REMARK  6 active torsions:
REMARK  status: ('A' for Active; 'I' for Inactive)
REMARK    1  A    between atoms: C_1  and  C_2
REMARK    2  A    between atoms: C_2  and  O_3
REMARK    3  A    between atoms: O_3  and  C_4
REMARK    4  A    between atoms: C_7  and  C_10
REMARK    5  A    between atoms: C_26  and  C_28
REMARK    6  A    between atoms: C_26  and  C_29
REMARK                            x       y       z     vdW  Elec       q    Type
REMARK                         _______ _______ _______ _____ _____    ______ ____
ROOT
ATOM      1  C   UNL     1       1.144  -6.059   1.764  0.00  0.00    +0.074 C 
ATOM      2  C   UNL     1       2.624  -6.449   1.804  0.00  0.00    +0.159 C 
ATOM      3  C   UNL     1       3.199  -6.092   3.151  0.00  0.00    +0.146 C 
ATOM      4  N   UNL     1       4.435  -5.644   3.239  0.00  0.00    -0.195 NA
ATOM      5  C   UNL     1       5.191  -5.539   2.113  0.00  0.00    +0.247 C 
ATOM      6  N   UNL     1       4.576  -5.279   0.920  0.00  0.00    -0.175 NA
ATOM      7  C   UNL     1       3.351  -5.695   0.718  0.00  0.00    +0.261 C 
ATOM      8  O   UNL     1       2.733  -5.441  -0.450  0.00  0.00    -0.270 OA
ATOM      9  N   UNL     1       6.494  -5.684   2.172  0.00  0.00    -0.265 NA
ATOM     10  N   UNL     1       2.478  -6.254   4.257  0.00  0.00    -0.236 NA
ATOM     11  C   UNL     1       1.192  -6.533   4.238  0.00  0.00    +0.051 C 
ATOM     12  C   UNL     1       0.471  -6.481   3.048  0.00  0.00    +0.025 C 
ATOM     13  C   UNL     1      -0.836  -6.825   3.016  0.00  0.00    +0.162 C 
ATOM     14  C   UNL     1      -1.587  -7.222   4.255  0.00  0.00    +0.086 C 
ATOM     15  C   UNL     1      -0.621  -7.826   5.277  0.00  0.00    -0.023 C 
ATOM     16  C   UNL     1       0.489  -6.855   5.535  0.00  0.00    +0.062 C 
ATOM     17  C   UNL     1      -0.029  -9.122   4.720  0.00  0.00    +0.011 C 
ATOM     18  C   UNL     1      -1.369  -8.118   6.580  0.00  0.00    +0.011 C 
ATOM     19  O   UNL     1      -1.485  -6.810   1.837  0.00  0.00    -0.292 OA
ATOM     20  H   UNL     1       6.924  -5.868   3.022  0.00  0.00    +0.190 HD
ENDROOT
BRANCH   1  24
ATOM     21  C   UNL     1       0.802  -1.824   1.306  0.00  0.00    +0.121 A 
ATOM     22  C   UNL     1       0.260  -2.673   0.351  0.00  0.00    +0.046 A 
ATOM     23  C   UNL     1       0.372  -4.041   0.502  0.00  0.00    +0.008 A 
ATOM     24  C   UNL     1       1.024  -4.566   1.603  0.00  0.00    -0.038 A 
ATOM     25  C   UNL     1       1.565  -3.722   2.555  0.00  0.00    +0.008 A 
ATOM     26  C   UNL     1       1.460  -2.353   2.406  0.00  0.00    +0.046 A 
BRANCH  21  27
ATOM     27  O   UNL     1       0.693  -0.477   1.160  0.00  0.00    -0.492 OA
BRANCH  27  29
ATOM     28  C   UNL     1      -0.019   1.526   0.010  0.00  0.00    +0.048 C 
ATOM     29  C   UNL     1       0.002  -0.004   0.002  0.00  0.00    +0.225 C 
ENDBRANCH  27  29
ENDBRANCH  21  27
ENDBRANCH   1  24
TORSDOF 3
