REMARK  Name = ZINC00940696
REMARK  4 active torsions:
REMARK  status: ('A' for Active; 'I' for Inactive)
REMARK    1  A    between atoms: C_1  and  C_2
REMARK    2  A    between atoms: C_3  and  C_26
REMARK    3  A    between atoms: C_4  and  C_19
REMARK    4  A    between atoms: C_10  and  C_12
REMARK                            x       y       z     vdW  Elec       q    Type
REMARK                         _______ _______ _______ _____ _____    ______ ____
ROOT
ATOM      1  C   UNL     1       0.456   1.364  -0.001  0.00  0.00    +0.066 C 
ATOM      2  C   UNL     1       0.264  -0.131   0.025  0.00  0.00    +0.052 C 
ATOM      3  C   UNL     1      -1.005  -0.637   0.005  0.00  0.00    +0.061 C 
ATOM      4  C   UNL     1      -1.150  -2.148   0.033  0.00  0.00    +0.164 C 
ATOM      5  N   UNL     1       0.100  -2.915   0.078  0.00  0.00    -0.207 N 
ATOM      6  C   UNL     1       1.297  -2.238   0.092  0.00  0.00    +0.237 C 
ATOM      7  N   UNL     1       1.331  -0.914   0.061  0.00  0.00    -0.218 NA
ATOM      8  N   UNL     1       2.277  -3.154   0.134  0.00  0.00    -0.196 NA
ATOM      9  C   UNL     1       1.767  -4.370   0.147  0.00  0.00    +0.147 C 
ATOM     10  N   UNL     1       0.401  -4.279   0.113  0.00  0.00    -0.244 N 
ATOM     11  H   UNL     1      -0.231  -5.015   0.113  0.00  0.00    +0.172 HD
ENDROOT
BRANCH   9  12
ATOM     12  C   UNL     1       2.543  -5.624   0.191  0.00  0.00    +0.035 A 
ATOM     13  C   UNL     1       1.885  -6.857   0.194  0.00  0.00    +0.013 A 
ATOM     14  C   UNL     1       2.616  -8.025   0.235  0.00  0.00    +0.001 A 
ATOM     15  C   UNL     1       3.999  -7.980   0.272  0.00  0.00    +0.001 A 
ATOM     16  C   UNL     1       4.659  -6.764   0.270  0.00  0.00    +0.021 A 
ATOM     17  C   UNL     1       3.940  -5.585   0.223  0.00  0.00    +0.051 A 
ATOM     18 CL   UNL     1       4.769  -4.060   0.212  0.00  0.00    -0.083 Cl
ENDBRANCH   9  12
BRANCH   4  19
ATOM     19  C   UNL     1      -1.968  -2.520   1.242  0.00  0.00    -0.020 A 
ATOM     20  C   UNL     1      -1.436  -2.372   2.509  0.00  0.00    +0.006 A 
ATOM     21  C   UNL     1      -2.186  -2.712   3.619  0.00  0.00    +0.001 A 
ATOM     22  C   UNL     1      -3.469  -3.201   3.462  0.00  0.00    +0.015 A 
ATOM     23  C   UNL     1      -4.003  -3.350   2.195  0.00  0.00    +0.018 A 
ATOM     24  C   UNL     1      -3.253  -3.004   1.085  0.00  0.00    +0.021 A 
ATOM     25 BR   UNL     1      -5.758  -4.019   1.980  0.00  0.00    -0.050 Br
ENDBRANCH   4  19
BRANCH   3  26
ATOM     26  C   UNL     1      -2.130   0.207  -0.038  0.00  0.00    +0.241 C 
ATOM     27  O   UNL     1      -1.990   1.414   0.056  0.00  0.00    -0.271 OA
ATOM     28  N   UNL     1      -3.362  -0.320  -0.184  0.00  0.00    -0.325 N 
ATOM     29  H   UNL     1      -3.480  -1.282  -0.190  0.00  0.00    +0.145 HD
ATOM     30  H   UNL     1      -4.130   0.264  -0.284  0.00  0.00    +0.145 HD
ENDBRANCH   3  26
TORSDOF 3
