REMARK  Name = ZINC49090042
REMARK  8 active torsions:
REMARK  status: ('A' for Active; 'I' for Inactive)
REMARK    1  A    between atoms: C_1  and  C_2
REMARK    2  A    between atoms: C_2  and  C_4
REMARK    3  A    between atoms: C_2  and  C_14
REMARK    4  A    between atoms: C_4  and  C_5
REMARK    5  A    between atoms: C_14  and  N_15
REMARK    6  A    between atoms: C_25  and  C_28
REMARK    7  A    between atoms: N_33  and  C_36
REMARK    8  A    between atoms: N_42  and  C_43
REMARK                            x       y       z     vdW  Elec       q    Type
REMARK                         _______ _______ _______ _____ _____    ______ ____
ROOT
ATOM      1  N   UNL     1       2.301  -0.223   1.198  0.00  0.00    +0.381 N 
ATOM      2  C   UNL     1       3.114  -0.996   2.145  0.00  0.00    -0.075 C 
ATOM      3  C   UNL     1       4.596  -0.716   1.894  0.00  0.00    -0.024 C 
ATOM      4  C   UNL     1       5.450  -1.527   2.868  0.00  0.00    +0.002 C 
ATOM      5  C   UNL     1       5.115  -1.123   4.305  0.00  0.00    +0.000 C 
ATOM      6  C   UNL     1       5.403   0.368   4.492  0.00  0.00    +0.000 C 
ATOM      7  C   UNL     1       4.539   1.178   3.524  0.00  0.00    +0.004 C 
ATOM      8  C   UNL     1       4.870   0.777   2.093  0.00  0.00    +0.000 C 
ATOM      9  C   UNL     1       3.968   1.574   1.143  0.00  0.00    +0.062 C 
ATOM     10  C   UNL     1       2.507   1.214   1.419  0.00  0.00    -0.066 C 
ATOM     11  H   UNL     1       2.571  -0.459   0.255  0.00  0.00    -0.082 HD
ENDROOT
BRANCH   9  12
ATOM     12  C   UNL     1       4.177   3.049   1.370  0.00  0.00    +0.217 C 
ATOM     13  O   UNL     1       3.416   3.666   2.086  0.00  0.00    -0.275 OA
ATOM     14  N   UNL     1       5.208   3.683   0.778  0.00  0.00    -0.298 N 
ATOM     15  C   UNL     1       6.064   2.979  -0.187  0.00  0.00    +0.126 C 
ATOM     16  C   UNL     1       6.081   3.773  -1.499  0.00  0.00    +0.125 C 
ATOM     17  N   UNL     1       6.369   5.181  -1.192  0.00  0.00    -0.313 N 
ATOM     18  C   UNL     1       5.513   5.886  -0.227  0.00  0.00    +0.125 C 
ATOM     19  C   UNL     1       5.493   5.093   1.081  0.00  0.00    +0.126 C 
BRANCH  17  20
ATOM     20  C   UNL     1       7.422   5.828  -1.796  0.00  0.00    +0.104 A 
ATOM     21  C   UNL     1       8.688   5.724  -1.261  0.00  0.00    +0.042 A 
ATOM     22  C   UNL     1       9.753   6.380  -1.875  0.00  0.00    +0.009 A 
ATOM     23  C   UNL     1       9.520   7.125  -3.012  0.00  0.00    +0.070 A 
ATOM     24  C   UNL     1       8.222   7.210  -3.528  0.00  0.00    +0.252 A 
ATOM     25  O   UNL     1       8.009   7.868  -4.534  0.00  0.00    -0.268 OA
ATOM     26  N   UNL     1       7.207   6.564  -2.923  0.00  0.00    -0.300 N 
ATOM     27  C   UNL     1       5.856   6.657  -3.480  0.00  0.00    +0.154 C 
ENDBRANCH  17  20
ENDBRANCH   9  12
BRANCH   1  28
ATOM     28  C   UNL     1       0.882  -0.547   1.395  0.00  0.00    -0.075 C 
BRANCH  28  30
ATOM     29  C   UNL     1       0.933  -2.207  -0.472  0.00  0.00    +0.006 C 
ATOM     30  C   UNL     1       0.636  -2.009   1.016  0.00  0.00    -0.026 C 
BRANCH  30  31
ATOM     31  C   UNL     1      -0.824  -2.370   1.297  0.00  0.00    +0.036 C 
BRANCH  31  32
ATOM     32  C   UNL     1      -1.036  -3.840   1.040  0.00  0.00    -0.043 A 
ATOM     33  C   UNL     1      -1.407  -4.273  -0.220  0.00  0.00    +0.007 A 
ATOM     34  C   UNL     1      -1.602  -5.620  -0.461  0.00  0.00    +0.050 A 
ATOM     35  C   UNL     1      -1.428  -6.540   0.561  0.00  0.00    +0.166 A 
ATOM     36  C   UNL     1      -1.054  -6.103   1.829  0.00  0.00    +0.166 A 
ATOM     37  C   UNL     1      -0.855  -4.752   2.062  0.00  0.00    +0.053 A 
ATOM     38  O   UNL     1      -0.948  -7.189   2.651  0.00  0.00    -0.453 OA
ATOM     39  C   UNL     1      -1.655  -8.249   1.980  0.00  0.00    +0.466 C 
ATOM     40  O   UNL     1      -1.555  -7.899   0.587  0.00  0.00    -0.453 OA
ENDBRANCH  31  32
ENDBRANCH  30  31
ENDBRANCH  28  30
ENDBRANCH   1  28
TORSDOF 6
