REMARK  Name = ZINC02243848
REMARK  5 active torsions:
REMARK  status: ('A' for Active; 'I' for Inactive)
REMARK    1  A    between atoms: C_1  and  C_2
REMARK    2  A    between atoms: C_1  and  S_10
REMARK    3  A    between atoms: C_2  and  S_3
REMARK    4  A    between atoms: S_3  and  C_4
REMARK    5  A    between atoms: S_10  and  C_11
REMARK                            x       y       z     vdW  Elec       q    Type
REMARK                         _______ _______ _______ _____ _____    ______ ____
ROOT
ATOM      1  C   UNL     1      -0.013   1.086   0.008  0.00  0.00    +0.087 C 
ENDROOT
BRANCH   1   2
ATOM      2  C   UNL     1      -0.753   1.593  -1.232  0.00  0.00    +0.087 C 
BRANCH   2   3
ATOM      3  S   UNL     1       0.095   1.009  -2.721  0.00  0.00    -0.096 S 
BRANCH   3   4
ATOM      4  C   UNL     1      -0.940   1.718  -3.959  0.00  0.00    +0.159 A 
ATOM      5  N   UNL     1      -2.015   2.449  -3.814  0.00  0.00    -0.134 NA
ATOM      6  N   UNL     1      -2.692   2.921  -4.915  0.00  0.00    -0.133 NA
ATOM      7  C   UNL     1      -2.229   2.601  -6.150  0.00  0.00    +0.170 A 
ATOM      8  S   UNL     1      -2.849   3.026  -7.688  0.00  0.00    -0.021 SA
ATOM      9  S   UNL     1      -0.796   1.617  -5.736  0.00  0.00    -0.032 S 
ENDBRANCH   3   4
ENDBRANCH   2   3
ENDBRANCH   1   2
BRANCH   1  10
ATOM     10  S   UNL     1      -0.860   1.669   1.497  0.00  0.00    -0.096 S 
BRANCH  10  11
ATOM     11  C   UNL     1       0.174   0.961   2.735  0.00  0.00    +0.159 A 
ATOM     12  N   UNL     1       1.243   0.220   2.590  0.00  0.00    -0.134 NA
ATOM     13  N   UNL     1       1.927  -0.242   3.692  0.00  0.00    -0.133 NA
ATOM     14  C   UNL     1       1.463   0.078   4.926  0.00  0.00    +0.170 A 
ATOM     15  S   UNL     1       2.084  -0.346   6.464  0.00  0.00    -0.021 SA
ATOM     16  S   UNL     1       0.031   1.061   4.512  0.00  0.00    -0.032 S 
ENDBRANCH  10  11
ENDBRANCH   1  10
TORSDOF 5
