REMARK  Name = ZINC08160178
REMARK  5 active torsions:
REMARK  status: ('A' for Active; 'I' for Inactive)
REMARK    1  A    between atoms: C_1  and  C_2
REMARK    2  A    between atoms: C_5  and  C_7
REMARK    3  A    between atoms: N_18  and  C_19
REMARK    4  A    between atoms: C_19  and  C_21
REMARK    5  A    between atoms: C_19  and  C_22
REMARK                            x       y       z     vdW  Elec       q    Type
REMARK                         _______ _______ _______ _____ _____    ______ ____
ROOT
ATOM      1  C   UNL     1      -3.601   2.718   3.050  0.00  0.00    +0.229 C 
ATOM      2  N   UNL     1      -3.593   2.461   4.495  0.00  0.00    -0.319 N 
ATOM      3  C   UNL     1      -3.684   1.147   4.941  0.00  0.00    +0.041 A 
ATOM      4  C   UNL     1      -3.122   0.745   6.141  0.00  0.00    +0.024 A 
ATOM      5  C   UNL     1      -3.248  -0.570   6.548  0.00  0.00    +0.002 A 
ATOM      6  C   UNL     1      -3.932  -1.487   5.766  0.00  0.00    +0.001 A 
ATOM      7  C   UNL     1      -4.494  -1.103   4.566  0.00  0.00    +0.015 A 
ATOM      8  C   UNL     1      -4.371   0.218   4.141  0.00  0.00    +0.058 A 
ATOM      9  C   UNL     1      -4.931   0.671   2.856  0.00  0.00    +0.251 C 
ATOM     10  O   UNL     1      -5.668  -0.056   2.218  0.00  0.00    -0.270 OA
ATOM     11  N   UNL     1      -4.620   1.899   2.394  0.00  0.00    -0.265 N 
ATOM     12  H   UNL     1      -3.525   3.194   5.126  0.00  0.00    +0.148 HD
ENDROOT
BRANCH   1  17
ATOM     13  C   UNL     1      -0.019   1.271  -0.193  0.00  0.00    +0.086 C 
ATOM     14  C   UNL     1      -0.690   1.756   1.066  0.00  0.00    +0.102 A 
ATOM     15  C   UNL     1      -0.070   2.069   2.218  0.00  0.00    +0.045 A 
ATOM     16  C   UNL     1      -1.074   2.475   3.127  0.00  0.00    +0.048 A 
ATOM     17  C   UNL     1      -2.248   2.385   2.476  0.00  0.00    +0.144 A 
ATOM     18  O   UNL     1      -2.009   1.955   1.227  0.00  0.00    -0.461 OA
ENDBRANCH   1  17
BRANCH  11  19
ATOM     19  C   UNL     1      -5.314   2.421   1.214  0.00  0.00    +0.106 C 
ATOM     20  C   UNL     1      -4.288   2.791   0.141  0.00  0.00    +0.033 C 
BRANCH  19  21
ATOM     21  C   UNL     1      -6.103   3.647   1.598  0.00  0.00    -0.027 A 
ATOM     22  C   UNL     1      -6.681   3.733   2.851  0.00  0.00    +0.005 A 
ATOM     23  C   UNL     1      -7.401   4.858   3.204  0.00  0.00    +0.000 A 
ATOM     24  C   UNL     1      -7.552   5.894   2.301  0.00  0.00    +0.000 A 
ATOM     25  C   UNL     1      -6.979   5.806   1.046  0.00  0.00    +0.000 A 
ATOM     26  C   UNL     1      -6.255   4.682   0.694  0.00  0.00    +0.005 A 
ENDBRANCH  19  21
ENDBRANCH  11  19
TORSDOF 3
