REMARK  Name = ZINC43218808
REMARK  9 active torsions:
REMARK  status: ('A' for Active; 'I' for Inactive)
REMARK    1  A    between atoms: C_1  and  C_2
REMARK    2  A    between atoms: C_2  and  C_3
REMARK    3  A    between atoms: C_3  and  O_4
REMARK    4  A    between atoms: O_4  and  C_5
REMARK    5  A    between atoms: C_8  and  C_11
REMARK    6  A    between atoms: N_19  and  C_22
REMARK    7  A    between atoms: C_26  and  N_28
REMARK    8  A    between atoms: C_31  and  C_33
REMARK    9  A    between atoms: C_31  and  C_39
REMARK                            x       y       z     vdW  Elec       q    Type
REMARK                         _______ _______ _______ _____ _____    ______ ____
ROOT
ATOM      1  C   UNL     1      -6.397  -4.588   0.038  0.00  0.00    -0.026 C 
ATOM      2  C   UNL     1      -6.742  -5.108  -1.354  0.00  0.00    +0.078 C 
ATOM      3  C   UNL     1      -7.845  -6.141  -0.909  0.00  0.00    +0.090 C 
ATOM      4  C   UNL     1      -8.535  -6.395  -2.151  0.00  0.00    +0.229 C 
ATOM      5  O   UNL     1      -9.048  -7.433  -2.512  0.00  0.00    -0.275 OA
ATOM      6  N   UNL     1      -8.485  -5.205  -2.834  0.00  0.00    -0.210 N 
ATOM      7  C   UNL     1      -7.591  -4.307  -2.289  0.00  0.00    +0.229 C 
ATOM      8  O   UNL     1      -7.509  -3.118  -2.511  0.00  0.00    -0.275 OA
ATOM      9  C   UNL     1      -7.206  -6.871   0.193  0.00  0.00    +0.074 C 
ATOM     10  N   UNL     1      -6.332  -5.837   0.865  0.00  0.00    +0.398 N 
ATOM     11  H   UNL     1      -5.382  -6.175   0.901  0.00  0.00    -0.083 HD
ATOM     12  H   UNL     1      -6.666  -5.647   1.798  0.00  0.00    -0.083 HD
ENDROOT
BRANCH   1  16
ATOM     13  C   UNL     1      -2.616  -2.596   0.013  0.00  0.00    +0.121 A 
ATOM     14  C   UNL     1      -3.791  -1.857   0.022  0.00  0.00    +0.046 A 
ATOM     15  C   UNL     1      -5.012  -2.504   0.030  0.00  0.00    +0.005 A 
ATOM     16  C   UNL     1      -5.064  -3.885   0.029  0.00  0.00    -0.060 A 
ATOM     17  C   UNL     1      -3.895  -4.624   0.020  0.00  0.00    +0.005 A 
ATOM     18  C   UNL     1      -2.671  -3.982   0.006  0.00  0.00    +0.046 A 
BRANCH  13  19
ATOM     19  O   UNL     1      -1.414  -1.962   0.005  0.00  0.00    -0.492 OA
BRANCH  19  20
ATOM     20  C   UNL     1      -1.433  -0.534   0.013  0.00  0.00    +0.229 C 
BRANCH  20  22
ATOM     21  C   UNL     1      -0.019   1.526   0.010  0.00  0.00    +0.007 C 
ATOM     22  C   UNL     1       0.002  -0.004   0.002  0.00  0.00    +0.038 C 
ENDBRANCH  20  22
ENDBRANCH  19  20
ENDBRANCH  13  19
ENDBRANCH   1  16
BRANCH   6  23
ATOM     23  C   UNL     1      -9.252  -4.933  -3.975  0.00  0.00    +0.046 A 
ATOM     24  C   UNL     1     -10.127  -5.891  -4.471  0.00  0.00    +0.024 A 
ATOM     25  C   UNL     1     -10.881  -5.620  -5.596  0.00  0.00    +0.004 A 
ATOM     26  C   UNL     1     -10.766  -4.395  -6.228  0.00  0.00    +0.033 A 
ATOM     27  C   UNL     1      -9.896  -3.439  -5.737  0.00  0.00    +0.128 A 
ATOM     28  C   UNL     1      -9.143  -3.703  -4.609  0.00  0.00    +0.056 A 
BRANCH  27  29
ATOM     29  N   UNL     1      -9.775  -2.130  -6.418  0.00  0.00    +0.056 N 
ATOM     30  O   UNL     1     -10.438  -1.897  -7.402  0.00  0.00    -0.126 OA
ATOM     31  O   UNL     1      -9.015  -1.294  -5.989  0.00  0.00    -0.126 OA
ENDBRANCH  27  29
ENDBRANCH   6  23
BRANCH   9  32
ATOM     32  C   UNL     1      -8.244  -7.370   1.164  0.00  0.00    -0.047 A 
ATOM     33  C   UNL     1      -9.511  -7.693   0.716  0.00  0.00    +0.003 A 
ATOM     34  C   UNL     1     -10.464  -8.151   1.607  0.00  0.00    +0.000 A 
ATOM     35  C   UNL     1     -10.149  -8.288   2.946  0.00  0.00    +0.000 A 
ATOM     36  C   UNL     1      -8.881  -7.966   3.394  0.00  0.00    +0.000 A 
ATOM     37  C   UNL     1      -7.927  -7.512   2.502  0.00  0.00    +0.003 A 
ENDBRANCH   9  32
BRANCH   9  38
ATOM     38  C   UNL     1      -6.388  -8.019  -0.341  0.00  0.00    +0.350 C 
ATOM     39  O   UNL     1      -5.189  -8.066  -0.124  0.00  0.00    -0.248 OA
ATOM     40  O   UNL     1      -6.926  -8.901  -0.988  0.00  0.00    -0.248 OA
ENDBRANCH   9  38
TORSDOF 8
