REMARK  Name = ZINC40587494
REMARK  8 active torsions:
REMARK  status: ('A' for Active; 'I' for Inactive)
REMARK    1  A    between atoms: C_1  and  C_2
REMARK    2  A    between atoms: C_4  and  C_21
REMARK    3  A    between atoms: C_7  and  N_8
REMARK    4  A    between atoms: C_10  and  N_17
REMARK    5  A    between atoms: C_11  and  N_15
REMARK    6  A    between atoms: N_15  and  N_16
REMARK    7  A    between atoms: C_21  and  C_23
REMARK    8  A    between atoms: C_21  and  C_25
REMARK                            x       y       z     vdW  Elec       q    Type
REMARK                         _______ _______ _______ _____ _____    ______ ____
ROOT
ATOM      1  C   UNL     1       0.339   1.249   0.521  0.00  0.00    +0.045 C 
ATOM      2  C   UNL     1       0.685  -0.193   0.253  0.00  0.00    -0.029 A 
ATOM      3  C   UNL     1       0.788  -0.649  -1.047  0.00  0.00    +0.011 A 
ATOM      4  C   UNL     1       1.106  -1.971  -1.295  0.00  0.00    -0.008 A 
ATOM      5  C   UNL     1       1.323  -2.843  -0.241  0.00  0.00    +0.047 A 
ATOM      6  C   UNL     1       1.222  -2.393   1.061  0.00  0.00    +0.043 A 
ATOM      7  C   UNL     1       0.908  -1.063   1.312  0.00  0.00    +0.037 A 
ATOM      8 CL   UNL     1       1.722  -4.502  -0.557  0.00  0.00    -0.083 Cl
ENDROOT
BRANCH   7   9
ATOM      9  N   UNL     1       0.810  -0.603   2.629  0.00  0.00    -0.297 N 
ATOM     10  C   UNL     1       0.485  -1.485   3.649  0.00  0.00    +0.159 A 
ATOM     11  C   UNL     1       0.514  -1.070   4.977  0.00  0.00    +0.207 A 
ATOM     12  C   UNL     1       0.180  -1.992   5.964  0.00  0.00    +0.168 A 
ATOM     13  N   UNL     1      -0.153  -3.231   5.604  0.00  0.00    -0.217 NA
ATOM     14  C   UNL     1      -0.168  -3.586   4.336  0.00  0.00    +0.225 A 
ATOM     15  N   UNL     1       0.136  -2.740   3.372  0.00  0.00    -0.218 NA
ATOM     16  H   UNL     1       0.970   0.332   2.829  0.00  0.00    +0.154 HD
BRANCH  11  17
ATOM     17  N   UNL     1       0.890   0.317   5.331  0.00  0.00    +0.063 N 
ATOM     18  O   UNL     1       0.041   1.174   5.406  0.00  0.00    -0.126 OA
ATOM     19  O   UNL     1       2.048   0.594   5.545  0.00  0.00    -0.126 OA
ENDBRANCH  11  17
BRANCH  12  20
ATOM     20  N   UNL     1       0.193  -1.628   7.301  0.00  0.00    -0.266 N 
ATOM     21  H   UNL     1       0.437  -0.724   7.555  0.00  0.00    +0.168 HD
BRANCH  20  22
ATOM     22  N   UNL     1      -0.137  -2.542   8.261  0.00  0.00    -0.255 NA
ATOM     23  H   UNL     1      -0.082  -2.134   9.183  0.00  0.00    +0.140 HD
ATOM     24  H   UNL     1      -1.052  -2.930   8.092  0.00  0.00    +0.140 HD
ENDBRANCH  20  22
ENDBRANCH  12  20
ENDBRANCH   7   9
BRANCH   4  25
ATOM     25  C   UNL     1       1.217  -2.465  -2.714  0.00  0.00    +0.153 C 
BRANCH  25  26
ATOM     26  C   UNL     1       2.361  -1.764  -3.402  0.00  0.00    -0.026 A 
ATOM     27  C   UNL     1       2.220  -0.451  -3.813  0.00  0.00    +0.006 A 
ATOM     28  C   UNL     1       3.268   0.192  -4.444  0.00  0.00    +0.020 A 
ATOM     29  C   UNL     1       4.458  -0.478  -4.664  0.00  0.00    +0.041 A 
ATOM     30  C   UNL     1       4.598  -1.791  -4.252  0.00  0.00    +0.020 A 
ATOM     31  C   UNL     1       3.552  -2.432  -3.617  0.00  0.00    +0.006 A 
ATOM     32 CL   UNL     1       5.775   0.330  -5.456  0.00  0.00    -0.084 Cl
ENDBRANCH  25  26
BRANCH  25  33
ATOM     33  C   UNL     1      -0.036  -2.180  -3.432  0.00  0.00    +0.075 C 
ATOM     34  N   UNL     1      -1.003  -1.960  -3.986  0.00  0.00    -0.196 NA
ENDBRANCH  25  33
ENDBRANCH   4  25
TORSDOF 7
