REMARK  Name = ZINC12859051
REMARK  10 active torsions:
REMARK  status: ('A' for Active; 'I' for Inactive)
REMARK    1  A    between atoms: C_1  and  C_2
REMARK    2  A    between atoms: C_2  and  C_4
REMARK    3  A    between atoms: C_10  and  C_44
REMARK    4  A    between atoms: N_22  and  O_23
REMARK    5  A    between atoms: O_23  and  C_24
REMARK    6  A    between atoms: C_24  and  C_25
REMARK    7  A    between atoms: N_27  and  C_28
REMARK    8  A    between atoms: C_28  and  C_29
REMARK    9  A    between atoms: C_29  and  C_30
REMARK   10  A    between atoms: C_42  and  C_43
REMARK                            x       y       z     vdW  Elec       q    Type
REMARK                         _______ _______ _______ _____ _____    ______ ____
ROOT
ATOM      1  C   UNL     1       6.988  -0.807   0.250  0.00  0.00    +0.061 C 
ATOM      2  C   UNL     1       6.963  -1.291   1.713  0.00  0.00    +0.012 C 
ATOM      3  C   UNL     1       6.837  -0.017   2.572  0.00  0.00    +0.005 C 
ATOM      4  C   UNL     1       6.055   0.984   1.681  0.00  0.00    -0.001 C 
ATOM      5  C   UNL     1       6.471   0.630   0.251  0.00  0.00    -0.019 C 
ATOM      6  C   UNL     1       5.458   0.956  -0.814  0.00  0.00    +0.008 C 
ATOM      7  C   UNL     1       4.015   0.663  -0.415  0.00  0.00    +0.005 C 
ATOM      8  C   UNL     1       3.720   1.443   0.871  0.00  0.00    +0.002 C 
ATOM      9  C   UNL     1       4.569   0.831   1.982  0.00  0.00    -0.003 C 
ATOM     10  C   UNL     1       4.188  -0.629   2.208  0.00  0.00    +0.008 C 
ATOM     11  C   UNL     1       2.720  -0.717   2.642  0.00  0.00    +0.031 C 
ATOM     12  C   UNL     1       1.867  -0.021   1.598  0.00  0.00    -0.062 C 
ATOM     13  C   UNL     1       0.847  -0.694   1.081  0.00  0.00    +0.026 C 
ATOM     14  C   UNL     1      -0.005  -0.054   0.062  0.00  0.00    +0.080 C 
ATOM     15  N   UNL     1      -0.683  -0.745  -0.797  0.00  0.00    -0.089 NA
ATOM     16  C   UNL     1      -0.037   1.462   0.081  0.00  0.00    +0.059 C 
ATOM     17  C   UNL     1       1.411   1.949   0.062  0.00  0.00    +0.017 C 
ATOM     18  C   UNL     1       2.230   1.379   1.206  0.00  0.00    -0.007 C 
ATOM     19  C   UNL     1       1.978   2.284   2.420  0.00  0.00    +0.016 C 
ATOM     20  C   UNL     1       7.704   1.523  -0.066  0.00  0.00    +0.012 C 
ENDROOT
BRANCH   1  22
ATOM     21  C   UNL     1       6.515  -1.844  -2.092  0.00  0.00    +0.086 C 
ATOM     22  C   UNL     1       6.194  -1.733  -0.624  0.00  0.00    +0.134 C 
ATOM     23  O   UNL     1       5.298  -2.390  -0.151  0.00  0.00    -0.297 OA
ENDBRANCH   1  22
BRANCH  15  24
ATOM     24  O   UNL     1      -1.486  -0.086  -1.759  0.00  0.00    -0.384 OA
BRANCH  24  25
ATOM     25  C   UNL     1      -2.178  -0.970  -2.643  0.00  0.00    +0.358 C 
BRANCH  25  26
ATOM     26  C   UNL     1      -2.997  -0.166  -3.619  0.00  0.00    +0.253 C 
ATOM     27  O   UNL     1      -2.990   1.046  -3.563  0.00  0.00    -0.272 OA
ATOM     28  N   UNL     1      -3.739  -0.793  -4.554  0.00  0.00    -0.312 N 
ATOM     29  H   UNL     1      -3.745  -1.762  -4.598  0.00  0.00    +0.149 HD
BRANCH  28  30
ATOM     30  C   UNL     1      -4.535  -0.011  -5.503  0.00  0.00    +0.110 C 
BRANCH  30  31
ATOM     31  C   UNL     1      -5.276  -0.958  -6.449  0.00  0.00    +0.072 C 
BRANCH  31  32
ATOM     32  C   UNL     1      -6.095  -0.153  -7.425  0.00  0.00    +0.018 A 
ATOM     33  C   UNL     1      -7.334   0.308  -7.195  0.00  0.00    +0.031 A 
ATOM     34  C   UNL     1      -7.752   1.034  -8.397  0.00  0.00    -0.000 A 
ATOM     35  C   UNL     1      -8.909   1.725  -8.760  0.00  0.00    +0.010 A 
ATOM     36  C   UNL     1      -8.993   2.306  -9.994  0.00  0.00    +0.001 A 
ATOM     37  C   UNL     1      -7.936   2.214 -10.890  0.00  0.00    +0.002 A 
ATOM     38  C   UNL     1      -6.785   1.536 -10.552  0.00  0.00    +0.026 A 
ATOM     39  C   UNL     1      -6.678   0.938  -9.301  0.00  0.00    +0.047 A 
ATOM     40  N   UNL     1      -5.688   0.210  -8.680  0.00  0.00    -0.358 N 
ATOM     41  H   UNL     1      -4.829  -0.011  -9.073  0.00  0.00    +0.166 HD
ENDBRANCH  31  32
ENDBRANCH  30  31
ENDBRANCH  28  30
ENDBRANCH  25  26
ENDBRANCH  24  25
ENDBRANCH  15  24
TORSDOF 7
