REMARK  Name = ZINC64048349
REMARK  6 active torsions:
REMARK  status: ('A' for Active; 'I' for Inactive)
REMARK    1  A    between atoms: C_7  and  C_10
REMARK    2  A    between atoms: C_10  and  C_11
REMARK    3  A    between atoms: N_13  and  C_14
REMARK    4  A    between atoms: C_15  and  C_23
REMARK    5  A    between atoms: N_25  and  C_26
REMARK    6  A    between atoms: C_26  and  C_27
REMARK                            x       y       z     vdW  Elec       q    Type
REMARK                         _______ _______ _______ _____ _____    ______ ____
ROOT
ATOM      1  C   UNL     1      -0.565  -5.117  -2.987  0.00  0.00    +0.084 A 
ATOM      2  C   UNL     1      -1.365  -6.162  -3.424  0.00  0.00    +0.069 A 
ATOM      3  C   UNL     1      -1.417  -6.404  -4.855  0.00  0.00    -0.023 A 
ATOM      4  C   UNL     1      -0.660  -5.558  -5.587  0.00  0.00    -0.004 A 
ATOM      5  S   UNL     1       0.082  -4.479  -4.399  0.00  0.00    -0.077 S 
ATOM      6  C   UNL     1      -0.503  -5.551  -7.076  0.00  0.00    +0.043 C 
ATOM      7  C   UNL     1      -1.033  -6.885  -7.623  0.00  0.00    +0.005 C 
ATOM      8  C   UNL     1      -2.402  -7.168  -6.999  0.00  0.00    +0.005 C 
ATOM      9  C   UNL     1      -2.239  -7.502  -5.515  0.00  0.00    +0.037 C 
ENDROOT
BRANCH   1  12
ATOM     10  C   UNL     1       0.460  -3.646  -1.440  0.00  0.00    +0.222 C 
ATOM     11  O   UNL     1       1.006  -3.075  -2.360  0.00  0.00    -0.275 OA
ATOM     12  N   UNL     1      -0.353  -4.693  -1.684  0.00  0.00    -0.279 N 
ATOM     13  H   UNL     1      -0.790  -5.150  -0.948  0.00  0.00    +0.155 HD
BRANCH  10  14
ATOM     14  C   UNL     1       0.691  -3.186  -0.024  0.00  0.00    +0.129 C 
BRANCH  14  21
ATOM     15  C   UNL     1      -0.016   1.348   0.009  0.00  0.00    +0.001 A 
ATOM     16  C   UNL     1       1.166   2.101   0.002  0.00  0.00    +0.002 A 
ATOM     17  C   UNL     1       2.391   1.535  -0.013  0.00  0.00    +0.026 A 
ATOM     18  C   UNL     1       2.529   0.120  -0.022  0.00  0.00    +0.043 A 
ATOM     19  N   UNL     1       3.587  -0.654  -0.037  0.00  0.00    -0.380 N 
ATOM     20  C   UNL     1       3.143  -2.053  -0.041  0.00  0.00    +0.145 C 
ATOM     21  C   UNL     1       1.631  -2.008  -0.025  0.00  0.00    -0.033 C 
ATOM     22  C   UNL     1       1.295  -0.698  -0.014  0.00  0.00    -0.001 A 
ATOM     23  C   UNL     1       0.002  -0.004   0.002  0.00  0.00    +0.010 A 
ATOM     24  H   UNL     1       4.509  -0.353  -0.045  0.00  0.00    +0.160 HD
ENDBRANCH  14  21
ENDBRANCH  10  14
ENDBRANCH   1  12
BRANCH   2  25
ATOM     25  C   UNL     1      -2.125  -6.987  -2.481  0.00  0.00    +0.247 C 
ATOM     26  O   UNL     1      -3.259  -6.670  -2.171  0.00  0.00    -0.270 OA
ATOM     27  N   UNL     1      -1.569  -8.098  -1.957  0.00  0.00    -0.309 N 
ATOM     28  H   UNL     1      -0.665  -8.350  -2.204  0.00  0.00    +0.149 HD
BRANCH  27  29
ATOM     29  C   UNL     1      -2.329  -8.923  -1.014  0.00  0.00    +0.136 C 
BRANCH  29  30
ATOM     30  C   UNL     1      -1.474 -10.113  -0.575  0.00  0.00    +0.135 C 
ATOM     31  C   UNL     1      -2.272 -11.019   0.397  0.00  0.00    +0.035 C 
ATOM     32  C   UNL     1      -1.551 -12.379   0.192  0.00  0.00    +0.031 C 
ATOM     33  C   UNL     1      -1.171 -12.326  -1.303  0.00  0.00    +0.160 C 
ATOM     34  O   UNL     1      -1.165 -10.948  -1.701  0.00  0.00    -0.375 OA
ENDBRANCH  29  30
ENDBRANCH  27  29
ENDBRANCH   2  25
TORSDOF 6
