REMARK  Name = ZINC09266124
REMARK  7 active torsions:
REMARK  status: ('A' for Active; 'I' for Inactive)
REMARK    1  A    between atoms: C_1  and  C_2
REMARK    2  A    between atoms: C_2  and  O_3
REMARK    3  A    between atoms: O_3  and  C_4
REMARK    4  A    between atoms: C_9  and  C_10
REMARK    5  A    between atoms: C_10  and  C_12
REMARK    6  A    between atoms: C_32  and  C_40
REMARK    7  A    between atoms: C_34  and  C_39
REMARK                            x       y       z     vdW  Elec       q    Type
REMARK                         _______ _______ _______ _____ _____    ______ ____
ROOT
ATOM      1  C   UNL     1       4.528   0.868  -0.701  0.00  0.00    +0.066 C 
ATOM      2  C   UNL     1       4.302   1.397   0.737  0.00  0.00    -0.055 C 
ATOM      3  C   UNL     1       5.364   0.792   1.670  0.00  0.00    -0.016 C 
ATOM      4  C   UNL     1       4.749  -0.516   2.205  0.00  0.00    -0.020 C 
ATOM      5  C   UNL     1       3.371  -0.622   1.522  0.00  0.00    -0.076 C 
ATOM      6  C   UNL     1       2.172   0.749  -0.064  0.00  0.00    +0.060 C 
ATOM      7  C   UNL     1       3.101   0.803  -1.272  0.00  0.00    +0.085 C 
ATOM      8  C   UNL     1       2.815   1.988  -2.150  0.00  0.00    -0.011 A 
ATOM      9  C   UNL     1       2.805   3.348  -1.933  0.00  0.00    +0.006 A 
ATOM     10  C   UNL     1       2.495   4.212  -2.968  0.00  0.00    +0.000 A 
ATOM     11  C   UNL     1       2.195   3.707  -4.220  0.00  0.00    +0.002 A 
ATOM     12  C   UNL     1       2.202   2.345  -4.441  0.00  0.00    +0.023 A 
ATOM     13  C   UNL     1       2.514   1.468  -3.405  0.00  0.00    +0.038 A 
ATOM     14  N   UNL     1       2.589   0.074  -3.381  0.00  0.00    -0.285 N 
ATOM     15  C   UNL     1       2.929  -0.396  -2.165  0.00  0.00    +0.228 C 
ATOM     16  O   UNL     1       3.070  -1.559  -1.852  0.00  0.00    -0.275 OA
ATOM     17  C   UNL     1       1.300  -0.478  -0.096  0.00  0.00    -0.026 A 
ATOM     18  C   UNL     1       1.570  -1.828  -0.114  0.00  0.00    +0.008 A 
ATOM     19  C   UNL     1       0.531  -2.742  -0.142  0.00  0.00    -0.050 A 
ATOM     20  C   UNL     1      -0.778  -2.295  -0.152  0.00  0.00    +0.008 A 
ATOM     21  C   UNL     1      -1.053  -0.943  -0.134  0.00  0.00    -0.029 A 
ATOM     22  C   UNL     1      -0.012  -0.017  -0.106  0.00  0.00    +0.039 A 
ATOM     23  N   UNL     1      -0.033   1.379  -0.086  0.00  0.00    -0.286 N 
ATOM     24  C   UNL     1       1.205   1.905  -0.063  0.00  0.00    +0.212 C 
ATOM     25  O   UNL     1       1.488   3.084  -0.044  0.00  0.00    -0.277 OA
ATOM     26  C   UNL     1      -2.482  -0.467  -0.144  0.00  0.00    +0.045 C 
ATOM     27  C   UNL     1       0.825  -4.220  -0.163  0.00  0.00    +0.044 C 
ATOM     28  H   UNL     1       2.416  -0.491  -4.150  0.00  0.00    +0.155 HD
ATOM     29  H   UNL     1      -0.846   1.908  -0.092  0.00  0.00    +0.155 HD
ATOM     30  N   UNL     1       3.053   0.759   1.113  0.00  0.00    +0.395 N 
ATOM     31  H   UNL     1       2.605   1.266   1.886  0.00  0.00    -0.079 HD
ENDROOT
BRANCH   1  32
ATOM     32  C   UNL     1       5.154  -0.502  -0.672  0.00  0.00    +0.169 C 
ATOM     33  O   UNL     1       5.025  -1.208   0.306  0.00  0.00    -0.292 OA
BRANCH  32  39
ATOM     34  C   UNL     1       6.415  -2.297  -1.851  0.00  0.00    +0.131 A 
ATOM     35  C   UNL     1       7.137  -2.739  -2.950  0.00  0.00    +0.046 A 
ATOM     36  C   UNL     1       7.367  -1.891  -4.015  0.00  0.00    +0.004 A 
ATOM     37  C   UNL     1       6.880  -0.593  -3.997  0.00  0.00    +0.001 A 
ATOM     38  C   UNL     1       6.157  -0.137  -2.918  0.00  0.00    +0.015 A 
ATOM     39  C   UNL     1       5.920  -0.983  -1.829  0.00  0.00    +0.059 A 
BRANCH  34  40
ATOM     40  O   UNL     1       6.188  -3.129  -0.805  0.00  0.00    -0.492 OA
BRANCH  40  42
ATOM     41  C   UNL     1       6.368  -5.237   0.364  0.00  0.00    +0.048 C 
ATOM     42  C   UNL     1       6.723  -4.451  -0.900  0.00  0.00    +0.226 C 
ENDBRANCH  40  42
ENDBRANCH  34  40
ENDBRANCH  32  39
ENDBRANCH   1  32
TORSDOF 4
