REMARK  Name = ZINC12644869
REMARK  10 active torsions:
REMARK  status: ('A' for Active; 'I' for Inactive)
REMARK    1  A    between atoms: C_1  and  C_2
REMARK    2  A    between atoms: C_2  and  C_27
REMARK    3  A    between atoms: N_5  and  C_9
REMARK    4  A    between atoms: C_9  and  C_10
REMARK    5  A    between atoms: C_10  and  O_12
REMARK    6  A    between atoms: O_12  and  C_13
REMARK    7  A    between atoms: C_13  and  C_14
REMARK    8  A    between atoms: N_16  and  C_17
REMARK    9  A    between atoms: C_20  and  S_23
REMARK   10  A    between atoms: S_23  and  N_26
REMARK                            x       y       z     vdW  Elec       q    Type
REMARK                         _______ _______ _______ _____ _____    ______ ____
ROOT
ATOM      1  C   UNL     1       4.873   1.279   2.802  0.00  0.00    +0.238 C 
ENDROOT
BRANCH   1   6
ATOM      2  C   UNL     1       2.929   0.768  -1.447  0.00  0.00    +0.047 C 
ATOM      3  C   UNL     1       2.461   1.005  -0.009  0.00  0.00    +0.135 C 
ATOM      4  C   UNL     1       3.511   1.763   0.779  0.00  0.00    +0.251 C 
ATOM      5  O   UNL     1       3.939   2.874   0.550  0.00  0.00    -0.272 OA
ATOM      6  N   UNL     1       3.871   0.944   1.787  0.00  0.00    -0.213 N 
ATOM      7  C   UNL     1       3.202  -0.214   1.745  0.00  0.00    +0.310 C 
ATOM      8  O   UNL     1       3.355  -1.112   2.549  0.00  0.00    -0.252 OA
ATOM      9  N   UNL     1       2.341  -0.273   0.714  0.00  0.00    -0.281 N 
ATOM     10  H   UNL     1       1.754  -1.012   0.489  0.00  0.00    +0.152 HD
BRANCH   3  11
ATOM     11  C   UNL     1       1.150   1.748   0.004  0.00  0.00    -0.015 A 
ATOM     12  C   UNL     1       1.151   3.142   0.001  0.00  0.00    +0.007 A 
ATOM     13  C   UNL     1      -0.016   3.843   0.012  0.00  0.00    +0.009 A 
ATOM     14  C   UNL     1      -1.241   3.154   0.027  0.00  0.00    -0.018 A 
ATOM     15  C   UNL     1      -2.466   3.844   0.039  0.00  0.00    +0.008 A 
ATOM     16  C   UNL     1      -3.632   3.143   0.053  0.00  0.00    +0.001 A 
ATOM     17  C   UNL     1      -3.633   1.750   0.057  0.00  0.00    +0.001 A 
ATOM     18  C   UNL     1      -2.466   1.048   0.045  0.00  0.00    +0.008 A 
ATOM     19  C   UNL     1      -1.241   1.737   0.024  0.00  0.00    -0.018 A 
ATOM     20  C   UNL     1      -0.017   1.048   0.018  0.00  0.00    +0.014 A 
ENDBRANCH   3  11
ENDBRANCH   1   6
BRANCH   1  21
ATOM     21  C   UNL     1       6.234   0.835   2.331  0.00  0.00    +0.326 C 
ATOM     22  O   UNL     1       6.355   0.293   1.258  0.00  0.00    -0.249 OA
BRANCH  21  23
ATOM     23  O   UNL     1       7.312   1.040   3.104  0.00  0.00    -0.454 OA
BRANCH  23  24
ATOM     24  C   UNL     1       8.590   0.586   2.587  0.00  0.00    +0.328 C 
BRANCH  24  25
ATOM     25  C   UNL     1       9.675   0.900   3.585  0.00  0.00    +0.255 C 
ATOM     26  O   UNL     1       9.399   1.452   4.629  0.00  0.00    -0.272 OA
ATOM     27  N   UNL     1      10.954   0.567   3.317  0.00  0.00    -0.283 N 
ATOM     28  H   UNL     1      11.166   0.067   2.514  0.00  0.00    +0.155 HD
BRANCH  27  29
ATOM     29  C   UNL     1      11.974   0.944   4.197  0.00  0.00    +0.034 A 
ATOM     30  C   UNL     1      13.227   1.284   3.705  0.00  0.00    +0.025 A 
ATOM     31  C   UNL     1      14.230   1.662   4.576  0.00  0.00    +0.030 A 
ATOM     32  C   UNL     1      13.991   1.689   5.938  0.00  0.00    +0.105 A 
ATOM     33  C   UNL     1      12.746   1.345   6.431  0.00  0.00    +0.030 A 
ATOM     34  C   UNL     1      11.737   0.973   5.565  0.00  0.00    +0.025 A 
BRANCH  32  35
ATOM     35  S   UNL     1      15.276   2.164   7.046  0.00  0.00    +0.056 S 
ATOM     36  O   UNL     1      16.183   2.963   6.299  0.00  0.00    -0.153 OA
ATOM     37  O   UNL     1      14.640   2.634   8.227  0.00  0.00    -0.153 OA
BRANCH  35  38
ATOM     38  N   UNL     1      16.094   0.787   7.466  0.00  0.00    -0.204 NA
ATOM     39  H   UNL     1      17.038   0.832   7.686  0.00  0.00    +0.144 HD
ATOM     40  H   UNL     1      15.630  -0.064   7.492  0.00  0.00    +0.144 HD
ENDBRANCH  35  38
ENDBRANCH  32  35
ENDBRANCH  27  29
ENDBRANCH  24  25
ENDBRANCH  23  24
ENDBRANCH  21  23
ENDBRANCH   1  21
TORSDOF 9
