REMARK  Name = ZINC08722575
REMARK  6 active torsions:
REMARK  status: ('A' for Active; 'I' for Inactive)
REMARK    1  A    between atoms: C_1  and  C_2
REMARK    2  A    between atoms: C_2  and  O_3
REMARK    3  A    between atoms: O_3  and  C_4
REMARK    4  A    between atoms: C_13  and  C_14
REMARK    5  A    between atoms: C_25  and  C_26
REMARK    6  A    between atoms: C_25  and  N_61
REMARK                            x       y       z     vdW  Elec       q    Type
REMARK                         _______ _______ _______ _____ _____    ______ ____
ROOT
ATOM      1  C   UNL     1       0.002  -0.004   0.002  0.00  0.00    +0.194 C 
ATOM      2  N   UNL     1      -0.428   1.406  -0.018  0.00  0.00    -0.316 N 
ATOM      3  C   UNL     1       0.558   2.348  -0.160  0.00  0.00    +0.080 A 
ATOM      4  C   UNL     1       1.897   2.110   0.188  0.00  0.00    +0.068 A 
ATOM      5  C   UNL     1       2.809   3.222  -0.016  0.00  0.00    -0.027 A 
ATOM      6  C   UNL     1       2.258   4.348  -0.524  0.00  0.00    -0.021 A 
ATOM      7  S   UNL     1       0.542   3.960  -0.737  0.00  0.00    -0.080 S 
ATOM      8  C   UNL     1       2.970   5.629  -0.828  0.00  0.00    -0.035 C 
ATOM      9  C   UNL     1       4.980   4.332  -0.444  0.00  0.00    -0.073 C 
ATOM     10  C   UNL     1       4.300   3.180   0.301  0.00  0.00    +0.018 C 
ATOM     11  C   UNL     1       2.236   0.774   0.730  0.00  0.00    +0.248 C 
ATOM     12  O   UNL     1       3.345   0.530   1.168  0.00  0.00    -0.270 OA
ATOM     13  N   UNL     1       1.264  -0.162   0.718  0.00  0.00    -0.289 N 
ATOM     14  H   UNL     1      -1.362   1.655   0.061  0.00  0.00    +0.149 HD
ATOM     15  H   UNL     1       1.413  -0.984   1.211  0.00  0.00    +0.151 HD
ATOM     16  N   UNL     1       4.280   5.596  -0.134  0.00  0.00    +0.386 N 
ATOM     17  H   UNL     1       4.123   5.651   0.879  0.00  0.00    -0.081 HD
ENDROOT
BRANCH   1  27
ATOM     18  C   UNL     1       1.307  -1.162  -1.777  0.00  0.00    +0.128 A 
ATOM     19  C   UNL     1       1.480  -1.621  -3.086  0.00  0.00    +0.046 A 
ATOM     20  C   UNL     1       0.532  -1.400  -4.036  0.00  0.00    +0.012 A 
ATOM     21  C   UNL     1      -0.643  -0.705  -3.700  0.00  0.00    -0.017 A 
ATOM     22  C   UNL     1      -1.642  -0.457  -4.656  0.00  0.00    +0.008 A 
ATOM     23  C   UNL     1      -2.767   0.219  -4.296  0.00  0.00    +0.001 A 
ATOM     24  C   UNL     1      -2.944   0.673  -2.991  0.00  0.00    +0.001 A 
ATOM     25  C   UNL     1      -1.998   0.453  -2.038  0.00  0.00    +0.009 A 
ATOM     26  C   UNL     1      -0.823  -0.242  -2.372  0.00  0.00    -0.008 A 
ATOM     27  C   UNL     1       0.175  -0.488  -1.415  0.00  0.00    +0.040 A 
BRANCH  18  28
ATOM     28  O   UNL     1       2.274  -1.393  -0.851  0.00  0.00    -0.492 OA
BRANCH  28  30
ATOM     29  C   UNL     1       4.404  -2.268  -0.118  0.00  0.00    +0.048 C 
ATOM     30  C   UNL     1       3.434  -2.104  -1.289  0.00  0.00    +0.225 C 
ENDBRANCH  28  30
ENDBRANCH  18  28
ENDBRANCH   1  27
BRANCH  16  31
ATOM     31  C   UNL     1       5.105   6.748  -0.556  0.00  0.00    -0.043 C 
BRANCH  31  32
ATOM     32  C   UNL     1       5.444   6.644  -2.021  0.00  0.00    -0.064 A 
ATOM     33  C   UNL     1       6.594   5.989  -2.420  0.00  0.00    +0.002 A 
ATOM     34  C   UNL     1       6.902   5.889  -3.764  0.00  0.00    +0.000 A 
ATOM     35  C   UNL     1       6.065   6.454  -4.708  0.00  0.00    +0.000 A 
ATOM     36  C   UNL     1       4.918   7.113  -4.309  0.00  0.00    +0.000 A 
ATOM     37  C   UNL     1       4.607   7.209  -2.966  0.00  0.00    +0.002 A 
ENDBRANCH  31  32
ENDBRANCH  16  31
TORSDOF 5
