REMARK  Name = ZINC45512771
REMARK  7 active torsions:
REMARK  status: ('A' for Active; 'I' for Inactive)
REMARK    1  A    between atoms: C_1  and  C_2
REMARK    2  A    between atoms: C_2  and  C_4
REMARK    3  A    between atoms: C_2  and  N_17
REMARK    4  A    between atoms: N_6  and  C_7
REMARK    5  A    between atoms: C_10  and  O_13
REMARK    6  A    between atoms: O_13  and  C_14
REMARK    7  A    between atoms: C_20  and  N_23
REMARK                            x       y       z     vdW  Elec       q    Type
REMARK                         _______ _______ _______ _____ _____    ______ ____
ROOT
ATOM      1  N   UNL     1       0.911  -1.203   0.401  0.00  0.00    +0.387 N 
ATOM      2  C   UNL     1       2.273  -0.664   0.494  0.00  0.00    -0.076 C 
ATOM      3  C   UNL     1       3.213  -1.737   1.047  0.00  0.00    +0.006 C 
ATOM      4  C   UNL     1       3.204  -2.949   0.110  0.00  0.00    +0.089 C 
ATOM      5  C   UNL     1       1.767  -3.456  -0.037  0.00  0.00    +0.006 C 
ATOM      6  C   UNL     1       0.880  -2.320  -0.551  0.00  0.00    -0.076 C 
ATOM      7  H   UNL     1       0.617  -1.529   1.310  0.00  0.00    -0.081 HD
ENDROOT
BRANCH   4   8
ATOM      8  N   UNL     1       4.043  -4.010   0.673  0.00  0.00    -0.289 N 
ATOM      9  C   UNL     1       5.170  -4.564   0.070  0.00  0.00    +0.070 A 
ATOM     10  C   UNL     1       5.816  -4.331  -1.134  0.00  0.00    +0.028 A 
ATOM     11  C   UNL     1       6.942  -5.060  -1.462  0.00  0.00    +0.002 A 
ATOM     12  C   UNL     1       7.428  -6.023  -0.594  0.00  0.00    +0.002 A 
ATOM     13  C   UNL     1       6.791  -6.262   0.608  0.00  0.00    +0.028 A 
ATOM     14  C   UNL     1       5.660  -5.534   0.946  0.00  0.00    +0.067 A 
ATOM     15  N   UNL     1       4.816  -5.540   2.054  0.00  0.00    -0.306 N 
ATOM     16  H   UNL     1       4.904  -6.112   2.832  0.00  0.00    +0.170 HD
ATOM     17  C   UNL     1       3.860  -4.611   1.863  0.00  0.00    +0.328 A 
ATOM     18  O   UNL     1       2.964  -4.357   2.647  0.00  0.00    -0.247 OA
ENDBRANCH   4   8
BRANCH   1  20
ATOM     19  C   UNL     1       0.097   1.056   0.885  0.00  0.00    -0.004 C 
ATOM     20  C   UNL     1      -0.002  -0.146  -0.056  0.00  0.00    +0.016 C 
BRANCH  20  21
ATOM     21  C   UNL     1      -1.415  -0.669  -0.057  0.00  0.00    +0.203 C 
ATOM     22  O   UNL     1      -1.739  -1.543   0.719  0.00  0.00    -0.277 OA
ATOM     23  N   UNL     1      -2.319  -0.166  -0.921  0.00  0.00    -0.287 N 
ATOM     24  H   UNL     1      -2.044   0.483  -1.588  0.00  0.00    +0.155 HD
BRANCH  23  25
ATOM     25  C   UNL     1      -3.656  -0.580  -0.857  0.00  0.00    +0.034 A 
ATOM     26  C   UNL     1      -4.222  -0.913   0.367  0.00  0.00    +0.027 A 
ATOM     27  C   UNL     1      -5.540  -1.321   0.430  0.00  0.00    +0.047 A 
ATOM     28  C   UNL     1      -6.298  -1.398  -0.729  0.00  0.00    +0.127 A 
ATOM     29  C   UNL     1      -5.734  -1.066  -1.952  0.00  0.00    +0.047 A 
ATOM     30  C   UNL     1      -4.418  -0.652  -2.015  0.00  0.00    +0.027 A 
BRANCH  28  31
ATOM     31  O   UNL     1      -7.596  -1.800  -0.666  0.00  0.00    -0.434 OA
BRANCH  31  32
ATOM     32  C   UNL     1      -8.318  -1.857  -1.898  0.00  0.00    +0.541 C 
ATOM     33  F   UNL     1      -8.346  -0.585  -2.481  0.00  0.00    -0.166 F 
ATOM     34  F   UNL     1      -7.688  -2.754  -2.767  0.00  0.00    -0.166 F 
ENDBRANCH  31  32
ENDBRANCH  28  31
ENDBRANCH  23  25
ENDBRANCH  20  21
ENDBRANCH   1  20
TORSDOF 6
