REMARK  Name = ZINC38713597
REMARK  9 active torsions:
REMARK  status: ('A' for Active; 'I' for Inactive)
REMARK    1  A    between atoms: C_1  and  C_2
REMARK    2  A    between atoms: C_2  and  N_3
REMARK    3  A    between atoms: N_3  and  C_4
REMARK    4  A    between atoms: N_3  and  C_6
REMARK    5  A    between atoms: C_4  and  C_5
REMARK    6  A    between atoms: C_6  and  C_7
REMARK    7  A    between atoms: C_7  and  C_8
REMARK    8  A    between atoms: C_8  and  N_9
REMARK    9  A    between atoms: C_10  and  C_29
REMARK                            x       y       z     vdW  Elec       q    Type
REMARK                         _______ _______ _______ _____ _____    ______ ____
ROOT
ATOM      1  N   UNL     1      -2.831  -3.899  -1.943  0.00  0.00    -0.284 N 
ATOM      2  C   UNL     1      -3.734  -4.222  -0.826  0.00  0.00    +0.145 C 
ATOM      3  C   UNL     1      -5.087  -4.395  -1.434  0.00  0.00    +0.072 A 
ATOM      4  C   UNL     1      -6.381  -4.733  -0.835  0.00  0.00    +0.199 A 
ATOM      5  O   UNL     1      -6.573  -4.759   0.368  0.00  0.00    -0.287 OA
ATOM      6  C   UNL     1      -7.436  -5.040  -1.832  0.00  0.00    +0.065 A 
ATOM      7  C   UNL     1      -8.665  -5.580  -1.411  0.00  0.00    +0.016 A 
ATOM      8  C   UNL     1      -9.636  -5.873  -2.309  0.00  0.00    +0.009 A 
ATOM      9  C   UNL     1      -9.424  -5.638  -3.684  0.00  0.00    -0.014 A 
ATOM     10  C   UNL     1     -10.418  -5.942  -4.627  0.00  0.00    +0.008 A 
ATOM     11  C   UNL     1     -10.192  -5.703  -5.950  0.00  0.00    +0.001 A 
ATOM     12  C   UNL     1      -8.985  -5.162  -6.383  0.00  0.00    +0.001 A 
ATOM     13  C   UNL     1      -7.997  -4.857  -5.495  0.00  0.00    +0.012 A 
ATOM     14  C   UNL     1      -8.197  -5.090  -4.126  0.00  0.00    +0.025 A 
ATOM     15  C   UNL     1      -7.185  -4.785  -3.183  0.00  0.00    +0.147 A 
ATOM     16  O   UNL     1      -6.021  -4.260  -3.618  0.00  0.00    -0.449 OA
ATOM     17  C   UNL     1      -4.969  -4.184  -2.779  0.00  0.00    +0.199 A 
ATOM     18  C   UNL     1      -3.561  -3.874  -3.076  0.00  0.00    +0.283 C 
ATOM     19  O   UNL     1      -3.120  -3.633  -4.183  0.00  0.00    -0.267 OA
ENDROOT
BRANCH   2  20
ATOM     20  C   UNL     1      -3.752  -3.093   0.172  0.00  0.00    -0.021 A 
ATOM     21  C   UNL     1      -3.755  -1.782  -0.268  0.00  0.00    +0.007 A 
ATOM     22  C   UNL     1      -3.770  -0.745   0.646  0.00  0.00    +0.022 A 
ATOM     23  C   UNL     1      -3.783  -1.019   2.002  0.00  0.00    +0.059 A 
ATOM     24  C   UNL     1      -3.780  -2.331   2.442  0.00  0.00    +0.060 A 
ATOM     25  C   UNL     1      -3.770  -3.368   1.526  0.00  0.00    +0.027 A 
ATOM     26 CL   UNL     1      -3.796  -2.676   4.144  0.00  0.00    -0.082 Cl
ATOM     27 CL   UNL     1      -3.802   0.283   3.150  0.00  0.00    -0.082 Cl
ENDBRANCH   2  20
BRANCH   1  28
ATOM     28  C   UNL     1      -1.392  -3.644  -1.840  0.00  0.00    +0.107 C 
BRANCH  28  29
ATOM     29  C   UNL     1      -1.155  -2.151  -1.603  0.00  0.00    +0.000 C 
BRANCH  29  30
ATOM     30  C   UNL     1       0.348  -1.884  -1.496  0.00  0.00    -0.077 C 
BRANCH  30  31
ATOM     31  N   UNL     1       0.576  -0.451  -1.269  0.00  0.00    +0.379 N 
ATOM     32  H   UNL     1       0.124   0.081  -1.998  0.00  0.00    -0.082 HD
BRANCH  31  34
ATOM     33  C   UNL     1       0.129   1.449   0.210  0.00  0.00    -0.017 C 
ATOM     34  C   UNL     1       0.019  -0.067   0.035  0.00  0.00    -0.082 C 
ENDBRANCH  31  34
BRANCH  31  35
ATOM     35  C   UNL     1       2.019  -0.176  -1.285  0.00  0.00    -0.082 C 
ATOM     36  C   UNL     1       2.573  -0.440  -2.687  0.00  0.00    -0.017 C 
ENDBRANCH  31  35
ENDBRANCH  30  31
ENDBRANCH  29  30
ENDBRANCH  28  29
ENDBRANCH   1  28
TORSDOF 7
