REMARK  Name = ZINC63221849
REMARK  10 active torsions:
REMARK  status: ('A' for Active; 'I' for Inactive)
REMARK    1  A    between atoms: C_1  and  C_2
REMARK    2  A    between atoms: C_2  and  O_3
REMARK    3  A    between atoms: O_3  and  C_4
REMARK    4  A    between atoms: C_7  and  N_10
REMARK    5  A    between atoms: C_11  and  C_32
REMARK    6  A    between atoms: C_14  and  S_15
REMARK    7  A    between atoms: S_15  and  C_16
REMARK    8  A    between atoms: C_16  and  C_18
REMARK    9  A    between atoms: C_16  and  C_19
REMARK   10  A    between atoms: C_29  and  C_31
REMARK                            x       y       z     vdW  Elec       q    Type
REMARK                         _______ _______ _______ _____ _____    ______ ____
ROOT
ATOM      1  N   UNL     1       1.080  -5.920  -1.742  0.00  0.00    -0.270 N 
ATOM      2  C   UNL     1       2.251  -6.659  -1.782  0.00  0.00    +0.168 A 
ATOM      3  N   UNL     1       1.907  -7.914  -2.036  0.00  0.00    -0.128 NA
ATOM      4  N   UNL     1       0.630  -8.000  -2.154  0.00  0.00    -0.122 NA
ATOM      5  C   UNL     1       0.074  -6.810  -1.977  0.00  0.00    +0.197 A 
ENDROOT
BRANCH   2   6
ATOM      6  C   UNL     1       3.553  -6.171  -1.590  0.00  0.00    +0.025 C 
ATOM      7  C   UNL     1       4.741  -6.901  -1.633  0.00  0.00    +0.006 A 
ATOM      8  C   UNL     1       5.014  -8.266  -1.865  0.00  0.00    +0.010 A 
ATOM      9  C   UNL     1       6.297  -8.709  -1.848  0.00  0.00    +0.001 A 
ATOM     10  C   UNL     1       7.366  -7.843  -1.604  0.00  0.00    +0.002 A 
ATOM     11  C   UNL     1       7.178  -6.521  -1.373  0.00  0.00    +0.026 A 
ATOM     12  C   UNL     1       5.864  -5.984  -1.376  0.00  0.00    +0.043 A 
ATOM     13  N   UNL     1       5.423  -4.757  -1.183  0.00  0.00    -0.380 N 
ATOM     14  C   UNL     1       3.962  -4.744  -1.301  0.00  0.00    +0.152 C 
ATOM     15  H   UNL     1       5.978  -3.984  -0.996  0.00  0.00    +0.160 HD
ENDBRANCH   2   6
BRANCH   1  19
ATOM     16  C   UNL     1       0.707  -1.827  -1.032  0.00  0.00    +0.121 A 
ATOM     17  C   UNL     1       0.184  -2.739  -0.126  0.00  0.00    +0.047 A 
ATOM     18  C   UNL     1       0.307  -4.093  -0.361  0.00  0.00    +0.030 A 
ATOM     19  C   UNL     1       0.954  -4.544  -1.504  0.00  0.00    +0.051 A 
ATOM     20  C   UNL     1       1.476  -3.631  -2.410  0.00  0.00    +0.030 A 
ATOM     21  C   UNL     1       1.348  -2.276  -2.177  0.00  0.00    +0.047 A 
BRANCH  16  22
ATOM     22  O   UNL     1       0.585  -0.493  -0.801  0.00  0.00    -0.492 OA
BRANCH  22  24
ATOM     23  C   UNL     1      -0.127   1.426   0.485  0.00  0.00    +0.048 C 
ATOM     24  C   UNL     1      -0.088  -0.101   0.398  0.00  0.00    +0.225 C 
ENDBRANCH  22  24
ENDBRANCH  16  22
ENDBRANCH   1  19
BRANCH   5  25
ATOM     25  S   UNL     1      -1.648  -6.445  -2.039  0.00  0.00    -0.073 S 
BRANCH  25  26
ATOM     26  C   UNL     1      -2.424  -8.047  -2.386  0.00  0.00    +0.137 C 
ATOM     27  C   UNL     1      -2.189  -8.993  -1.207  0.00  0.00    +0.029 C 
BRANCH  26  28
ATOM     28  C   UNL     1      -3.905  -7.855  -2.587  0.00  0.00    +0.233 C 
ATOM     29  O   UNL     1      -4.458  -6.879  -2.127  0.00  0.00    -0.274 OA
ATOM     30  N   UNL     1      -4.615  -8.768  -3.279  0.00  0.00    -0.267 N 
ATOM     31  C   UNL     1      -4.113  -9.984  -3.752  0.00  0.00    +0.040 A 
ATOM     32  C   UNL     1      -2.828 -10.517  -3.631  0.00  0.00    +0.024 A 
ATOM     33  C   UNL     1      -2.532 -11.748  -4.176  0.00  0.00    +0.002 A 
ATOM     34  C   UNL     1      -3.506 -12.465  -4.848  0.00  0.00    +0.000 A 
ATOM     35  C   UNL     1      -4.781 -11.943  -4.972  0.00  0.00    +0.005 A 
ATOM     36  C   UNL     1      -5.082 -10.710  -4.426  0.00  0.00    -0.024 A 
ATOM     37  C   UNL     1      -6.370  -9.918  -4.415  0.00  0.00    +0.059 C 
ATOM     38  C   UNL     1      -6.029  -8.635  -3.640  0.00  0.00    +0.083 C 
ATOM     39  C   UNL     1      -6.891  -8.528  -2.381  0.00  0.00    +0.029 C 
ENDBRANCH  26  28
ENDBRANCH  25  26
ENDBRANCH   5  25
TORSDOF 7
