REMARK  Name = ZINC16221576
REMARK  9 active torsions:
REMARK  status: ('A' for Active; 'I' for Inactive)
REMARK    1  A    between atoms: C_1  and  C_2
REMARK    2  A    between atoms: C_5  and  N_8
REMARK    3  A    between atoms: C_9  and  C_30
REMARK    4  A    between atoms: C_12  and  S_13
REMARK    5  A    between atoms: S_13  and  C_14
REMARK    6  A    between atoms: C_14  and  C_15
REMARK    7  A    between atoms: C_15  and  C_17
REMARK    8  A    between atoms: C_18  and  N_29
REMARK    9  A    between atoms: N_19  and  C_26
REMARK                            x       y       z     vdW  Elec       q    Type
REMARK                         _______ _______ _______ _____ _____    ______ ____
ROOT
ATOM      1  N   UNL     1       0.864   0.575  -1.096  0.00  0.00    -0.270 N 
ATOM      2  C   UNL     1       1.290  -0.729  -1.218  0.00  0.00    +0.172 A 
ATOM      3  N   UNL     1       2.584  -0.733  -0.996  0.00  0.00    -0.128 NA
ATOM      4  N   UNL     1       2.992   0.461  -0.752  0.00  0.00    -0.122 NA
ATOM      5  C   UNL     1       1.983   1.302  -0.794  0.00  0.00    +0.197 A 
ENDROOT
BRANCH   1  10
ATOM      6  C   UNL     1      -4.430   2.525  -1.717  0.00  0.00    +0.044 C 
ATOM      7  C   UNL     1      -3.025   2.008  -1.552  0.00  0.00    -0.050 A 
ATOM      8  C   UNL     1      -2.043   2.378  -2.452  0.00  0.00    +0.005 A 
ATOM      9  C   UNL     1      -0.754   1.905  -2.304  0.00  0.00    +0.026 A 
ATOM     10  C   UNL     1      -0.444   1.057  -1.249  0.00  0.00    +0.051 A 
ATOM     11  C   UNL     1      -1.433   0.683  -0.349  0.00  0.00    +0.026 A 
ATOM     12  C   UNL     1      -2.719   1.163  -0.500  0.00  0.00    +0.005 A 
ENDBRANCH   1  10
BRANCH   2  13
ATOM     13  C   UNL     1       0.450  -1.902  -1.538  0.00  0.00    +0.055 A 
ATOM     14  C   UNL     1      -0.460  -1.845  -2.594  0.00  0.00    +0.014 A 
ATOM     15  C   UNL     1      -1.242  -2.944  -2.888  0.00  0.00    +0.001 A 
ATOM     16  C   UNL     1      -1.125  -4.101  -2.139  0.00  0.00    +0.003 A 
ATOM     17  C   UNL     1      -0.225  -4.167  -1.090  0.00  0.00    +0.039 A 
ATOM     18  C   UNL     1       0.568  -3.076  -0.788  0.00  0.00    +0.134 A 
ATOM     19  F   UNL     1       1.451  -3.142   0.233  0.00  0.00    -0.205 F 
ENDBRANCH   2  13
BRANCH   5  20
ATOM     20  S   UNL     1       2.059   3.041  -0.521  0.00  0.00    -0.078 S 
BRANCH  20  21
ATOM     21  C   UNL     1       3.828   3.230  -0.188  0.00  0.00    +0.157 C 
BRANCH  21  22
ATOM     22  C   UNL     1       4.136   4.680   0.082  0.00  0.00    +0.182 C 
ATOM     23  O   UNL     1       3.246   5.506   0.052  0.00  0.00    -0.291 OA
BRANCH  22  24
ATOM     24  C   UNL     1       5.459   5.078   0.370  0.00  0.00    +0.120 A 
ATOM     25  C   UNL     1       5.759   6.409   0.709  0.00  0.00    +0.116 A 
ATOM     26  N   UNL     1       7.053   6.746   0.984  0.00  0.00    -0.278 N 
ATOM     27  C   UNL     1       8.038   5.836   0.926  0.00  0.00    +0.331 A 
ATOM     28  O   UNL     1       9.175   6.186   1.176  0.00  0.00    -0.246 OA
ATOM     29  N   UNL     1       7.814   4.552   0.603  0.00  0.00    -0.274 N 
ATOM     30  H   UNL     1       8.579   3.909   0.572  0.00  0.00    +0.173 HD
ATOM     31  C   UNL     1       6.569   4.117   0.319  0.00  0.00    +0.266 A 
ATOM     32  O   UNL     1       6.369   2.953   0.026  0.00  0.00    -0.267 OA
BRANCH  26  33
ATOM     33  C   UNL     1       7.375   8.129   1.345  0.00  0.00    +0.094 C 
ATOM     34  C   UNL     1       8.289   8.351   2.551  0.00  0.00    +0.027 C 
ATOM     35  C   UNL     1       6.796   8.671   2.653  0.00  0.00    +0.027 C 
ENDBRANCH  26  33
BRANCH  25  36
ATOM     36  N   UNL     1       4.774   7.346   0.767  0.00  0.00    -0.344 N 
ATOM     37  H   UNL     1       3.844   7.077   0.705  0.00  0.00    +0.144 HD
ATOM     38  H   UNL     1       5.001   8.283   0.870  0.00  0.00    +0.144 HD
ENDBRANCH  25  36
ENDBRANCH  22  24
ENDBRANCH  21  22
ENDBRANCH  20  21
ENDBRANCH   5  20
TORSDOF 8
