REMARK  Name = ZINC10247307
REMARK  8 active torsions:
REMARK  status: ('A' for Active; 'I' for Inactive)
REMARK    1  A    between atoms: C_1  and  N_2
REMARK    2  A    between atoms: N_2  and  C_3
REMARK    3  A    between atoms: C_6  and  N_26
REMARK    4  A    between atoms: C_8  and  C_9
REMARK    5  A    between atoms: C_9  and  O_11
REMARK    6  A    between atoms: O_11  and  C_12
REMARK    7  A    between atoms: C_12  and  C_13
REMARK    8  A    between atoms: N_15  and  C_16
REMARK                            x       y       z     vdW  Elec       q    Type
REMARK                         _______ _______ _______ _____ _____    ______ ____
ROOT
ATOM      1  O   UNL     1       1.506   4.797  -1.258  0.00  0.00    -0.452 OA
ENDROOT
BRANCH   1   2
ATOM      2  C   UNL     1       0.373   4.069  -1.310  0.00  0.00    +0.342 C 
ATOM      3  O   UNL     1      -0.634   4.473  -0.763  0.00  0.00    -0.245 OA
BRANCH   2   9
ATOM      4  C   UNL     1      -0.849   2.082  -2.192  0.00  0.00    +0.041 A 
ATOM      5  C   UNL     1      -0.852   0.871  -2.873  0.00  0.00    +0.026 A 
ATOM      6  C   UNL     1       0.324   0.363  -3.386  0.00  0.00    +0.034 A 
ATOM      7  C   UNL     1       1.516   1.054  -3.226  0.00  0.00    +0.127 A 
ATOM      8  C   UNL     1       1.539   2.256  -2.555  0.00  0.00    +0.049 A 
ATOM      9  C   UNL     1       0.356   2.784  -2.029  0.00  0.00    +0.082 A 
BRANCH   4  11
ATOM     10  C   UNL     1      -3.305   1.931  -1.964  0.00  0.00    +0.125 C 
ATOM     11  N   UNL     1      -2.032   2.598  -1.681  0.00  0.00    -0.346 N 
ATOM     12  H   UNL     1      -2.016   3.401  -1.137  0.00  0.00    +0.146 HD
ENDBRANCH   4  11
BRANCH   7  13
ATOM     13  N   UNL     1       2.770   0.497  -3.782  0.00  0.00    +0.056 N 
ATOM     14  O   UNL     1       2.753  -0.566  -4.377  0.00  0.00    -0.126 OA
ATOM     15  O   UNL     1       3.818   1.101  -3.643  0.00  0.00    -0.126 OA
ENDBRANCH   7  13
ENDBRANCH   2   9
ENDBRANCH   1   2
BRANCH   1  16
ATOM     16  C   UNL     1       1.450   6.053  -0.531  0.00  0.00    +0.328 C 
BRANCH  16  17
ATOM     17  C   UNL     1       2.800   6.723  -0.581  0.00  0.00    +0.255 C 
ATOM     18  O   UNL     1       3.718   6.194  -1.170  0.00  0.00    -0.272 OA
ATOM     19  N   UNL     1       2.986   7.910   0.030  0.00  0.00    -0.280 N 
ATOM     20  H   UNL     1       2.276   8.294   0.569  0.00  0.00    +0.155 HD
BRANCH  19  21
ATOM     21  C   UNL     1       4.203   8.588  -0.113  0.00  0.00    +0.073 A 
ATOM     22  C   UNL     1       5.399   7.933   0.153  0.00  0.00    +0.082 A 
ATOM     23  C   UNL     1       6.600   8.604   0.006  0.00  0.00    +0.063 A 
ATOM     24  C   UNL     1       6.610   9.929  -0.395  0.00  0.00    +0.043 A 
ATOM     25  C   UNL     1       5.419  10.585  -0.655  0.00  0.00    +0.063 A 
ATOM     26  C   UNL     1       4.216   9.917  -0.515  0.00  0.00    +0.082 A 
ATOM     27 CL   UNL     1       2.723  10.741  -0.842  0.00  0.00    -0.080 Cl
ATOM     28 CL   UNL     1       5.437  12.246  -1.157  0.00  0.00    -0.082 Cl
ATOM     29 CL   UNL     1       8.096   7.785   0.331  0.00  0.00    -0.082 Cl
ATOM     30 CL   UNL     1       5.387   6.274   0.662  0.00  0.00    -0.080 Cl
ENDBRANCH  19  21
ENDBRANCH  16  17
ENDBRANCH   1  16
TORSDOF 7
