REMARK  Name = ZINC08995552
REMARK  6 active torsions:
REMARK  status: ('A' for Active; 'I' for Inactive)
REMARK    1  A    between atoms: C_1  and  C_2
REMARK    2  A    between atoms: C_2  and  C_3
REMARK    3  A    between atoms: C_3  and  C_4
REMARK    4  A    between atoms: C_4  and  N_5
REMARK    5  A    between atoms: C_10  and  C_26
REMARK    6  A    between atoms: C_26  and  C_27
REMARK                            x       y       z     vdW  Elec       q    Type
REMARK                         _______ _______ _______ _____ _____    ______ ____
ROOT
ATOM      1  N   UNL     1       0.195   3.664  -0.226  0.00  0.00    -0.242 N 
ATOM      2  C   UNL     1       1.328   3.253   0.428  0.00  0.00    +0.224 C 
ATOM      3  O   UNL     1       2.021   3.899   1.185  0.00  0.00    -0.275 OA
ATOM      4  C   UNL     1       1.522   1.820  -0.003  0.00  0.00    +0.073 C 
ATOM      5  C   UNL     1       2.028   0.797   1.010  0.00  0.00    -0.053 C 
ATOM      6  C   UNL     1       0.002  -0.004   0.002  0.00  0.00    +0.050 C 
ATOM      7  C   UNL     1      -0.018   1.458   0.010  0.00  0.00    +0.088 C 
ATOM      8  C   UNL     1      -0.581   2.610  -0.647  0.00  0.00    +0.225 C 
ATOM      9  O   UNL     1      -1.527   2.643  -1.404  0.00  0.00    -0.275 OA
ATOM     10  C   UNL     1       0.438  -0.650  -1.282  0.00  0.00    -0.028 A 
ATOM     11  C   UNL     1       1.531  -0.490  -2.104  0.00  0.00    +0.004 A 
ATOM     12  C   UNL     1       1.657  -1.254  -3.251  0.00  0.00    +0.000 A 
ATOM     13  C   UNL     1       0.681  -2.180  -3.571  0.00  0.00    +0.002 A 
ATOM     14  C   UNL     1      -0.417  -2.344  -2.753  0.00  0.00    +0.023 A 
ATOM     15  C   UNL     1      -0.551  -1.578  -1.597  0.00  0.00    +0.036 A 
ATOM     16  N   UNL     1      -1.555  -1.563  -0.626  0.00  0.00    -0.286 N 
ATOM     17  C   UNL     1      -1.307  -0.666   0.347  0.00  0.00    +0.211 C 
ATOM     18  O   UNL     1      -2.002  -0.436   1.314  0.00  0.00    -0.277 OA
ATOM     19  H   UNL     1      -2.340  -2.132  -0.650  0.00  0.00    +0.155 HD
ATOM     20  N   UNL     1       1.004  -0.271   1.071  0.00  0.00    +0.394 N 
ATOM     21  H   UNL     1       0.544  -0.262   1.990  0.00  0.00    -0.083 HD
ATOM     22  H   UNL     1       1.443  -1.186   0.918  0.00  0.00    -0.083 HD
ENDROOT
BRANCH   1  23
ATOM     23  C   UNL     1      -0.151   5.070  -0.450  0.00  0.00    +0.116 C 
BRANCH  23  24
ATOM     24  C   UNL     1       0.443   5.535  -1.781  0.00  0.00    +0.019 C 
BRANCH  24  26
ATOM     25  C   UNL     1       0.677   7.468  -3.346  0.00  0.00    +0.004 C 
ATOM     26  C   UNL     1       0.082   7.003  -2.015  0.00  0.00    -0.002 C 
ENDBRANCH  24  26
ENDBRANCH  23  24
ENDBRANCH   1  23
BRANCH   5  27
ATOM     27  C   UNL     1       2.193   1.456   2.381  0.00  0.00    +0.022 C 
BRANCH  27  28
ATOM     28  C   UNL     1       2.785   0.462   3.348  0.00  0.00    -0.024 A 
ATOM     29  C   UNL     1       2.109  -0.318   4.205  0.00  0.00    +0.087 A 
ATOM     30  N   UNL     1       2.982  -1.093   4.919  0.00  0.00    -0.360 N 
ATOM     31  H   UNL     1       2.728  -1.738   5.598  0.00  0.00    +0.165 HD
ATOM     32  C   UNL     1       4.275  -0.817   4.535  0.00  0.00    +0.047 A 
ATOM     33  C   UNL     1       4.209   0.170   3.533  0.00  0.00    +0.003 A 
ATOM     34  C   UNL     1       5.382   0.650   2.950  0.00  0.00    +0.010 A 
ATOM     35  C   UNL     1       6.592   0.160   3.355  0.00  0.00    +0.001 A 
ATOM     36  C   UNL     1       6.663  -0.813   4.343  0.00  0.00    +0.002 A 
ATOM     37  C   UNL     1       5.517  -1.302   4.932  0.00  0.00    +0.026 A 
ENDBRANCH  27  28
ENDBRANCH   5  27
TORSDOF 5
