REMARK  Name = ZINC36357530
REMARK  2 active torsions:
REMARK  status: ('A' for Active; 'I' for Inactive)
REMARK    1  A    between atoms: C_5  and  C_7
REMARK    2  A    between atoms: C_11  and  C_12
REMARK                            x       y       z     vdW  Elec       q    Type
REMARK                         _______ _______ _______ _____ _____    ______ ____
ROOT
ATOM      1  C   UNL     1       1.248  -2.163  -0.022  0.00  0.00    +0.028 A 
ATOM      2  C   UNL     1       1.268  -2.908   1.155  0.00  0.00    +0.054 A 
ATOM      3  C   UNL     1       1.294  -4.272   1.023  0.00  0.00    +0.032 A 
ATOM      4  S   UNL     1       1.287  -4.577  -0.613  0.00  0.00    -0.083 S 
ATOM      5  C   UNL     1       1.249  -2.898  -1.214  0.00  0.00    +0.110 A 
ATOM      6  C   UNL     1       1.326  -5.233   2.169  0.00  0.00    +0.115 C 
ATOM      7  C   UNL     1       2.007  -4.566   3.364  0.00  0.00    +0.122 C 
ATOM      8  C   UNL     1       1.550  -3.143   3.513  0.00  0.00    +0.219 C 
ATOM      9  O   UNL     1       1.438  -2.686   4.631  0.00  0.00    -0.275 OA
ATOM     10  N   UNL     1       1.260  -2.351   2.466  0.00  0.00    -0.284 N 
ATOM     11  C   UNL     1      -0.046  -5.707   2.530  0.00  0.00    -0.006 A 
ATOM     12  C   UNL     1      -1.166  -5.026   2.957  0.00  0.00    +0.007 A 
ATOM     13  C   UNL     1      -2.304  -5.782   3.214  0.00  0.00    +0.000 A 
ATOM     14  C   UNL     1      -2.309  -7.152   3.048  0.00  0.00    +0.002 A 
ATOM     15  C   UNL     1      -1.188  -7.844   2.618  0.00  0.00    +0.023 A 
ATOM     16  C   UNL     1      -0.038  -7.096   2.357  0.00  0.00    +0.038 A 
ATOM     17  N   UNL     1       1.206  -7.520   1.925  0.00  0.00    -0.284 N 
ATOM     18  C   UNL     1       2.071  -6.494   1.786  0.00  0.00    +0.233 C 
ATOM     19  O   UNL     1       3.226  -6.567   1.423  0.00  0.00    -0.274 OA
ATOM     20  H   UNL     1       1.047  -1.414   2.602  0.00  0.00    +0.155 HD
ATOM     21  H   UNL     1       1.430  -8.446   1.742  0.00  0.00    +0.155 HD
ENDROOT
BRANCH   1  26
ATOM     22  C   UNL     1      -0.017   1.375   0.010  0.00  0.00    +0.001 A 
ATOM     23  C   UNL     1       1.170   2.087   0.002  0.00  0.00    +0.003 A 
ATOM     24  C   UNL     1       2.382   1.423  -0.013  0.00  0.00    +0.039 A 
ATOM     25  C   UNL     1       2.416   0.041  -0.021  0.00  0.00    +0.131 A 
ATOM     26  C   UNL     1       1.221  -0.683  -0.013  0.00  0.00    +0.020 A 
ATOM     27  C   UNL     1       0.002  -0.004   0.002  0.00  0.00    +0.011 A 
ATOM     28  F   UNL     1       3.601  -0.608  -0.037  0.00  0.00    -0.205 F 
ENDBRANCH   1  26
BRANCH   5  29
ATOM     29  C   UNL     1       1.227  -2.431  -2.547  0.00  0.00    +0.394 C 
ATOM     30  O   UNL     1       1.203  -1.227  -2.775  0.00  0.00    -0.240 OA
ATOM     31  O   UNL     1       1.232  -3.230  -3.477  0.00  0.00    -0.240 OA
ENDBRANCH   5  29
TORSDOF 2
