REMARK  Name = ZINC39655787
REMARK  10 active torsions:
REMARK  status: ('A' for Active; 'I' for Inactive)
REMARK    1  A    between atoms: C_1  and  C_2
REMARK    2  A    between atoms: C_2  and  C_3
REMARK    3  A    between atoms: C_3  and  C_4
REMARK    4  A    between atoms: C_4  and  C_6
REMARK    5  A    between atoms: C_4  and  C_7
REMARK    6  A    between atoms: C_11  and  C_20
REMARK    7  A    between atoms: N_22  and  C_23
REMARK    8  A    between atoms: C_23  and  C_24
REMARK    9  A    between atoms: C_24  and  C_25
REMARK   10  A    between atoms: C_28  and  C_34
REMARK                            x       y       z     vdW  Elec       q    Type
REMARK                         _______ _______ _______ _____ _____    ______ ____
ROOT
ATOM      1  C   UNL     1       1.321  -2.780   2.746  0.00  0.00    +0.218 C 
ATOM      2  O   UNL     1       1.604  -2.081   3.695  0.00  0.00    -0.275 OA
ATOM      3  N   UNL     1       1.583  -4.102   2.781  0.00  0.00    -0.300 N 
ATOM      4  C   UNL     1       1.413  -5.091   1.690  0.00  0.00    +0.121 C 
ATOM      5  C   UNL     1       2.642  -6.020   1.812  0.00  0.00    +0.100 C 
ATOM      6  C   UNL     1       3.090  -5.889   3.277  0.00  0.00    -0.004 C 
ATOM      7  C   UNL     1       2.111  -4.894   3.918  0.00  0.00    +0.115 C 
ATOM      8  C   UNL     1       4.512  -5.340   3.347  0.00  0.00    -0.010 C 
ATOM      9  C   UNL     1       4.956  -5.272   4.811  0.00  0.00    -0.082 C 
ATOM     10  N   UNL     1       4.897  -6.614   5.405  0.00  0.00    +0.379 N 
ATOM     11  C   UNL     1       3.511  -7.096   5.418  0.00  0.00    -0.082 C 
ATOM     12  C   UNL     1       3.006  -7.240   3.979  0.00  0.00    -0.010 C 
ATOM     13  H   UNL     1       5.467  -7.245   4.862  0.00  0.00    -0.086 HD
ATOM     14  H   UNL     1       5.248  -6.577   6.351  0.00  0.00    -0.086 HD
ENDROOT
BRANCH   5  15
ATOM     15  C   UNL     1       2.255  -7.444   1.505  0.00  0.00    +0.218 C 
ATOM     16  O   UNL     1       1.126  -7.827   1.729  0.00  0.00    -0.275 OA
ATOM     17  N   UNL     1       3.163  -8.291   0.981  0.00  0.00    -0.315 N 
ATOM     18  H   UNL     1       4.066  -7.984   0.802  0.00  0.00    +0.149 HD
BRANCH  17  19
ATOM     19  C   UNL     1       2.787  -9.675   0.683  0.00  0.00    +0.109 C 
BRANCH  19  20
ATOM     20  C   UNL     1       3.992 -10.417   0.102  0.00  0.00    +0.056 C 
BRANCH  20  21
ATOM     21  C   UNL     1       3.605 -11.841  -0.205  0.00  0.00    -0.021 A 
ATOM     22  C   UNL     1       2.963 -12.325  -1.430  0.00  0.00    +0.003 A 
ATOM     23  C   UNL     1       2.532 -11.711  -2.607  0.00  0.00    +0.013 A 
ATOM     24  C   UNL     1       1.953 -12.462  -3.592  0.00  0.00    -0.050 A 
ATOM     25  C   UNL     1       1.790 -13.831  -3.430  0.00  0.00    +0.005 A 
ATOM     26  C   UNL     1       2.207 -14.457  -2.276  0.00  0.00    +0.026 A 
ATOM     27  C   UNL     1       2.799 -13.712  -1.261  0.00  0.00    +0.047 A 
ATOM     28  N   UNL     1       3.308 -14.033  -0.023  0.00  0.00    -0.360 N 
ATOM     29  C   UNL     1       3.789 -12.907   0.589  0.00  0.00    +0.087 A 
ATOM     30  C   UNL     1       1.489 -11.799  -4.863  0.00  0.00    +0.044 C 
ATOM     31  H   UNL     1       3.327 -14.925   0.358  0.00  0.00    +0.165 HD
ENDBRANCH  20  21
ENDBRANCH  19  20
ENDBRANCH  17  19
ENDBRANCH   5  15
BRANCH   1  32
ATOM     32  C   UNL     1       0.676  -2.172   1.528  0.00  0.00    +0.072 C 
ATOM     33  C   UNL     1       1.761  -1.705   0.556  0.00  0.00    +0.017 C 
BRANCH  32  34
ATOM     34  C   UNL     1      -0.182  -0.977   1.947  0.00  0.00    +0.012 C 
BRANCH  34  36
ATOM     35  C   UNL     1      -1.792   0.759   1.150  0.00  0.00    +0.004 C 
ATOM     36  C   UNL     1      -0.934  -0.436   0.730  0.00  0.00    -0.003 C 
ENDBRANCH  34  36
ENDBRANCH  32  34
ENDBRANCH   1  32
TORSDOF 7
