REMARK  Name = ZINC63648767
REMARK  13 active torsions:
REMARK  status: ('A' for Active; 'I' for Inactive)
REMARK    1  A    between atoms: C_1  and  C_2
REMARK    2  A    between atoms: C_2  and  O_3
REMARK    3  A    between atoms: O_3  and  C_4
REMARK    4  A    between atoms: C_7  and  C_13
REMARK    5  A    between atoms: C_9  and  O_10
REMARK    6  A    between atoms: O_10  and  C_11
REMARK    7  A    between atoms: C_11  and  C_12
REMARK    8  A    between atoms: C_19  and  C_26
REMARK    9  A    between atoms: C_20  and  C_25
REMARK   10  A    between atoms: C_23  and  C_24
REMARK   11  A    between atoms: N_28  and  C_29
REMARK   12  A    between atoms: C_29  and  C_30
REMARK   13  A    between atoms: C_30  and  C_31
REMARK                            x       y       z     vdW  Elec       q    Type
REMARK                         _______ _______ _______ _____ _____    ______ ____
ROOT
ATOM      1  C   UNL     1      -1.864  -6.136  -0.128  0.00  0.00    +0.109 C 
ATOM      2  C   UNL     1      -1.232  -6.739   1.136  0.00  0.00    +0.226 C 
ATOM      3  N   UNL     1      -2.244  -7.350   1.999  0.00  0.00    -0.266 NA
ATOM      4  C   UNL     1      -1.977  -8.455   2.628  0.00  0.00    +0.121 C 
ATOM      5  C   UNL     1      -0.671  -9.117   2.499  0.00  0.00    +0.073 C 
ATOM      6  C   UNL     1       0.133  -8.791   1.406  0.00  0.00    +0.042 C 
ATOM      7  N   UNL     1      -0.380  -7.819   0.589  0.00  0.00    -0.203 N 
ATOM      8  N   UNL     1      -0.332  -7.697  -0.788  0.00  0.00    -0.187 NA
ATOM      9  C   UNL     1      -1.123  -6.814  -1.262  0.00  0.00    +0.045 C 
ATOM     10  C   UNL     1      -1.294  -6.492  -2.724  0.00  0.00    +0.063 C 
ATOM     11  C   UNL     1       1.469  -9.439   1.148  0.00  0.00    +0.063 C 
ENDROOT
BRANCH   1  15
ATOM     12  C   UNL     1      -1.242  -1.907  -0.246  0.00  0.00    +0.162 A 
ATOM     13  C   UNL     1      -0.159  -2.768  -0.177  0.00  0.00    +0.050 A 
ATOM     14  C   UNL     1      -0.363  -4.134  -0.139  0.00  0.00    +0.008 A 
ATOM     15  C   UNL     1      -1.647  -4.646  -0.170  0.00  0.00    -0.031 A 
ATOM     16  C   UNL     1      -2.733  -3.792  -0.239  0.00  0.00    +0.053 A 
ATOM     17  C   UNL     1      -2.535  -2.421  -0.272  0.00  0.00    +0.162 A 
BRANCH  12  18
ATOM     18  O   UNL     1      -1.043  -0.562  -0.283  0.00  0.00    -0.489 OA
BRANCH  18  20
ATOM     19  C   UNL     1       0.335   1.423  -0.303  0.00  0.00    +0.048 C 
ATOM     20  C   UNL     1       0.311  -0.106  -0.254  0.00  0.00    +0.226 C 
ENDBRANCH  18  20
ENDBRANCH  12  18
BRANCH  17  21
ATOM     21  O   UNL     1      -3.602  -1.580  -0.334  0.00  0.00    -0.489 OA
BRANCH  21  22
ATOM     22  C   UNL     1      -4.899  -2.179  -0.357  0.00  0.00    +0.226 C 
ATOM     23  C   UNL     1      -5.965  -1.083  -0.428  0.00  0.00    +0.048 C 
ENDBRANCH  21  22
ENDBRANCH  17  21
ENDBRANCH   1  15
BRANCH   5  24
ATOM     24  C   UNL     1      -0.223 -10.098   3.495  0.00  0.00    +0.247 C 
ATOM     25  O   UNL     1       0.817 -10.706   3.326  0.00  0.00    -0.270 OA
ATOM     26  N   UNL     1      -0.963 -10.324   4.599  0.00  0.00    -0.311 N 
ATOM     27  H   UNL     1      -1.792  -9.839   4.734  0.00  0.00    +0.149 HD
BRANCH  26  28
ATOM     28  C   UNL     1      -0.516 -11.302   5.593  0.00  0.00    +0.109 C 
BRANCH  28  29
ATOM     29  C   UNL     1      -1.530 -11.366   6.737  0.00  0.00    +0.052 C 
BRANCH  29  30
ATOM     30  C   UNL     1      -1.070 -12.372   7.761  0.00  0.00    -0.040 C 
ATOM     31  C   UNL     1      -0.365 -12.122   8.887  0.00  0.00    -0.001 A 
ATOM     32  C   UNL     1       0.165 -10.886   9.475  0.00  0.00    +0.010 A 
ATOM     33  C   UNL     1       0.848 -10.953  10.640  0.00  0.00    +0.001 A 
ATOM     34  C   UNL     1       1.061 -12.171  11.300  0.00  0.00    +0.002 A 
ATOM     35  C   UNL     1       0.604 -13.349  10.823  0.00  0.00    +0.026 A 
ATOM     36  C   UNL     1      -0.127 -13.395   9.604  0.00  0.00    +0.043 A 
ATOM     37  N   UNL     1      -0.664 -14.394   8.946  0.00  0.00    -0.380 N 
ATOM     38  C   UNL     1      -1.309 -13.865   7.739  0.00  0.00    +0.144 C 
ATOM     39  H   UNL     1      -0.642 -15.325   9.214  0.00  0.00    +0.160 HD
ENDBRANCH  29  30
ENDBRANCH  28  29
ENDBRANCH  26  28
ENDBRANCH   5  24
TORSDOF 9
