REMARK  Name = ZINC21584312
REMARK  9 active torsions:
REMARK  status: ('A' for Active; 'I' for Inactive)
REMARK    1  A    between atoms: C_1  and  C_2
REMARK    2  A    between atoms: C_2  and  C_3
REMARK    3  A    between atoms: C_2  and  C_4
REMARK    4  A    between atoms: C_4  and  C_6
REMARK    5  A    between atoms: C_4  and  N_18
REMARK    6  A    between atoms: C_9  and  C_12
REMARK    7  A    between atoms: N_18  and  C_19
REMARK    8  A    between atoms: C_19  and  C_20
REMARK    9  A    between atoms: N_22  and  C_23
REMARK                            x       y       z     vdW  Elec       q    Type
REMARK                         _______ _______ _______ _____ _____    ______ ____
ROOT
ATOM      1  C   UNL     1       2.943  -6.093  -2.398  0.00  0.00    -0.038 C 
ENDROOT
BRANCH   1   2
ATOM      2  C   UNL     1       2.842  -6.618  -3.807  0.00  0.00    -0.061 A 
ATOM      3  C   UNL     1       3.177  -5.806  -4.873  0.00  0.00    +0.002 A 
ATOM      4  C   UNL     1       3.088  -6.289  -6.165  0.00  0.00    +0.004 A 
ATOM      5  C   UNL     1       2.654  -7.582  -6.391  0.00  0.00    -0.044 A 
ATOM      6  C   UNL     1       2.314  -8.393  -5.325  0.00  0.00    +0.004 A 
ATOM      7  C   UNL     1       2.408  -7.911  -4.033  0.00  0.00    +0.002 A 
BRANCH   5   8
ATOM      8  C   UNL     1       2.552  -8.107  -7.800  0.00  0.00    +0.019 C 
ATOM      9  C   UNL     1       3.930  -8.058  -8.464  0.00  0.00    +0.008 C 
ATOM     10  C   UNL     1       3.826  -8.591  -9.894  0.00  0.00    +0.001 C 
ATOM     11  C   UNL     1       2.846  -7.728 -10.690  0.00  0.00    +0.000 C 
ATOM     12  C   UNL     1       1.468  -7.777 -10.027  0.00  0.00    +0.001 C 
ATOM     13  C   UNL     1       1.572  -7.244  -8.596  0.00  0.00    +0.008 C 
ENDBRANCH   5   8
ENDBRANCH   1   2
BRANCH   1  15
ATOM     14  C   UNL     1       4.843  -7.620  -1.850  0.00  0.00    +0.006 C 
ATOM     15  C   UNL     1       4.399  -6.158  -1.933  0.00  0.00    -0.027 C 
ATOM     16  C   UNL     1       5.287  -5.412  -2.931  0.00  0.00    +0.006 C 
ENDBRANCH   1  15
BRANCH   1  17
ATOM     17  N   UNL     1       2.480  -4.699  -2.360  0.00  0.00    +0.389 N 
ATOM     18  H   UNL     1       3.317  -4.028  -2.601  0.00  0.00    -0.084 HD
ATOM     19  H   UNL     1       1.675  -4.561  -3.097  0.00  0.00    -0.084 HD
BRANCH  17  20
ATOM     20  C   UNL     1       1.965  -4.352  -1.029  0.00  0.00    +0.016 C 
BRANCH  20  21
ATOM     21  C   UNL     1       1.380  -2.963  -1.064  0.00  0.00    +0.196 C 
ATOM     22  O   UNL     1       1.391  -2.326  -2.095  0.00  0.00    -0.278 OA
ATOM     23  N   UNL     1       0.845  -2.430   0.052  0.00  0.00    -0.312 N 
ATOM     24  H   UNL     1       0.835  -3.007   0.988  0.00  0.00    +0.149 HD
BRANCH  23  25
ATOM     25  C   UNL     1       0.276  -1.080   0.019  0.00  0.00    +0.095 C 
ATOM     26  C   UNL     1      -0.776  -0.941   1.131  0.00  0.00    +0.046 C 
ATOM     27  C   UNL     1      -1.131   0.566   1.278  0.00  0.00    +0.168 C 
ATOM     28  S   UNL     1       0.540   1.323   1.107  0.00  0.00    -0.029 S 
ATOM     29  O   UNL     1       0.452   2.447   0.242  0.00  0.00    -0.174 OA
ATOM     30  O   UNL     1       1.112   1.477   2.399  0.00  0.00    -0.174 OA
ATOM     31  C   UNL     1       1.405  -0.042   0.229  0.00  0.00    +0.188 C 
ENDBRANCH  23  25
ENDBRANCH  20  21
ENDBRANCH  17  20
ENDBRANCH   1  17
TORSDOF 7
