REMARK  Name = ZINC39676337
REMARK  6 active torsions:
REMARK  status: ('A' for Active; 'I' for Inactive)
REMARK    1  A    between atoms: C_1  and  C_2
REMARK    2  A    between atoms: C_3  and  C_14
REMARK    3  A    between atoms: C_4  and  C_8
REMARK    4  A    between atoms: C_18  and  C_27
REMARK    5  A    between atoms: N_29  and  C_30
REMARK    6  A    between atoms: C_30  and  C_31
REMARK                            x       y       z     vdW  Elec       q    Type
REMARK                         _______ _______ _______ _____ _____    ______ ____
ROOT
ATOM      1  C   UNL     1      -2.408  -0.033   0.215  0.00  0.00    +0.248 C 
ATOM      2  O   UNL     1      -2.543   1.166   0.374  0.00  0.00    -0.270 OA
ATOM      3  N   UNL     1      -3.492  -0.832   0.163  0.00  0.00    -0.296 N 
ATOM      4  C   UNL     1      -3.527  -2.311   0.073  0.00  0.00    +0.121 C 
ATOM      5  C   UNL     1      -4.695  -2.731   0.993  0.00  0.00    +0.100 C 
ATOM      6  C   UNL     1      -5.606  -1.494   1.061  0.00  0.00    -0.004 C 
ATOM      7  C   UNL     1      -4.919  -0.431   0.191  0.00  0.00    +0.115 C 
ATOM      8  C   UNL     1      -5.717  -0.998   2.499  0.00  0.00    -0.010 C 
ATOM      9  C   UNL     1      -6.673   0.198   2.550  0.00  0.00    -0.082 C 
ATOM     10  N   UNL     1      -7.991  -0.206   2.047  0.00  0.00    +0.379 N 
ATOM     11  C   UNL     1      -7.891  -0.594   0.635  0.00  0.00    -0.082 C 
ATOM     12  C   UNL     1      -6.987  -1.823   0.503  0.00  0.00    -0.010 C 
ATOM     13  H   UNL     1      -8.330  -0.989   2.586  0.00  0.00    -0.086 HD
ATOM     14  H   UNL     1      -8.635   0.565   2.138  0.00  0.00    -0.086 HD
ENDROOT
BRANCH   1  17
ATOM     15  C   UNL     1      -0.877  -1.343   2.476  0.00  0.00    +0.089 C 
ATOM     16  C   UNL     1      -0.398  -1.182   1.057  0.00  0.00    +0.132 C 
ATOM     17  C   UNL     1      -1.111  -0.589   0.084  0.00  0.00    +0.078 C 
ATOM     18  C   UNL     1      -0.272  -0.623  -1.180  0.00  0.00    +0.161 C 
ATOM     19  N   UNL     1       1.086  -0.928  -0.660  0.00  0.00    -0.144 NA
ATOM     20  O   UNL     1       0.799  -1.609   0.612  0.00  0.00    -0.410 OA
ATOM     21  H   UNL     1       1.588  -1.534  -1.293  0.00  0.00    +0.168 HD
BRANCH  18  22
ATOM     22  C   UNL     1      -0.295   0.715  -1.874  0.00  0.00    -0.023 A 
ATOM     23  C   UNL     1       0.526   1.736  -1.434  0.00  0.00    +0.005 A 
ATOM     24  C   UNL     1       0.505   2.963  -2.070  0.00  0.00    +0.000 A 
ATOM     25  C   UNL     1      -0.338   3.169  -3.147  0.00  0.00    +0.000 A 
ATOM     26  C   UNL     1      -1.159   2.147  -3.587  0.00  0.00    +0.000 A 
ATOM     27  C   UNL     1      -1.134   0.919  -2.954  0.00  0.00    +0.005 A 
ENDBRANCH  18  22
ENDBRANCH   1  17
BRANCH   5  28
ATOM     28  C   UNL     1      -5.437  -3.900   0.399  0.00  0.00    +0.219 C 
ATOM     29  O   UNL     1      -5.522  -4.015  -0.806  0.00  0.00    -0.275 OA
ATOM     30  N   UNL     1      -6.006  -4.818   1.205  0.00  0.00    -0.308 N 
ATOM     31  H   UNL     1      -5.937  -4.726   2.168  0.00  0.00    +0.149 HD
BRANCH  30  32
ATOM     32  C   UNL     1      -6.727  -5.955   0.627  0.00  0.00    +0.178 C 
BRANCH  32  33
ATOM     33  C   UNL     1      -7.263  -6.825   1.735  0.00  0.00    +0.128 A 
ATOM     34  N   UNL     1      -7.962  -7.940   1.397  0.00  0.00    -0.309 N 
ATOM     35  H   UNL     1      -8.102  -8.154   0.461  0.00  0.00    +0.170 HD
ATOM     36  C   UNL     1      -8.463  -8.755   2.354  0.00  0.00    +0.259 A 
ATOM     37  O   UNL     1      -9.091  -9.758   2.066  0.00  0.00    -0.267 OA
ATOM     38  C   UNL     1      -8.221  -8.383   3.756  0.00  0.00    +0.065 A 
ATOM     39  C   UNL     1      -8.694  -9.153   4.816  0.00  0.00    +0.015 A 
ATOM     40  C   UNL     1      -8.438  -8.757   6.110  0.00  0.00    +0.001 A 
ATOM     41  C   UNL     1      -7.714  -7.600   6.364  0.00  0.00    +0.002 A 
ATOM     42  C   UNL     1      -7.237  -6.824   5.331  0.00  0.00    +0.028 A 
ATOM     43  C   UNL     1      -7.484  -7.205   4.010  0.00  0.00    +0.078 A 
ATOM     44  N   UNL     1      -7.028  -6.474   2.962  0.00  0.00    -0.232 NA
ENDBRANCH  32  33
ENDBRANCH  30  32
ENDBRANCH   5  28
TORSDOF 5
