REMARK  Name = ZINC13145861
REMARK  11 active torsions:
REMARK  status: ('A' for Active; 'I' for Inactive)
REMARK    1  A    between atoms: C_1  and  O_2
REMARK    2  A    between atoms: O_2  and  C_3
REMARK    3  A    between atoms: C_3  and  C_5
REMARK    4  A    between atoms: C_5  and  C_7
REMARK    5  A    between atoms: C_5  and  N_46
REMARK    6  A    between atoms: C_7  and  C_8
REMARK    7  A    between atoms: C_11  and  O_14
REMARK    8  A    between atoms: C_15  and  C_16
REMARK    9  A    between atoms: C_15  and  N_46
REMARK   10  A    between atoms: N_18  and  C_19
REMARK   11  A    between atoms: C_23  and  C_25
REMARK                            x       y       z     vdW  Elec       q    Type
REMARK                         _______ _______ _______ _____ _____    ______ ____
ROOT
ATOM      1  N   UNL     1      -0.951   1.292  -1.161  0.00  0.00    +0.394 N 
ATOM      2  H   UNL     1      -1.861   0.826  -1.071  0.00  0.00    -0.084 HD
ATOM      3  H   UNL     1      -1.090   2.309  -1.203  0.00  0.00    -0.084 HD
ENDROOT
BRANCH   1   4
ATOM      4  C   UNL     1      -0.292   0.840  -2.400  0.00  0.00    +0.044 C 
BRANCH   4   5
ATOM      5  C   UNL     1       0.676   1.894  -2.870  0.00  0.00    +0.293 C 
ATOM      6  O   UNL     1       0.812   2.914  -2.237  0.00  0.00    -0.253 OA
BRANCH   5   8
ATOM      7  C   UNL     1       2.302   2.759  -4.383  0.00  0.00    +0.280 C 
ATOM      8  O   UNL     1       1.389   1.700  -3.991  0.00  0.00    -0.469 OA
ENDBRANCH   5   8
ENDBRANCH   4   5
BRANCH   4   9
ATOM      9  C   UNL     1      -1.354   0.607  -3.477  0.00  0.00    +0.030 C 
BRANCH   9  10
ATOM     10  C   UNL     1      -2.249  -0.532  -3.062  0.00  0.00    -0.048 A 
ATOM     11  C   UNL     1      -1.933  -1.827  -3.428  0.00  0.00    +0.007 A 
ATOM     12  C   UNL     1      -2.749  -2.873  -3.044  0.00  0.00    +0.045 A 
ATOM     13  C   UNL     1      -3.893  -2.623  -2.299  0.00  0.00    +0.117 A 
ATOM     14  C   UNL     1      -4.211  -1.321  -1.938  0.00  0.00    +0.045 A 
ATOM     15  C   UNL     1      -3.388  -0.279  -2.320  0.00  0.00    +0.007 A 
BRANCH  13  16
ATOM     16  O   UNL     1      -4.700  -3.650  -1.925  0.00  0.00    -0.507 OA
ATOM     17  H   UNL     1      -5.399  -3.853  -2.562  0.00  0.00    +0.292 HD
ENDBRANCH  13  16
ENDBRANCH   9  10
ENDBRANCH   4   9
ENDBRANCH   1   4
BRANCH   1  18
ATOM     18  C   UNL     1      -0.118   0.963   0.011  0.00  0.00    +0.016 C 
BRANCH  18  19
ATOM     19  C   UNL     1      -0.815   1.437   1.261  0.00  0.00    +0.200 C 
ATOM     20  O   UNL     1      -1.891   1.990   1.182  0.00  0.00    -0.278 OA
ATOM     21  N   UNL     1      -0.242   1.246   2.466  0.00  0.00    -0.287 N 
ATOM     22  H   UNL     1       0.581   0.737   2.536  0.00  0.00    +0.155 HD
BRANCH  21  23
ATOM     23  C   UNL     1      -0.834   1.782   3.615  0.00  0.00    +0.034 A 
ATOM     24  C   UNL     1      -1.514   2.991   3.548  0.00  0.00    +0.025 A 
ATOM     25  C   UNL     1      -2.101   3.515   4.683  0.00  0.00    +0.022 A 
ATOM     26  C   UNL     1      -2.003   2.842   5.888  0.00  0.00    +0.053 A 
ATOM     27  C   UNL     1      -1.321   1.641   5.959  0.00  0.00    +0.075 A 
ATOM     28  C   UNL     1      -0.736   1.109   4.826  0.00  0.00    +0.037 A 
ATOM     29 CL   UNL     1      -2.737   3.507   7.314  0.00  0.00    -0.083 Cl
BRANCH  27  30
ATOM     30  C   UNL     1      -1.217   0.910   7.273  0.00  0.00    +0.419 C 
ATOM     31  F   UNL     1      -0.487  -0.270   7.094  0.00  0.00    -0.166 F 
ATOM     32  F   UNL     1      -0.566   1.724   8.208  0.00  0.00    -0.166 F 
ATOM     33  F   UNL     1      -2.499   0.600   7.737  0.00  0.00    -0.166 F 
ENDBRANCH  27  30
ENDBRANCH  21  23
ENDBRANCH  18  19
ENDBRANCH   1  18
TORSDOF 10
