REMARK  Name = ZINC17087081
REMARK  8 active torsions:
REMARK  status: ('A' for Active; 'I' for Inactive)
REMARK    1  A    between atoms: C_1  and  C_2
REMARK    2  A    between atoms: C_7  and  C_8
REMARK    3  A    between atoms: C_8  and  O_9
REMARK    4  A    between atoms: O_9  and  C_10
REMARK    5  A    between atoms: C_13  and  C_16
REMARK    6  A    between atoms: C_18  and  C_27
REMARK    7  A    between atoms: C_19  and  C_26
REMARK    8  A    between atoms: N_29  and  C_30
REMARK                            x       y       z     vdW  Elec       q    Type
REMARK                         _______ _______ _______ _____ _____    ______ ____
ROOT
ATOM      1  C   UNL     1       6.604   8.786   0.001  0.00  0.00    +0.179 C 
ATOM      2  C   UNL     1       7.513   8.720   1.200  0.00  0.00    +0.060 C 
ATOM      3  C   UNL     1       8.778   8.278   1.137  0.00  0.00    +0.018 C 
ATOM      4  N   UNL     1       9.351   7.860  -0.040  0.00  0.00    -0.286 N 
ATOM      5  C   UNL     1       8.672   8.143  -1.216  0.00  0.00    +0.240 A 
ATOM      6  N   UNL     1       7.387   8.584  -1.212  0.00  0.00    -0.201 N 
ATOM      7  N   UNL     1       7.052   8.768  -2.552  0.00  0.00    -0.042 NA
ATOM      8  N   UNL     1       8.097   8.441  -3.241  0.00  0.00    -0.021 NA
ATOM      9  N   UNL     1       9.053   8.072  -2.459  0.00  0.00    -0.092 NA
ATOM     10  C   UNL     1       9.599   8.241   2.400  0.00  0.00    +0.061 C 
ATOM     11  H   UNL     1      10.197   7.385  -0.047  0.00  0.00    +0.155 HD
ENDROOT
BRANCH   1  15
ATOM     12  C   UNL     1       3.624   5.738   0.299  0.00  0.00    +0.121 A 
ATOM     13  C   UNL     1       4.968   5.396   0.270  0.00  0.00    +0.046 A 
ATOM     14  C   UNL     1       5.929   6.382   0.168  0.00  0.00    +0.009 A 
ATOM     15  C   UNL     1       5.553   7.712   0.106  0.00  0.00    -0.018 A 
ATOM     16  C   UNL     1       4.215   8.056   0.140  0.00  0.00    +0.009 A 
ATOM     17  C   UNL     1       3.249   7.073   0.237  0.00  0.00    +0.046 A 
BRANCH  12  18
ATOM     18  O   UNL     1       2.676   4.769   0.394  0.00  0.00    -0.487 OA
BRANCH  18  19
ATOM     19  C   UNL     1       3.135   3.417   0.454  0.00  0.00    +0.264 C 
BRANCH  19  26
ATOM     20  C   UNL     1       3.547   0.561   0.604  0.00  0.00    +0.044 C 
ATOM     21  C   UNL     1       2.149   1.123   0.628  0.00  0.00    -0.044 A 
ATOM     22  C   UNL     1       1.063   0.272   0.721  0.00  0.00    +0.004 A 
ATOM     23  C   UNL     1      -0.220   0.787   0.737  0.00  0.00    +0.000 A 
ATOM     24  C   UNL     1      -0.416   2.154   0.671  0.00  0.00    +0.000 A 
ATOM     25  C   UNL     1       0.669   3.005   0.578  0.00  0.00    +0.007 A 
ATOM     26  C   UNL     1       1.952   2.489   0.556  0.00  0.00    -0.007 A 
ENDBRANCH  19  26
ENDBRANCH  18  19
ENDBRANCH  12  18
ENDBRANCH   1  15
BRANCH   2  27
ATOM     27  C   UNL     1       7.008   9.142   2.452  0.00  0.00    +0.248 C 
ATOM     28  O   UNL     1       7.718   9.101   3.441  0.00  0.00    -0.270 OA
ATOM     29  N   UNL     1       5.741   9.591   2.551  0.00  0.00    -0.282 N 
ATOM     30  H   UNL     1       5.200   9.698   1.753  0.00  0.00    +0.155 HD
BRANCH  29  31
ATOM     31  C   UNL     1       5.206   9.904   3.805  0.00  0.00    +0.034 A 
ATOM     32  C   UNL     1       5.590   9.180   4.926  0.00  0.00    +0.025 A 
ATOM     33  C   UNL     1       5.064   9.494   6.164  0.00  0.00    +0.022 A 
ATOM     34  C   UNL     1       4.147  10.523   6.286  0.00  0.00    +0.041 A 
ATOM     35  C   UNL     1       3.757  11.242   5.170  0.00  0.00    +0.022 A 
ATOM     36  C   UNL     1       4.285  10.936   3.931  0.00  0.00    +0.025 A 
ATOM     37 CL   UNL     1       3.483  10.911   7.843  0.00  0.00    -0.084 Cl
ENDBRANCH  29  31
ENDBRANCH   2  27
TORSDOF 6
