REMARK  Name = ZINC39675607
REMARK  8 active torsions:
REMARK  status: ('A' for Active; 'I' for Inactive)
REMARK    1  A    between atoms: C_1  and  N_2
REMARK    2  A    between atoms: N_2  and  C_3
REMARK    3  A    between atoms: N_2  and  C_4
REMARK    4  A    between atoms: C_4  and  C_6
REMARK    5  A    between atoms: C_4  and  C_33
REMARK    6  A    between atoms: C_6  and  N_7
REMARK    7  A    between atoms: C_8  and  C_10
REMARK    8  A    between atoms: C_21  and  C_23
REMARK                            x       y       z     vdW  Elec       q    Type
REMARK                         _______ _______ _______ _____ _____    ______ ____
ROOT
ATOM      1  C   UNL     1       0.775  -3.035   3.038  0.00  0.00    +0.100 C 
ATOM      2  C   UNL     1       2.050  -2.237   3.391  0.00  0.00    +0.121 C 
ATOM      3  N   UNL     1       2.903  -3.199   4.129  0.00  0.00    -0.296 N 
ATOM      4  C   UNL     1       2.715  -4.483   3.412  0.00  0.00    +0.115 C 
ATOM      5  C   UNL     1       1.216  -4.509   3.053  0.00  0.00    -0.004 C 
ATOM      6  C   UNL     1       0.433  -5.284   4.109  0.00  0.00    -0.010 C 
ATOM      7  C   UNL     1       0.848  -6.757   4.065  0.00  0.00    -0.082 C 
ATOM      8  N   UNL     1       0.580  -7.304   2.729  0.00  0.00    +0.379 N 
ATOM      9  C   UNL     1       1.406  -6.614   1.731  0.00  0.00    -0.082 C 
ATOM     10  C   UNL     1       1.015  -5.135   1.676  0.00  0.00    -0.010 C 
ATOM     11  C   UNL     1       3.674  -2.960   5.208  0.00  0.00    +0.247 C 
ATOM     12  O   UNL     1       3.628  -1.878   5.760  0.00  0.00    -0.270 OA
ATOM     13  H   UNL     1       0.797  -8.289   2.721  0.00  0.00    -0.086 HD
ATOM     14  H   UNL     1      -0.395  -7.175   2.504  0.00  0.00    -0.086 HD
ENDROOT
BRANCH  11  15
ATOM     15  C   UNL     1       4.575  -4.013   5.720  0.00  0.00    +0.037 A 
ATOM     16  C   UNL     1       4.976  -5.062   4.872  0.00  0.00    +0.013 A 
ATOM     17  C   UNL     1       5.803  -6.041   5.318  0.00  0.00    +0.009 A 
ATOM     18  C   UNL     1       6.271  -6.016   6.645  0.00  0.00    -0.018 A 
ATOM     19  C   UNL     1       7.128  -7.018   7.130  0.00  0.00    +0.008 A 
ATOM     20  C   UNL     1       7.565  -6.967   8.418  0.00  0.00    +0.001 A 
ATOM     21  C   UNL     1       7.175  -5.934   9.268  0.00  0.00    +0.001 A 
ATOM     22  C   UNL     1       6.346  -4.946   8.835  0.00  0.00    +0.008 A 
ATOM     23  C   UNL     1       5.875  -4.964   7.510  0.00  0.00    -0.017 A 
ATOM     24  C   UNL     1       5.024  -3.958   7.029  0.00  0.00    +0.021 A 
ENDBRANCH  11  15
BRANCH   1  26
ATOM     25  N   UNL     1      -1.037  -2.735   1.382  0.00  0.00    -0.316 N 
ATOM     26  C   UNL     1       0.277  -2.650   1.669  0.00  0.00    +0.218 C 
ATOM     27  O   UNL     1       1.058  -2.264   0.826  0.00  0.00    -0.275 OA
ATOM     28  H   UNL     1      -1.662  -3.044   2.056  0.00  0.00    +0.149 HD
BRANCH  25  29
ATOM     29  C   UNL     1      -1.522  -2.361   0.051  0.00  0.00    +0.093 C 
BRANCH  29  30
ATOM     30  C   UNL     1      -3.016  -2.671  -0.054  0.00  0.00    -0.021 C 
BRANCH  30  31
ATOM     31  C   UNL     1      -3.227  -4.161   0.039  0.00  0.00    -0.059 A 
ATOM     32  C   UNL     1      -3.014  -4.959  -1.069  0.00  0.00    +0.002 A 
ATOM     33  C   UNL     1      -3.207  -6.325  -0.985  0.00  0.00    +0.000 A 
ATOM     34  C   UNL     1      -3.614  -6.893   0.208  0.00  0.00    +0.000 A 
ATOM     35  C   UNL     1      -3.827  -6.095   1.317  0.00  0.00    +0.000 A 
ATOM     36  C   UNL     1      -3.629  -4.729   1.233  0.00  0.00    +0.002 A 
ENDBRANCH  30  31
BRANCH  30  38
ATOM     37  C   UNL     1      -4.944  -2.551  -1.475  0.00  0.00    -0.096 C 
ATOM     38  N   UNL     1      -3.529  -2.183  -1.341  0.00  0.00    +0.382 N 
ATOM     39  C   UNL     1      -3.395  -0.721  -1.398  0.00  0.00    -0.096 C 
ATOM     40  H   UNL     1      -3.000  -2.599  -2.093  0.00  0.00    -0.082 HD
ENDBRANCH  30  38
ENDBRANCH  29  30
ENDBRANCH  25  29
ENDBRANCH   1  26
TORSDOF 6
