REMARK  Name = ZINC51329856
REMARK  3 active torsions:
REMARK  status: ('A' for Active; 'I' for Inactive)
REMARK    1  A    between atoms: C_4  and  C_7
REMARK    2  A    between atoms: C_8  and  C_27
REMARK    3  A    between atoms: N_12  and  N_13
REMARK                            x       y       z     vdW  Elec       q    Type
REMARK                         _______ _______ _______ _____ _____    ______ ____
ROOT
ATOM      1  C   UNL     1       4.005  -0.534   0.425  0.00  0.00    +0.088 A 
ATOM      2  C   UNL     1       4.180  -1.758   1.066  0.00  0.00    +0.049 A 
ATOM      3  S   UNL     1       5.725  -2.291   0.341  0.00  0.00    -0.050 S 
ATOM      4  C   UNL     1       5.980  -0.873  -0.716  0.00  0.00    +0.179 A 
ATOM      5  N   UNL     1       4.913  -0.140  -0.449  0.00  0.00    -0.223 NA
ATOM      6  N   UNL     1       7.020  -0.612  -1.589  0.00  0.00    -0.215 N 
ATOM      7  H   UNL     1       7.743  -1.251  -1.687  0.00  0.00    +0.176 HD
ENDROOT
BRANCH   6   8
ATOM      8  N   UNL     1       7.029   0.575  -2.334  0.00  0.00    -0.180 NA
ATOM      9  C   UNL     1       8.066   0.874  -3.077  0.00  0.00    +0.097 C 
ATOM     10  C   UNL     1       9.374   0.188  -3.076  0.00  0.00    +0.010 A 
ATOM     11  C   UNL     1       9.868  -0.893  -2.349  0.00  0.00    +0.011 A 
ATOM     12  C   UNL     1      11.159  -1.331  -2.559  0.00  0.00    +0.001 A 
ATOM     13  C   UNL     1      11.970  -0.702  -3.489  0.00  0.00    +0.001 A 
ATOM     14  C   UNL     1      11.499   0.370  -4.218  0.00  0.00    +0.009 A 
ATOM     15  C   UNL     1      10.196   0.828  -4.022  0.00  0.00    -0.008 A 
ATOM     16  C   UNL     1       9.433   1.930  -4.642  0.00  0.00    -0.008 A 
ATOM     17  C   UNL     1       8.144   1.957  -4.080  0.00  0.00    +0.010 A 
ATOM     18  C   UNL     1       7.222   2.911  -4.506  0.00  0.00    +0.011 A 
ATOM     19  C   UNL     1       7.575   3.821  -5.481  0.00  0.00    +0.001 A 
ATOM     20  C   UNL     1       8.843   3.793  -6.040  0.00  0.00    +0.001 A 
ATOM     21  C   UNL     1       9.772   2.862  -5.623  0.00  0.00    +0.009 A 
ENDBRANCH   6   8
BRANCH   1  25
ATOM     22  C   UNL     1       0.605   1.878   1.252  0.00  0.00    +0.000 A 
ATOM     23  C   UNL     1       1.308   1.299   2.293  0.00  0.00    +0.001 A 
ATOM     24  C   UNL     1       2.413   0.515   2.031  0.00  0.00    +0.010 A 
ATOM     25  C   UNL     1       2.820   0.306   0.713  0.00  0.00    +0.002 A 
ATOM     26  C   UNL     1       2.106   0.892  -0.332  0.00  0.00    +0.010 A 
ATOM     27  C   UNL     1       1.003   1.675  -0.057  0.00  0.00    +0.001 A 
ENDBRANCH   1  25
BRANCH   2  28
ATOM     28  C   UNL     1       3.327  -2.428   2.067  0.00  0.00    -0.009 A 
ATOM     29  C   UNL     1       1.950  -2.534   1.857  0.00  0.00    +0.009 A 
ATOM     30  C   UNL     1       1.159  -3.162   2.797  0.00  0.00    +0.001 A 
ATOM     31  C   UNL     1       1.726  -3.686   3.945  0.00  0.00    +0.000 A 
ATOM     32  C   UNL     1       3.090  -3.584   4.159  0.00  0.00    +0.001 A 
ATOM     33  C   UNL     1       3.894  -2.965   3.225  0.00  0.00    +0.009 A 
ENDBRANCH   2  28
TORSDOF 3
