REMARK  Name = ZINC40646706
REMARK  5 active torsions:
REMARK  status: ('A' for Active; 'I' for Inactive)
REMARK    1  A    between atoms: C_3  and  N_9
REMARK    2  A    between atoms: C_11  and  N_27
REMARK    3  A    between atoms: C_12  and  N_16
REMARK    4  A    between atoms: N_16  and  N_17
REMARK    5  A    between atoms: C_18  and  C_20
REMARK                            x       y       z     vdW  Elec       q    Type
REMARK                         _______ _______ _______ _____ _____    ______ ____
ROOT
ATOM      1  N   UNL     1       3.583   2.127  -0.021  0.00  0.00    -0.296 N 
ATOM      2  C   UNL     1       3.566   3.510  -0.119  0.00  0.00    +0.159 A 
ATOM      3  C   UNL     1       4.754   4.225  -0.238  0.00  0.00    +0.207 A 
ATOM      4  C   UNL     1       4.683   5.611  -0.333  0.00  0.00    +0.171 A 
ATOM      5  N   UNL     1       3.488   6.200  -0.306  0.00  0.00    -0.217 NA
ATOM      6  C   UNL     1       2.386   5.489  -0.192  0.00  0.00    +0.225 A 
ATOM      7  N   UNL     1       2.411   4.174  -0.105  0.00  0.00    -0.218 NA
ATOM      8  H   UNL     1       4.417   1.643  -0.129  0.00  0.00    +0.154 HD
ENDROOT
BRANCH   1  11
ATOM      9  C   UNL     1       0.194   1.352   1.176  0.00  0.00    +0.003 A 
ATOM     10  C   UNL     1       1.364   2.043   0.926  0.00  0.00    +0.025 A 
ATOM     11  C   UNL     1       2.398   1.429   0.233  0.00  0.00    +0.052 A 
ATOM     12  C   UNL     1       2.254   0.118  -0.207  0.00  0.00    +0.080 A 
ATOM     13  C   UNL     1       1.080  -0.569   0.046  0.00  0.00    +0.061 A 
ATOM     14  C   UNL     1       0.052   0.049   0.737  0.00  0.00    +0.021 A 
ATOM     15 CL   UNL     1       0.897  -2.205  -0.503  0.00  0.00    -0.082 Cl
ATOM     16 CL   UNL     1       3.543  -0.655  -1.074  0.00  0.00    -0.080 Cl
ENDBRANCH   1  11
BRANCH   3  17
ATOM     17  N   UNL     1       6.060   3.528  -0.263  0.00  0.00    +0.063 N 
ATOM     18  O   UNL     1       6.533   3.169  -1.315  0.00  0.00    -0.126 OA
ATOM     19  O   UNL     1       6.653   3.318   0.770  0.00  0.00    -0.126 OA
ENDBRANCH   3  17
BRANCH   4  20
ATOM     20  N   UNL     1       5.838   6.368  -0.452  0.00  0.00    -0.246 N 
ATOM     21  H   UNL     1       6.704   5.932  -0.471  0.00  0.00    +0.172 HD
BRANCH  20  22
ATOM     22  N   UNL     1       5.754   7.763  -0.547  0.00  0.00    -0.231 N 
ATOM     23  C   UNL     1       6.877   8.499  -0.663  0.00  0.00    +0.260 C 
ATOM     24  O   UNL     1       7.963   7.953  -0.686  0.00  0.00    -0.269 OA
ATOM     25  H   UNL     1       4.888   8.200  -0.529  0.00  0.00    +0.173 HD
BRANCH  23  26
ATOM     26  C   UNL     1       6.789   9.972  -0.763  0.00  0.00    +0.038 A 
ATOM     27  C   UNL     1       5.544  10.603  -0.731  0.00  0.00    +0.014 A 
ATOM     28  C   UNL     1       5.469  11.977  -0.825  0.00  0.00    +0.016 A 
ATOM     29  C   UNL     1       6.624  12.730  -0.950  0.00  0.00    +0.018 A 
ATOM     30  C   UNL     1       7.861  12.109  -0.983  0.00  0.00    +0.016 A 
ATOM     31  C   UNL     1       7.951  10.737  -0.884  0.00  0.00    +0.014 A 
ATOM     32 BR   UNL     1       6.511  14.613  -1.078  0.00  0.00    -0.050 Br
ENDBRANCH  23  26
ENDBRANCH  20  22
ENDBRANCH   4  20
TORSDOF 5
