REMARK  Name = ZINC59829898
REMARK  15 active torsions:
REMARK  status: ('A' for Active; 'I' for Inactive)
REMARK    1  A    between atoms: C_1  and  C_2
REMARK    2  A    between atoms: C_3  and  C_11
REMARK    3  A    between atoms: C_4  and  C_10
REMARK    4  A    between atoms: N_5  and  C_7
REMARK    5  A    between atoms: C_7  and  C_8
REMARK    6  A    between atoms: N_12  and  N_13
REMARK    7  A    between atoms: C_17  and  S_20
REMARK    8  A    between atoms: N_18  and  N_19
REMARK    9  A    between atoms: S_20  and  C_21
REMARK   10  A    between atoms: C_21  and  C_22
REMARK   11  A    between atoms: N_24  and  C_25
REMARK   12  A    between atoms: C_27  and  O_33
REMARK   13  A    between atoms: C_29  and  O_31
REMARK   14  A    between atoms: O_31  and  C_32
REMARK   15  A    between atoms: O_33  and  C_34
REMARK                            x       y       z     vdW  Elec       q    Type
REMARK                         _______ _______ _______ _____ _____    ______ ____
ROOT
ATOM      1  N   UNL     1      -0.063   1.333  -4.149  0.00  0.00    -0.204 N 
ATOM      2  C   UNL     1      -0.079   2.690  -4.437  0.00  0.00    +0.254 A 
ATOM      3  N   UNL     1      -0.088   3.664  -3.560  0.00  0.00    -0.109 NA
ATOM      4  N   UNL     1      -0.104   4.878  -4.260  0.00  0.00    -0.119 NA
ATOM      5  C   UNL     1      -0.105   4.605  -5.543  0.00  0.00    +0.210 A 
ATOM      6  N   UNL     1      -0.083   3.247  -5.686  0.00  0.00    -0.211 N 
ATOM      7  H   UNL     1      -0.052   0.684  -4.870  0.00  0.00    +0.177 HD
ENDROOT
BRANCH   6   8
ATOM      8  N   UNL     1      -0.071   2.564  -6.869  0.00  0.00    -0.294 N 
ATOM      9  H   UNL     1      -1.010   2.371  -7.185  0.00  0.00    +0.163 HD
ATOM     10  H   UNL     1       0.451   3.067  -7.572  0.00  0.00    +0.163 HD
ENDBRANCH   6   8
BRANCH   1  12
ATOM     11  C   UNL     1      -0.045  -0.369  -2.547  0.00  0.00    +0.141 C 
ATOM     12  N   UNL     1      -0.061   0.900  -2.817  0.00  0.00    -0.187 NA
BRANCH  11  15
ATOM     13  C   UNL     1      -0.076   1.503   0.012  0.00  0.00    +0.068 C 
ATOM     14  C   UNL     1      -0.057  -0.004   0.004  0.00  0.00    +0.069 A 
ATOM     15  C   UNL     1      -0.043  -0.826  -1.144  0.00  0.00    +0.038 A 
ATOM     16  C   UNL     1      -0.027  -2.134  -0.710  0.00  0.00    +0.045 A 
ATOM     17  N   UNL     1      -0.031  -2.111   0.638  0.00  0.00    -0.264 N 
ATOM     18  N   UNL     1      -0.045  -0.776   1.057  0.00  0.00    -0.175 NA
ATOM     19  C   UNL     1      -0.009  -3.363  -1.582  0.00  0.00    +0.066 C 
BRANCH  17  20
ATOM     20  C   UNL     1      -0.018  -3.285   1.515  0.00  0.00    +0.170 C 
BRANCH  20  21
ATOM     21  C   UNL     1       1.407  -3.668   1.820  0.00  0.00    -0.012 C 
ATOM     22  C   UNL     1       1.806  -3.773   3.064  0.00  0.00    +0.006 C 
ENDBRANCH  20  21
ENDBRANCH  17  20
ENDBRANCH  11  15
ENDBRANCH   1  12
BRANCH   5  23
ATOM     23  S   UNL     1      -0.122   5.784  -6.852  0.00  0.00    -0.075 S 
BRANCH  23  24
ATOM     24  C   UNL     1      -0.139   7.386  -6.000  0.00  0.00    +0.173 C 
BRANCH  24  25
ATOM     25  C   UNL     1      -0.155   8.496  -7.018  0.00  0.00    +0.227 C 
ATOM     26  O   UNL     1      -0.155   8.234  -8.202  0.00  0.00    -0.275 OA
ATOM     27  N   UNL     1      -0.169   9.782  -6.613  0.00  0.00    -0.285 N 
ATOM     28  H   UNL     1      -0.236   9.992  -5.669  0.00  0.00    +0.155 HD
BRANCH  27  29
ATOM     29  C   UNL     1      -0.086  10.813  -7.555  0.00  0.00    +0.040 A 
ATOM     30  C   UNL     1       0.603  11.979  -7.250  0.00  0.00    +0.069 A 
ATOM     31  C   UNL     1       0.685  13.000  -8.184  0.00  0.00    +0.125 A 
ATOM     32  C   UNL     1       0.077  12.858  -9.423  0.00  0.00    +0.091 A 
ATOM     33  C   UNL     1      -0.612  11.694  -9.728  0.00  0.00    +0.125 A 
ATOM     34  C   UNL     1      -0.689  10.669  -8.797  0.00  0.00    +0.069 A 
BRANCH  33  35
ATOM     35  O   UNL     1      -1.208  11.555 -10.942  0.00  0.00    -0.495 OA
ATOM     36  C   UNL     1      -1.084  12.649 -11.854  0.00  0.00    +0.277 C 
ENDBRANCH  33  35
BRANCH  31  37
ATOM     37  O   UNL     1       1.360  14.141  -7.886  0.00  0.00    -0.495 OA
ATOM     38  C   UNL     1       1.403  15.152  -8.895  0.00  0.00    +0.277 C 
ENDBRANCH  31  37
ENDBRANCH  27  29
ENDBRANCH  24  25
ENDBRANCH  23  24
ENDBRANCH   5  23
TORSDOF 11
