REMARK  Name = ZINC59113417
REMARK  14 active torsions:
REMARK  status: ('A' for Active; 'I' for Inactive)
REMARK    1  A    between atoms: C_1  and  C_2
REMARK    2  A    between atoms: C_2  and  C_22
REMARK    3  A    between atoms: C_4  and  N_11
REMARK    4  A    between atoms: C_7  and  C_9
REMARK    5  A    between atoms: C_7  and  C_10
REMARK    6  A    between atoms: N_11  and  C_12
REMARK    7  A    between atoms: C_12  and  N_14
REMARK    8  A    between atoms: N_14  and  C_15
REMARK    9  A    between atoms: C_15  and  C_16
REMARK   10  A    between atoms: C_22  and  N_23
REMARK   11  A    between atoms: N_23  and  C_24
REMARK   12  A    between atoms: C_24  and  N_26
REMARK   13  A    between atoms: N_26  and  C_27
REMARK   14  A    between atoms: C_27  and  C_28
REMARK                            x       y       z     vdW  Elec       q    Type
REMARK                         _______ _______ _______ _____ _____    ______ ____
ROOT
ATOM      1  C   UNL     1      -0.019   1.527   0.010  0.00  0.00    +0.013 C 
ATOM      2  C   UNL     1       0.002  -0.004   0.002  0.00  0.00    -0.014 C 
ATOM      3  C   UNL     1      -1.418  -0.544  -0.123  0.00  0.00    +0.030 C 
ATOM      4  C   UNL     1      -2.191  -0.343   1.179  0.00  0.00    +0.073 C 
ATOM      5  C   UNL     1      -1.490  -1.119   2.293  0.00  0.00    +0.028 C 
ATOM      6  C   UNL     1      -0.073  -0.599   2.505  0.00  0.00    -0.033 C 
ATOM      7  C   UNL     1       0.729  -0.548   1.218  0.00  0.00    +0.014 C 
ATOM      8  C   UNL     1      -0.114   0.772   3.185  0.00  0.00    +0.011 C 
ATOM      9  C   UNL     1       0.641  -1.570   3.472  0.00  0.00    +0.011 C 
ENDROOT
BRANCH   4  10
ATOM     10  N   UNL     1      -3.554  -0.865   1.014  0.00  0.00    -0.324 N 
ATOM     11  H   UNL     1      -3.733  -1.556   0.357  0.00  0.00    +0.148 HD
BRANCH  10  12
ATOM     12  C   UNL     1      -4.556  -0.385   1.776  0.00  0.00    +0.131 C 
ATOM     13  S   UNL     1      -4.241   0.834   2.937  0.00  0.00    -0.019 S 
BRANCH  12  14
ATOM     14  N   UNL     1      -5.807  -0.864   1.625  0.00  0.00    -0.322 N 
ATOM     15  H   UNL     1      -5.986  -1.554   0.968  0.00  0.00    +0.148 HD
BRANCH  14  16
ATOM     16  C   UNL     1      -6.896  -0.341   2.454  0.00  0.00    +0.138 C 
BRANCH  16  17
ATOM     17  C   UNL     1      -8.182  -1.038   2.090  0.00  0.00    -0.030 A 
ATOM     18  C   UNL     1      -8.992  -0.519   1.096  0.00  0.00    +0.005 A 
ATOM     19  C   UNL     1     -10.172  -1.157   0.762  0.00  0.00    +0.000 A 
ATOM     20  C   UNL     1     -10.542  -2.315   1.421  0.00  0.00    +0.000 A 
ATOM     21  C   UNL     1      -9.732  -2.834   2.414  0.00  0.00    +0.000 A 
ATOM     22  C   UNL     1      -8.550  -2.198   2.745  0.00  0.00    +0.005 A 
ENDBRANCH  16  17
ENDBRANCH  14  16
ENDBRANCH  12  14
ENDBRANCH  10  12
ENDBRANCH   4  10
BRANCH   2  23
ATOM     23  C   UNL     1       0.782  -0.446  -1.256  0.00  0.00    +0.110 C 
BRANCH  23  24
ATOM     24  N   UNL     1       0.110   0.066  -2.453  0.00  0.00    -0.326 N 
ATOM     25  H   UNL     1      -0.699   0.594  -2.366  0.00  0.00    +0.148 HD
BRANCH  24  26
ATOM     26  C   UNL     1       0.615  -0.197  -3.674  0.00  0.00    +0.131 C 
ATOM     27  S   UNL     1       2.043  -1.129  -3.827  0.00  0.00    -0.019 S 
BRANCH  26  28
ATOM     28  N   UNL     1      -0.004   0.274  -4.775  0.00  0.00    -0.322 N 
ATOM     29  H   UNL     1      -0.813   0.802  -4.688  0.00  0.00    +0.148 HD
BRANCH  28  30
ATOM     30  C   UNL     1       0.546  -0.012  -6.103  0.00  0.00    +0.138 C 
BRANCH  30  31
ATOM     31  C   UNL     1      -0.327   0.623  -7.155  0.00  0.00    -0.030 A 
ATOM     32  C   UNL     1      -1.388  -0.082  -7.690  0.00  0.00    +0.005 A 
ATOM     33  C   UNL     1      -2.188   0.501  -8.655  0.00  0.00    +0.000 A 
ATOM     34  C   UNL     1      -1.927   1.789  -9.084  0.00  0.00    +0.000 A 
ATOM     35  C   UNL     1      -0.867   2.494  -8.548  0.00  0.00    +0.000 A 
ATOM     36  C   UNL     1      -0.069   1.913  -7.580  0.00  0.00    +0.005 A 
ENDBRANCH  30  31
ENDBRANCH  28  30
ENDBRANCH  26  28
ENDBRANCH  24  26
ENDBRANCH  23  24
ENDBRANCH   2  23
TORSDOF 11
