REMARK  Name = ZINC44255326
REMARK  8 active torsions:
REMARK  status: ('A' for Active; 'I' for Inactive)
REMARK    1  A    between atoms: C_1  and  N_2
REMARK    2  A    between atoms: C_3  and  S_18
REMARK    3  A    between atoms: C_4  and  C_11
REMARK    4  A    between atoms: C_5  and  C_7
REMARK    5  A    between atoms: C_11  and  C_13
REMARK    6  A    between atoms: C_11  and  N_17
REMARK    7  A    between atoms: C_13  and  C_14
REMARK    8  A    between atoms: S_18  and  C_19
REMARK                            x       y       z     vdW  Elec       q    Type
REMARK                         _______ _______ _______ _____ _____    ______ ____
ROOT
ATOM      1  C   UNL     1      -2.180   0.216   0.756  0.00  0.00    +0.173 C 
ATOM      2  N   UNL     1      -1.225  -0.882   0.589  0.00  0.00    -0.260 N 
ATOM      3  C   UNL     1      -0.375  -1.052  -0.458  0.00  0.00    +0.101 A 
ATOM      4  C   UNL     1       0.337  -2.190  -0.225  0.00  0.00    +0.002 A 
ATOM      5  C   UNL     1      -0.093  -2.723   0.993  0.00  0.00    +0.168 A 
ATOM      6  N   UNL     1      -1.021  -1.941   1.483  0.00  0.00    -0.166 NA
ENDROOT
BRANCH   5   7
ATOM      7  C   UNL     1       0.427  -3.982   1.637  0.00  0.00    +0.436 C 
ATOM      8  F   UNL     1       1.795  -3.842   1.896  0.00  0.00    -0.164 F 
ATOM      9  F   UNL     1      -0.254  -4.208   2.837  0.00  0.00    -0.164 F 
ATOM     10  F   UNL     1       0.225  -5.065   0.774  0.00  0.00    -0.164 F 
ENDBRANCH   5   7
BRANCH   4  11
ATOM     11  C   UNL     1       1.399  -2.772  -1.122  0.00  0.00    -0.031 C 
BRANCH  11  12
ATOM     12  N   UNL     1       0.918  -2.777  -2.510  0.00  0.00    +0.383 N 
ATOM     13  H   UNL     1       0.015  -3.227  -2.552  0.00  0.00    -0.089 HD
ATOM     14  H   UNL     1       0.835  -1.827  -2.841  0.00  0.00    -0.089 HD
ATOM     15  H   UNL     1       1.572  -3.280  -3.091  0.00  0.00    -0.089 HD
ENDBRANCH  11  12
BRANCH  11  16
ATOM     16  C   UNL     1       2.669  -1.925  -1.025  0.00  0.00    +0.084 C 
BRANCH  16  17
ATOM     17  C   UNL     1       3.776  -2.589  -1.801  0.00  0.00    +0.209 C 
ATOM     18  O   UNL     1       3.570  -3.637  -2.375  0.00  0.00    -0.276 OA
ATOM     19  N   UNL     1       4.996  -2.018  -1.857  0.00  0.00    -0.329 N 
ATOM     20  H   UNL     1       5.161  -1.180  -1.398  0.00  0.00    +0.145 HD
ATOM     21  H   UNL     1       5.709  -2.446  -2.357  0.00  0.00    +0.145 HD
ENDBRANCH  16  17
ENDBRANCH  11  16
ENDBRANCH   4  11
BRANCH   3  22
ATOM     22  S   UNL     1      -0.222   0.005  -1.859  0.00  0.00    -0.070 S 
BRANCH  22  23
ATOM     23  C   UNL     1       0.239   1.560  -1.171  0.00  0.00    +0.014 A 
ATOM     24  C   UNL     1       0.397   1.695   0.204  0.00  0.00    +0.016 A 
ATOM     25  C   UNL     1       0.758   2.915   0.740  0.00  0.00    +0.016 A 
ATOM     26  C   UNL     1       0.963   4.003  -0.090  0.00  0.00    +0.018 A 
ATOM     27  C   UNL     1       0.806   3.873  -1.459  0.00  0.00    +0.016 A 
ATOM     28  C   UNL     1       0.450   2.654  -2.001  0.00  0.00    +0.016 A 
ATOM     29 BR   UNL     1       1.457   5.673   0.649  0.00  0.00    -0.050 Br
ENDBRANCH  22  23
ENDBRANCH   3  22
TORSDOF 7
