REMARK  Name = ZINC13141063
REMARK  8 active torsions:
REMARK  status: ('A' for Active; 'I' for Inactive)
REMARK    1  A    between atoms: C_4  and  C_7
REMARK    2  A    between atoms: C_7  and  N_8
REMARK    3  A    between atoms: C_9  and  N_36
REMARK    4  A    between atoms: C_10  and  N_17
REMARK    5  A    between atoms: N_17  and  C_18
REMARK    6  A    between atoms: C_18  and  C_19
REMARK    7  A    between atoms: C_25  and  C_27
REMARK    8  A    between atoms: C_28  and  C_29
REMARK                            x       y       z     vdW  Elec       q    Type
REMARK                         _______ _______ _______ _____ _____    ______ ____
ROOT
ATOM      1  N   UNL     1      -2.814   1.700   2.924  0.00  0.00    -0.276 N 
ATOM      2  C   UNL     1      -2.393   0.615   3.656  0.00  0.00    +0.128 A 
ATOM      3  C   UNL     1      -2.897  -0.635   3.359  0.00  0.00    +0.140 A 
ATOM      4  C   UNL     1      -3.821  -0.762   2.304  0.00  0.00    +0.277 A 
ATOM      5  O   UNL     1      -4.279  -1.855   2.017  0.00  0.00    -0.266 OA
ATOM      6  N   UNL     1      -4.196   0.333   1.614  0.00  0.00    -0.273 N 
ATOM      7  H   UNL     1      -4.852   0.244   0.864  0.00  0.00    +0.173 HD
ATOM      8  C   UNL     1      -3.698   1.544   1.922  0.00  0.00    +0.331 A 
ATOM      9  O   UNL     1      -4.054   2.516   1.283  0.00  0.00    -0.246 OA
ENDROOT
BRANCH   3  10
ATOM     10  N   UNL     1      -2.490  -1.766   4.095  0.00  0.00    -0.258 N 
ATOM     11  C   UNL     1      -1.790  -2.747   3.492  0.00  0.00    +0.244 C 
ATOM     12  O   UNL     1      -1.431  -2.616   2.336  0.00  0.00    -0.270 OA
BRANCH  11  13
ATOM     13  C   UNL     1      -1.462  -3.970   4.226  0.00  0.00    +0.068 C 
ATOM     14  C   UNL     1      -0.762  -4.952   3.622  0.00  0.00    +0.013 C 
BRANCH  14  15
ATOM     15  C   UNL     1      -0.432  -6.182   4.360  0.00  0.00    -0.025 A 
ATOM     16  C   UNL     1      -0.838  -6.333   5.689  0.00  0.00    +0.009 A 
ATOM     17  C   UNL     1      -0.531  -7.490   6.372  0.00  0.00    +0.020 A 
ATOM     18  C   UNL     1       0.189  -8.497   5.749  0.00  0.00    +0.041 A 
ATOM     19  C   UNL     1       0.600  -8.351   4.434  0.00  0.00    +0.020 A 
ATOM     20  C   UNL     1       0.294  -7.202   3.736  0.00  0.00    +0.009 A 
ATOM     21 CL   UNL     1       0.578  -9.947   6.619  0.00  0.00    -0.084 Cl
ENDBRANCH  14  15
ENDBRANCH  11  13
BRANCH  10  22
ATOM     22  C   UNL     1      -2.828  -1.876   5.517  0.00  0.00    +0.145 C 
BRANCH  22  23
ATOM     23  C   UNL     1      -4.114  -2.689   5.674  0.00  0.00    +0.136 C 
ATOM     24  C   UNL     1      -4.483  -2.804   7.166  0.00  0.00    +0.035 C 
ATOM     25  C   UNL     1      -5.896  -2.179   7.257  0.00  0.00    +0.031 C 
ATOM     26  C   UNL     1      -6.391  -2.280   5.791  0.00  0.00    +0.160 C 
ATOM     27  O   UNL     1      -5.201  -2.019   5.013  0.00  0.00    -0.375 OA
ENDBRANCH  22  23
ENDBRANCH  10  22
ENDBRANCH   3  10
BRANCH   2  28
ATOM     28  N   UNL     1      -1.486   0.774   4.676  0.00  0.00    -0.343 N 
ATOM     29  H   UNL     1      -1.098   1.646   4.849  0.00  0.00    +0.144 HD
ATOM     30  H   UNL     1      -1.233   0.014   5.224  0.00  0.00    +0.144 HD
ENDBRANCH   2  28
BRANCH   1  31
ATOM     31  C   UNL     1      -2.291   3.034   3.232  0.00  0.00    +0.163 C 
BRANCH  31  35
ATOM     32  C   UNL     1      -4.811   4.925   6.116  0.00  0.00    +0.000 A 
ATOM     33  C   UNL     1      -3.741   4.156   6.532  0.00  0.00    +0.000 A 
ATOM     34  C   UNL     1      -2.928   3.541   5.599  0.00  0.00    +0.005 A 
ATOM     35  C   UNL     1      -3.182   3.699   4.249  0.00  0.00    -0.028 A 
ATOM     36  C   UNL     1      -4.255   4.465   3.833  0.00  0.00    +0.005 A 
ATOM     37  C   UNL     1      -5.069   5.080   4.766  0.00  0.00    +0.000 A 
ENDBRANCH  31  35
ENDBRANCH   1  31
TORSDOF 8
