REMARK  Name = ZINC15947050
REMARK  8 active torsions:
REMARK  status: ('A' for Active; 'I' for Inactive)
REMARK    1  A    between atoms: C_1  and  C_2
REMARK    2  A    between atoms: C_2  and  C_3
REMARK    3  A    between atoms: C_2  and  N_4
REMARK    4  A    between atoms: C_12  and  O_34
REMARK    5  A    between atoms: C_14  and  C_17
REMARK    6  A    between atoms: C_20  and  O_23
REMARK    7  A    between atoms: O_23  and  C_24
REMARK    8  A    between atoms: C_24  and  C_26
REMARK                            x       y       z     vdW  Elec       q    Type
REMARK                         _______ _______ _______ _____ _____    ______ ____
ROOT
ATOM      1  N   UNL     1       1.210  -0.227   1.282  0.00  0.00    +0.384 N 
ATOM      2  C   UNL     1       1.606  -1.638   1.372  0.00  0.00    -0.073 C 
ATOM      3  C   UNL     1       2.631  -1.829   2.494  0.00  0.00    +0.018 C 
ATOM      4  C   UNL     1       2.061  -1.206   3.761  0.00  0.00    -0.027 A 
ATOM      5  C   UNL     1       1.028  -0.333   3.681  0.00  0.00    -0.021 A 
ATOM      6  S   UNL     1       0.696   0.127   5.357  0.00  0.00    -0.080 S 
ATOM      7  C   UNL     1       1.856  -0.777   6.124  0.00  0.00    +0.080 A 
ATOM      8  C   UNL     1       2.530  -1.466   5.107  0.00  0.00    +0.067 A 
ATOM      9  C   UNL     1       3.630  -2.379   5.511  0.00  0.00    +0.220 C 
ATOM     10  N   UNL     1       4.065  -2.298   6.739  0.00  0.00    -0.223 NA
ATOM     11  C   UNL     1       3.591  -1.331   7.721  0.00  0.00    +0.224 C 
ATOM     12  N   UNL     1       2.203  -0.916   7.449  0.00  0.00    -0.313 N 
ATOM     13  C   UNL     1       0.349   0.119   2.428  0.00  0.00    -0.035 C 
ATOM     14  H   UNL     1       1.569  -0.749   8.164  0.00  0.00    +0.149 HD
ATOM     15  H   UNL     1       2.034   0.355   1.293  0.00  0.00    -0.081 HD
ENDROOT
BRANCH  11  16
ATOM     16  C   UNL     1       4.482  -0.117   7.686  0.00  0.00    -0.005 A 
ATOM     17  C   UNL     1       3.969   1.126   8.009  0.00  0.00    +0.011 A 
ATOM     18  C   UNL     1       4.784   2.241   7.976  0.00  0.00    +0.047 A 
ATOM     19  C   UNL     1       6.118   2.113   7.620  0.00  0.00    +0.132 A 
ATOM     20  C   UNL     1       6.631   0.865   7.297  0.00  0.00    +0.047 A 
ATOM     21  C   UNL     1       5.814  -0.247   7.336  0.00  0.00    +0.011 A 
BRANCH  19  22
ATOM     22  O   UNL     1       6.922   3.209   7.587  0.00  0.00    -0.422 OA
BRANCH  22  23
ATOM     23  C   UNL     1       7.371   3.700   8.759  0.00  0.00    +0.346 C 
ATOM     24  O   UNL     1       6.984   3.221   9.806  0.00  0.00    -0.244 OA
BRANCH  23  25
ATOM     25  C   UNL     1       8.332   4.820   8.770  0.00  0.00    +0.078 A 
ATOM     26  C   UNL     1       8.774   5.377   7.567  0.00  0.00    +0.018 A 
ATOM     27  C   UNL     1       9.671   6.423   7.585  0.00  0.00    +0.021 A 
ATOM     28  C   UNL     1      10.136   6.922   8.791  0.00  0.00    +0.042 A 
ATOM     29  C   UNL     1       9.703   6.375   9.987  0.00  0.00    +0.040 A 
ATOM     30  C   UNL     1       8.799   5.332   9.984  0.00  0.00    +0.056 A 
ATOM     31 CL   UNL     1       8.250   4.652  11.484  0.00  0.00    -0.083 Cl
ATOM     32 CL   UNL     1      11.268   8.239   8.803  0.00  0.00    -0.083 Cl
ENDBRANCH  23  25
ENDBRANCH  22  23
ENDBRANCH  19  22
ENDBRANCH  11  16
BRANCH   1  34
ATOM     33  C   UNL     1      -0.027   1.441  -0.017  0.00  0.00    -0.014 C 
ATOM     34  C   UNL     1       0.472  -0.005   0.031  0.00  0.00    -0.074 C 
ATOM     35  C   UNL     1       1.397  -0.265  -1.160  0.00  0.00    -0.014 C 
ENDBRANCH   1  34
BRANCH   9  36
ATOM     36  O   UNL     1       4.161  -3.264   4.637  0.00  0.00    -0.492 OA
ATOM     37  H   UNL     1       4.870  -3.807   5.009  0.00  0.00    +0.294 HD
ENDBRANCH   9  36
TORSDOF 6
