REMARK  Name = ZINC12363559
REMARK  7 active torsions:
REMARK  status: ('A' for Active; 'I' for Inactive)
REMARK    1  A    between atoms: C_2  and  C_3
REMARK    2  A    between atoms: C_3  and  N_4
REMARK    3  A    between atoms: C_19  and  S_28
REMARK    4  A    between atoms: C_23  and  N_27
REMARK    5  A    between atoms: C_24  and  C_25
REMARK    6  A    between atoms: S_28  and  C_29
REMARK    7  A    between atoms: C_29  and  C_30
REMARK                            x       y       z     vdW  Elec       q    Type
REMARK                         _______ _______ _______ _____ _____    ______ ____
ROOT
ATOM      1  N   UNL     1       0.104   5.197   0.023  0.00  0.00    -0.266 N 
ATOM      2  C   UNL     1      -0.107   3.830   0.021  0.00  0.00    +0.041 A 
ATOM      3  C   UNL     1      -1.308   3.119   0.029  0.00  0.00    +0.024 A 
ATOM      4  C   UNL     1      -1.225   1.735   0.017  0.00  0.00    +0.002 A 
ATOM      5  C   UNL     1      -0.013   1.076   0.008  0.00  0.00    +0.000 A 
ATOM      6  C   UNL     1       1.191   1.773   0.000  0.00  0.00    +0.007 A 
ATOM      7  C   UNL     1       1.115   3.149   0.008  0.00  0.00    -0.001 A 
ATOM      8  C   UNL     1       2.184   4.200   0.008  0.00  0.00    +0.145 C 
ATOM      9  C   UNL     1       1.416   5.507   0.015  0.00  0.00    +0.241 C 
ATOM     10  O   UNL     1       1.893   6.622   0.013  0.00  0.00    -0.274 OA
ATOM     11  C   UNL     1       3.023   4.108  -1.233  0.00  0.00    +0.081 A 
ATOM     12  C   UNL     1       2.498   4.510  -2.467  0.00  0.00    +0.259 A 
ATOM     13  O   UNL     1       1.358   4.936  -2.548  0.00  0.00    -0.267 OA
ATOM     14  N   UNL     1       3.276   4.415  -3.566  0.00  0.00    -0.302 N 
ATOM     15  H   UNL     1       2.930   4.690  -4.429  0.00  0.00    +0.171 HD
ATOM     16  C   UNL     1       4.547   3.934  -3.465  0.00  0.00    +0.171 A 
ATOM     17  N   UNL     1       5.046   3.557  -2.306  0.00  0.00    -0.208 NA
ATOM     18  C   UNL     1       4.322   3.632  -1.183  0.00  0.00    +0.137 A 
ATOM     19  N   UNL     1       4.871   3.235   0.022  0.00  0.00    -0.287 N 
ATOM     20  C   UNL     1       4.299   3.631   1.208  0.00  0.00    +0.102 C 
ATOM     21  C   UNL     1       3.026   4.100   1.247  0.00  0.00    +0.089 C 
ATOM     22  H   UNL     1       5.664   2.676   0.032  0.00  0.00    +0.155 HD
ENDROOT
BRANCH  20  23
ATOM     23  N   UNL     1       5.027   3.552   2.370  0.00  0.00    -0.346 N 
ATOM     24  H   UNL     1       4.630   3.830   3.211  0.00  0.00    +0.144 HD
ATOM     25  H   UNL     1       5.938   3.218   2.351  0.00  0.00    +0.144 HD
ENDBRANCH  20  23
BRANCH  21  26
ATOM     26  C   UNL     1       2.471   4.510   2.502  0.00  0.00    +0.100 C 
ATOM     27  N   UNL     1       2.031   4.835   3.497  0.00  0.00    -0.191 NA
ENDBRANCH  21  26
BRANCH   1  28
ATOM     28  C   UNL     1      -0.972   6.192   0.032  0.00  0.00    +0.140 C 
BRANCH  28  30
ATOM     29  C   UNL     1      -1.309   7.776   1.859  0.00  0.00    +0.005 C 
ATOM     30  C   UNL     1      -1.332   6.529   1.456  0.00  0.00    -0.015 C 
ENDBRANCH  28  30
ENDBRANCH   1  28
BRANCH  16  31
ATOM     31  S   UNL     1       5.542   3.815  -4.913  0.00  0.00    -0.083 S 
BRANCH  31  32
ATOM     32  C   UNL     1       7.061   3.139  -4.197  0.00  0.00    +0.115 C 
BRANCH  32  33
ATOM     33  C   UNL     1       8.087   2.947  -5.283  0.00  0.00    -0.002 A 
ATOM     34  C   UNL     1       8.156   1.747  -5.965  0.00  0.00    +0.007 A 
ATOM     35  C   UNL     1       9.093   1.572  -6.966  0.00  0.00    +0.000 A 
ATOM     36  C   UNL     1       9.971   2.594  -7.278  0.00  0.00    +0.003 A 
ATOM     37  C   UNL     1       9.908   3.793  -6.594  0.00  0.00    +0.038 A 
ATOM     38  C   UNL     1       8.965   3.971  -5.595  0.00  0.00    +0.127 A 
ATOM     39  F   UNL     1       8.903   5.143  -4.925  0.00  0.00    -0.205 F 
ENDBRANCH  32  33
ENDBRANCH  31  32
ENDBRANCH  16  31
TORSDOF 7
