REMARK  Name = ZINC12416281
REMARK  9 active torsions:
REMARK  status: ('A' for Active; 'I' for Inactive)
REMARK    1  A    between atoms: C_1  and  C_2
REMARK    2  A    between atoms: C_3  and  C_30
REMARK    3  A    between atoms: C_4  and  C_20
REMARK    4  A    between atoms: C_10  and  C_15
REMARK    5  A    between atoms: C_22  and  O_28
REMARK    6  A    between atoms: C_25  and  O_26
REMARK    7  A    between atoms: O_26  and  C_27
REMARK    8  A    between atoms: O_28  and  C_29
REMARK    9  A    between atoms: N_32  and  C_33
REMARK                            x       y       z     vdW  Elec       q    Type
REMARK                         _______ _______ _______ _____ _____    ______ ____
ROOT
ATOM      1  C   UNL     1      -1.414   1.986  -0.056  0.00  0.00    +0.061 C 
ATOM      2  C   UNL     1      -0.067   1.309  -0.041  0.00  0.00    +0.014 C 
ATOM      3  C   UNL     1       0.006  -0.031  -0.010  0.00  0.00    +0.043 C 
ATOM      4  C   UNL     1       1.329  -0.739   0.008  0.00  0.00    +0.094 C 
ATOM      5  C   UNL     1       2.439   0.177  -0.440  0.00  0.00    +0.024 C 
ATOM      6  C   UNL     1       2.265   1.516  -0.455  0.00  0.00    +0.016 C 
ATOM      7  N   UNL     1       1.073   2.065  -0.066  0.00  0.00    -0.321 N 
ATOM      8  C   UNL     1       3.370   2.439  -0.905  0.00  0.00    +0.060 C 
ATOM      9  C   UNL     1       4.727   1.814  -0.577  0.00  0.00    +0.039 C 
ATOM     10  C   UNL     1       4.817   0.453  -1.276  0.00  0.00    +0.088 C 
ATOM     11  C   UNL     1       3.658  -0.400  -0.837  0.00  0.00    +0.162 C 
ATOM     12  O   UNL     1       3.778  -1.609  -0.825  0.00  0.00    -0.292 OA
ATOM     13  H   UNL     1       1.037   3.124   0.230  0.00  0.00    +0.152 HD
ENDROOT
BRANCH   4  14
ATOM     14  C   UNL     1       1.615  -1.216   1.409  0.00  0.00    +0.010 A 
ATOM     15  C   UNL     1       1.705  -0.306   2.444  0.00  0.00    +0.053 A 
ATOM     16  C   UNL     1       1.968  -0.745   3.733  0.00  0.00    +0.121 A 
ATOM     17  C   UNL     1       2.142  -2.098   3.982  0.00  0.00    +0.049 A 
ATOM     18  C   UNL     1       2.052  -3.009   2.948  0.00  0.00    +0.049 A 
ATOM     19  C   UNL     1       1.784  -2.570   1.659  0.00  0.00    +0.124 A 
BRANCH  19  20
ATOM     20  O   UNL     1       1.691  -3.466   0.641  0.00  0.00    -0.495 OA
ATOM     21  C   UNL     1       1.875  -4.844   0.971  0.00  0.00    +0.277 C 
ENDBRANCH  19  20
BRANCH  16  22
ATOM     22  O   UNL     1       2.055   0.151   4.752  0.00  0.00    -0.495 OA
ATOM     23  C   UNL     1       2.329  -0.371   6.053  0.00  0.00    +0.277 C 
ENDBRANCH  16  22
ENDBRANCH   4  14
BRANCH   9  24
ATOM     24  C   UNL     1       5.831   2.712  -1.073  0.00  0.00    -0.006 A 
ATOM     25  C   UNL     1       6.832   3.300  -0.373  0.00  0.00    +0.011 A 
ATOM     26  C   UNL     1       7.744   4.092  -1.045  0.00  0.00    +0.008 A 
ATOM     27  C   UNL     1       7.611   4.258  -2.384  0.00  0.00    +0.045 A 
ATOM     28  S   UNL     1       6.165   3.271  -2.735  0.00  0.00    -0.101 S 
ENDBRANCH   9  24
BRANCH   3  29
ATOM     29  C   UNL     1      -1.189  -0.792   0.006  0.00  0.00    +0.247 C 
ATOM     30  O   UNL     1      -1.520  -1.427  -0.979  0.00  0.00    -0.270 OA
ATOM     31  N   UNL     1      -1.960  -0.813   1.111  0.00  0.00    -0.282 N 
ATOM     32  H   UNL     1      -1.697  -0.188   1.977  0.00  0.00    +0.155 HD
BRANCH  31  33
ATOM     33  C   UNL     1      -3.095  -1.629   1.157  0.00  0.00    +0.034 A 
ATOM     34  C   UNL     1      -3.462  -2.245   2.346  0.00  0.00    +0.023 A 
ATOM     35  C   UNL     1      -4.585  -3.047   2.389  0.00  0.00    +0.002 A 
ATOM     36  C   UNL     1      -5.339  -3.245   1.247  0.00  0.00    +0.000 A 
ATOM     37  C   UNL     1      -4.973  -2.638   0.059  0.00  0.00    +0.002 A 
ATOM     38  C   UNL     1      -3.853  -1.831   0.011  0.00  0.00    +0.023 A 
ENDBRANCH  31  33
ENDBRANCH   3  29
TORSDOF 6
