REMARK  Name = ZINC39675249
REMARK  9 active torsions:
REMARK  status: ('A' for Active; 'I' for Inactive)
REMARK    1  A    between atoms: C_1  and  C_2
REMARK    2  A    between atoms: C_2  and  C_4
REMARK    3  A    between atoms: C_2  and  N_14
REMARK    4  A    between atoms: C_4  and  C_5
REMARK    5  A    between atoms: C_5  and  C_6
REMARK    6  A    between atoms: C_9  and  O_12
REMARK    7  A    between atoms: O_12  and  C_13
REMARK    8  A    between atoms: C_15  and  C_17
REMARK    9  A    between atoms: C_28  and  C_30
REMARK                            x       y       z     vdW  Elec       q    Type
REMARK                         _______ _______ _______ _____ _____    ______ ____
ROOT
ATOM      1  C   UNL     1      -0.958   1.615  -1.718  0.00  0.00    +0.100 C 
ATOM      2  C   UNL     1      -0.629   2.829  -0.820  0.00  0.00    +0.121 C 
ATOM      3  N   UNL     1       0.510   3.496  -1.494  0.00  0.00    -0.296 N 
ATOM      4  C   UNL     1       0.191   3.400  -2.939  0.00  0.00    +0.115 C 
ATOM      5  C   UNL     1      -0.421   1.995  -3.108  0.00  0.00    -0.004 C 
ATOM      6  C   UNL     1      -1.561   2.035  -4.122  0.00  0.00    -0.010 C 
ATOM      7  C   UNL     1      -0.995   2.357  -5.507  0.00  0.00    -0.082 C 
ATOM      8  N   UNL     1      -0.011   1.336  -5.886  0.00  0.00    +0.379 N 
ATOM      9  C   UNL     1       1.127   1.368  -4.959  0.00  0.00    -0.082 C 
ATOM     10  C   UNL     1       0.650   1.003  -3.550  0.00  0.00    -0.010 C 
ATOM     11  C   UNL     1       1.592   4.061  -0.922  0.00  0.00    +0.247 C 
ATOM     12  O   UNL     1       2.419   4.625  -1.612  0.00  0.00    -0.270 OA
ATOM     13  H   UNL     1      -0.444   0.425  -5.853  0.00  0.00    -0.086 HD
ATOM     14  H   UNL     1       0.316   1.516  -6.824  0.00  0.00    -0.086 HD
ENDROOT
BRANCH  11  15
ATOM     15  C   UNL     1       1.772   3.997   0.544  0.00  0.00    +0.040 A 
ATOM     16  C   UNL     1       2.116   2.790   1.155  0.00  0.00    +0.033 A 
ATOM     17  C   UNL     1       2.283   2.735   2.524  0.00  0.00    +0.043 A 
ATOM     18  C   UNL     1       2.110   3.875   3.291  0.00  0.00    +0.040 A 
ATOM     19  C   UNL     1       1.769   5.075   2.691  0.00  0.00    +0.043 A 
ATOM     20  C   UNL     1       1.605   5.143   1.321  0.00  0.00    +0.033 A 
ATOM     21 CL   UNL     1       1.554   6.498   3.661  0.00  0.00    -0.083 Cl
ATOM     22 CL   UNL     1       2.710   1.235   3.286  0.00  0.00    -0.083 Cl
ENDBRANCH  11  15
BRANCH   1  24
ATOM     23  N   UNL     1      -0.783  -0.838  -1.451  0.00  0.00    -0.312 N 
ATOM     24  C   UNL     1      -0.261   0.381  -1.206  0.00  0.00    +0.218 C 
ATOM     25  O   UNL     1       0.768   0.483  -0.574  0.00  0.00    -0.275 OA
ATOM     26  H   UNL     1      -1.565  -0.925  -2.018  0.00  0.00    +0.149 HD
BRANCH  23  28
ATOM     27  C   UNL     1       0.943  -2.539  -1.781  0.00  0.00    +0.028 C 
ATOM     28  C   UNL     1      -0.169  -2.030  -0.861  0.00  0.00    +0.070 C 
BRANCH  28  29
ATOM     29  C   UNL     1      -1.230  -3.119  -0.692  0.00  0.00    +0.026 C 
BRANCH  29  30
ATOM     30  C   UNL     1      -1.766  -3.527  -2.065  0.00  0.00    +0.037 C 
BRANCH  30  31
ATOM     31  C   UNL     1      -2.889  -4.517  -1.892  0.00  0.00    -0.047 A 
ATOM     32  C   UNL     1      -2.626  -5.874  -1.939  0.00  0.00    +0.007 A 
ATOM     33  C   UNL     1      -3.654  -6.784  -1.781  0.00  0.00    +0.046 A 
ATOM     34  C   UNL     1      -4.950  -6.335  -1.575  0.00  0.00    +0.120 A 
ATOM     35  C   UNL     1      -5.211  -4.973  -1.527  0.00  0.00    +0.046 A 
ATOM     36  C   UNL     1      -4.179  -4.067  -1.680  0.00  0.00    +0.007 A 
BRANCH  34  37
ATOM     37  O   UNL     1      -5.963  -7.227  -1.419  0.00  0.00    -0.495 OA
ATOM     38  C   UNL     1      -7.272  -6.694  -1.210  0.00  0.00    +0.277 C 
ENDBRANCH  34  37
ENDBRANCH  30  31
ENDBRANCH  29  30
ENDBRANCH  28  29
ENDBRANCH  23  28
ENDBRANCH   1  24
TORSDOF 7
