REMARK  Name = ZINC64143411
REMARK  10 active torsions:
REMARK  status: ('A' for Active; 'I' for Inactive)
REMARK    1  A    between atoms: C_1  and  C_2
REMARK    2  A    between atoms: C_4  and  C_8
REMARK    3  A    between atoms: C_8  and  C_9
REMARK    4  A    between atoms: C_9  and  N_10
REMARK    5  A    between atoms: N_10  and  C_11
REMARK    6  A    between atoms: C_11  and  C_12
REMARK    7  A    between atoms: N_15  and  C_26
REMARK    8  A    between atoms: C_17  and  C_19
REMARK    9  A    between atoms: C_29  and  O_32
REMARK   10  A    between atoms: O_32  and  C_33
REMARK                            x       y       z     vdW  Elec       q    Type
REMARK                         _______ _______ _______ _____ _____    ______ ____
ROOT
ATOM      1  C   UNL     1      -6.241   6.225  -5.402  0.00  0.00    +0.014 C 
ATOM      2  C   UNL     1      -7.298   6.359  -4.280  0.00  0.00    +0.127 C 
ATOM      3  N   UNL     1      -8.003   7.621  -4.556  0.00  0.00    -0.266 N 
ATOM      4  N   UNL     1      -7.529   8.174  -5.718  0.00  0.00    -0.232 NA
ATOM      5  C   UNL     1      -6.134   7.694  -5.893  0.00  0.00    +0.107 C 
ATOM      6  H   UNL     1      -8.103   7.911  -6.505  0.00  0.00    +0.145 HD
ENDROOT
BRANCH   5   7
ATOM      7  C   UNL     1      -5.722   7.750  -7.342  0.00  0.00    -0.010 A 
ATOM      8  C   UNL     1      -5.823   6.621  -8.133  0.00  0.00    +0.006 A 
ATOM      9  C   UNL     1      -5.445   6.672  -9.462  0.00  0.00    +0.000 A 
ATOM     10  C   UNL     1      -4.965   7.852 -10.000  0.00  0.00    +0.001 A 
ATOM     11  C   UNL     1      -4.863   8.981  -9.209  0.00  0.00    +0.020 A 
ATOM     12  C   UNL     1      -5.247   8.932  -7.881  0.00  0.00    +0.046 A 
ATOM     13 CL   UNL     1      -5.126  10.352  -6.889  0.00  0.00    -0.083 Cl
ENDBRANCH   5   7
BRANCH   3  14
ATOM     14  C   UNL     1      -9.008   8.174  -3.753  0.00  0.00    +0.045 A 
ATOM     15  C   UNL     1      -9.405   7.524  -2.592  0.00  0.00    +0.028 A 
ATOM     16  C   UNL     1     -10.395   8.071  -1.800  0.00  0.00    +0.047 A 
ATOM     17  C   UNL     1     -10.994   9.268  -2.165  0.00  0.00    +0.120 A 
ATOM     18  C   UNL     1     -10.598   9.917  -3.325  0.00  0.00    +0.047 A 
ATOM     19  C   UNL     1      -9.604   9.375  -4.115  0.00  0.00    +0.028 A 
BRANCH  17  20
ATOM     20  O   UNL     1     -11.970   9.805  -1.384  0.00  0.00    -0.495 OA
ATOM     21  C   UNL     1     -12.543  11.040  -1.820  0.00  0.00    +0.277 C 
ENDBRANCH  17  20
ENDBRANCH   3  14
BRANCH   1  22
ATOM     22  C   UNL     1      -4.904   5.733  -4.842  0.00  0.00    -0.076 C 
BRANCH  22  23
ATOM     23  N   UNL     1      -5.009   4.307  -4.506  0.00  0.00    +0.380 N 
ATOM     24  H   UNL     1      -5.240   3.782  -5.337  0.00  0.00    -0.086 HD
ATOM     25  H   UNL     1      -5.732   4.176  -3.814  0.00  0.00    -0.086 HD
BRANCH  23  26
ATOM     26  C   UNL     1      -3.726   3.835  -3.969  0.00  0.00    -0.075 C 
BRANCH  26  27
ATOM     27  C   UNL     1      -3.835   2.349  -3.619  0.00  0.00    +0.055 C 
BRANCH  27  31
ATOM     28  C   UNL     1      -0.330   0.294  -0.598  0.00  0.00    +0.065 C 
ATOM     29  C   UNL     1      -1.007   0.976  -1.759  0.00  0.00    +0.032 A 
ATOM     30  N   UNL     1      -2.342   1.251  -1.878  0.00  0.00    -0.346 N 
ATOM     31  C   UNL     1      -2.519   1.865  -3.068  0.00  0.00    +0.105 A 
ATOM     32  H   UNL     1      -3.033   1.043  -1.229  0.00  0.00    +0.167 HD
ATOM     33  N   UNL     1      -1.361   1.969  -3.661  0.00  0.00    -0.241 NA
ATOM     34  C   UNL     1      -0.413   1.436  -2.877  0.00  0.00    +0.133 A 
ENDBRANCH  27  31
ENDBRANCH  26  27
ENDBRANCH  23  26
ENDBRANCH  22  23
ENDBRANCH   1  22
TORSDOF 8
