REMARK  Name = ZINC20969656
REMARK  10 active torsions:
REMARK  status: ('A' for Active; 'I' for Inactive)
REMARK    1  A    between atoms: C_1  and  C_2
REMARK    2  A    between atoms: C_2  and  C_3
REMARK    3  A    between atoms: C_2  and  C_4
REMARK    4  A    between atoms: C_2  and  C_5
REMARK    5  A    between atoms: C_8  and  C_11
REMARK    6  A    between atoms: C_14  and  S_17
REMARK    7  A    between atoms: N_15  and  N_16
REMARK    8  A    between atoms: S_17  and  C_18
REMARK    9  A    between atoms: C_18  and  C_19
REMARK   10  A    between atoms: N_21  and  C_22
REMARK                            x       y       z     vdW  Elec       q    Type
REMARK                         _______ _______ _______ _____ _____    ______ ____
ROOT
ATOM      1  C   UNL     1       6.798   9.494  -1.320  0.00  0.00    +0.182 A 
ATOM      2  N   UNL     1       7.104   8.323  -0.812  0.00  0.00    -0.127 NA
ATOM      3  N   UNL     1       6.053   7.587  -0.740  0.00  0.00    -0.121 NA
ATOM      4  C   UNL     1       5.012   8.241  -1.206  0.00  0.00    +0.209 A 
ATOM      5  N   UNL     1       5.448   9.477  -1.587  0.00  0.00    -0.224 N 
ENDROOT
BRANCH   1   9
ATOM      6  C   UNL     1       9.467  12.726  -2.006  0.00  0.00    -0.042 A 
ATOM      7  C   UNL     1       8.102  12.951  -1.989  0.00  0.00    +0.005 A 
ATOM      8  C   UNL     1       7.230  11.906  -1.766  0.00  0.00    +0.012 A 
ATOM      9  C   UNL     1       7.727  10.619  -1.558  0.00  0.00    +0.021 A 
ATOM     10  C   UNL     1       9.105  10.399  -1.571  0.00  0.00    +0.012 A 
ATOM     11  C   UNL     1       9.966  11.452  -1.800  0.00  0.00    +0.005 A 
BRANCH   6  13
ATOM     12  C   UNL     1      10.226  14.929  -1.159  0.00  0.00    +0.015 C 
ATOM     13  C   UNL     1      10.414  13.872  -2.249  0.00  0.00    -0.013 C 
ATOM     14  C   UNL     1      11.855  13.359  -2.218  0.00  0.00    +0.015 C 
ATOM     15  C   UNL     1      10.123  14.493  -3.617  0.00  0.00    +0.015 C 
ENDBRANCH   6  13
ENDBRANCH   1   9
BRANCH   5  16
ATOM     16  N   UNL     1       4.700  10.487  -2.123  0.00  0.00    -0.295 N 
ATOM     17  H   UNL     1       3.622  10.345  -2.288  0.00  0.00    +0.163 HD
ATOM     18  H   UNL     1       5.176  11.442  -2.390  0.00  0.00    +0.163 HD
ENDBRANCH   5  16
BRANCH   4  19
ATOM     19  S   UNL     1       3.360   7.636  -1.310  0.00  0.00    -0.075 S 
BRANCH  19  20
ATOM     20  C   UNL     1       3.590   5.974  -0.632  0.00  0.00    +0.173 C 
BRANCH  20  21
ATOM     21  C   UNL     1       2.269   5.248  -0.624  0.00  0.00    +0.228 C 
ATOM     22  O   UNL     1       1.271   5.800  -1.036  0.00  0.00    -0.275 OA
ATOM     23  N   UNL     1       2.197   3.986  -0.158  0.00  0.00    -0.282 N 
ATOM     24  H   UNL     1       3.089   3.506   0.273  0.00  0.00    +0.155 HD
BRANCH  23  25
ATOM     25  C   UNL     1       0.987   3.283  -0.223  0.00  0.00    +0.071 A 
ATOM     26  C   UNL     1       0.199   3.358  -1.364  0.00  0.00    +0.065 A 
ATOM     27  C   UNL     1      -0.995   2.664  -1.425  0.00  0.00    +0.042 A 
ATOM     28  C   UNL     1      -1.408   1.899  -0.348  0.00  0.00    +0.044 A 
ATOM     29  C   UNL     1      -0.623   1.819   0.789  0.00  0.00    +0.042 A 
ATOM     30  C   UNL     1       0.572   2.511   0.855  0.00  0.00    +0.065 A 
ATOM     31 CL   UNL     1       1.554   2.414   2.284  0.00  0.00    -0.082 Cl
ATOM     32 CL   UNL     1      -2.912   1.035  -0.425  0.00  0.00    -0.083 Cl
ATOM     33 CL   UNL     1       0.713   4.322  -2.713  0.00  0.00    -0.082 Cl
ENDBRANCH  23  25
ENDBRANCH  20  21
ENDBRANCH  19  20
ENDBRANCH   4  19
TORSDOF 7
