REMARK  Name = ZINC21182172
REMARK  8 active torsions:
REMARK  status: ('A' for Active; 'I' for Inactive)
REMARK    1  A    between atoms: C_1  and  N_2
REMARK    2  A    between atoms: N_2  and  S_3
REMARK    3  A    between atoms: S_3  and  C_6
REMARK    4  A    between atoms: C_8  and  C_13
REMARK    5  A    between atoms: C_13  and  O_15
REMARK    6  A    between atoms: O_15  and  C_16
REMARK    7  A    between atoms: C_16  and  C_17
REMARK    8  A    between atoms: N_22  and  C_23
REMARK                            x       y       z     vdW  Elec       q    Type
REMARK                         _______ _______ _______ _____ _____    ______ ____
ROOT
ATOM      1  C   UNL     1      -7.809   0.837   1.135  0.00  0.00    +0.258 C 
ATOM      2  O   UNL     1      -7.267   1.498   1.995  0.00  0.00    -0.272 OA
ATOM      3  N   UNL     1      -7.136   0.505   0.016  0.00  0.00    -0.237 N 
ATOM      4  C   UNL     1      -5.860   0.907  -0.147  0.00  0.00    +0.306 C 
ATOM      5  O   UNL     1      -5.317   1.569   0.715  0.00  0.00    -0.252 OA
ATOM      6  N   UNL     1      -5.187   0.575  -1.266  0.00  0.00    -0.294 N 
ATOM      7  H   UNL     1      -7.628  -0.095  -0.764  0.00  0.00    +0.159 HD
ATOM      8  H   UNL     1      -5.679  -0.025  -2.047  0.00  0.00    +0.151 HD
ENDROOT
BRANCH   6   9
ATOM      9  C   UNL     1      -3.800   1.012  -1.444  0.00  0.00    +0.037 C 
ATOM     10  C   UNL     1      -3.274   0.505  -2.788  0.00  0.00    +0.029 C 
ATOM     11  C   UNL     1      -1.825   0.961  -2.974  0.00  0.00    -0.008 C 
ATOM     12  C   UNL     1      -0.964   0.396  -1.843  0.00  0.00    +0.007 C 
ATOM     13  C   UNL     1      -1.490   0.903  -0.498  0.00  0.00    -0.008 C 
ATOM     14  C   UNL     1      -2.938   0.447  -0.313  0.00  0.00    +0.029 C 
ATOM     15  C   UNL     1      -1.429   2.432  -0.471  0.00  0.00    +0.007 C 
ATOM     16  C   UNL     1      -2.291   2.997  -1.602  0.00  0.00    -0.008 C 
ATOM     17  C   UNL     1      -1.765   2.490  -2.946  0.00  0.00    +0.007 C 
ATOM     18  C   UNL     1      -3.740   2.540  -1.416  0.00  0.00    +0.029 C 
ENDBRANCH   6   9
BRANCH   1  19
ATOM     19  C   UNL     1      -9.236   0.387   1.318  0.00  0.00    +0.328 C 
BRANCH  19  20
ATOM     20  O   UNL     1      -9.736   0.869   2.594  0.00  0.00    -0.452 OA
BRANCH  20  21
ATOM     21  C   UNL     1     -11.005   0.551   2.913  0.00  0.00    +0.340 C 
ATOM     22  O   UNL     1     -11.677  -0.110   2.146  0.00  0.00    -0.245 OA
BRANCH  21  25
ATOM     23  C   UNL     1     -13.428   1.105   5.726  0.00  0.00    +0.124 A 
ATOM     24  C   UNL     1     -12.897   0.678   4.527  0.00  0.00    +0.045 A 
ATOM     25  C   UNL     1     -11.581   1.006   4.194  0.00  0.00    +0.061 A 
ATOM     26  C   UNL     1     -10.809   1.761   5.080  0.00  0.00    +0.016 A 
ATOM     27  C   UNL     1     -11.354   2.187   6.273  0.00  0.00    +0.023 A 
ATOM     28  C   UNL     1     -12.660   1.859   6.598  0.00  0.00    +0.067 A 
ATOM     29 CL   UNL     1     -13.337   2.393   8.105  0.00  0.00    -0.082 Cl
BRANCH  23  30
ATOM     30  S   UNL     1     -15.089   0.693   6.148  0.00  0.00    +0.060 S 
ATOM     31  O   UNL     1     -15.619  -0.034   5.048  0.00  0.00    -0.153 OA
ATOM     32  O   UNL     1     -15.053   0.163   7.466  0.00  0.00    -0.153 OA
BRANCH  30  34
ATOM     33  C   UNL     1     -16.128   2.925   5.028  0.00  0.00    +0.127 C 
ATOM     34  N   UNL     1     -15.939   2.112   6.232  0.00  0.00    -0.193 NA
ATOM     35  H   UNL     1     -16.215   2.516   7.217  0.00  0.00    +0.148 HD
ENDBRANCH  30  34
ENDBRANCH  23  30
ENDBRANCH  21  25
ENDBRANCH  20  21
ENDBRANCH  19  20
ENDBRANCH   1  19
TORSDOF 7
