REMARK  Name = ZINC21659247
REMARK  6 active torsions:
REMARK  status: ('A' for Active; 'I' for Inactive)
REMARK    1  A    between atoms: C_1  and  N_2
REMARK    2  A    between atoms: C_5  and  C_25
REMARK    3  A    between atoms: C_8  and  C_17
REMARK    4  A    between atoms: C_20  and  O_24
REMARK    5  A    between atoms: C_22  and  O_23
REMARK    6  A    between atoms: N_34  and  C_37
REMARK                            x       y       z     vdW  Elec       q    Type
REMARK                         _______ _______ _______ _____ _____    ______ ____
ROOT
ATOM      1  C   UNL     1      -0.157   1.148   0.158  0.00  0.00    +0.154 C 
ATOM      2  N   UNL     1      -0.814   1.711   1.341  0.00  0.00    -0.294 N 
ATOM      3  C   UNL     1      -0.813   3.091   1.589  0.00  0.00    +0.082 A 
ATOM      4  C   UNL     1      -1.498   3.600   2.805  0.00  0.00    +0.089 A 
ATOM      5  C   UNL     1      -1.349   4.965   2.795  0.00  0.00    +0.071 A 
ATOM      6  N   UNL     1      -0.636   5.292   1.685  0.00  0.00    -0.306 N 
ATOM      7  C   UNL     1      -0.336   4.150   0.952  0.00  0.00    +0.073 A 
ATOM      8  C   UNL     1       0.414   4.226  -0.360  0.00  0.00    +0.154 C 
ATOM      9  N   UNL     1       1.220   5.457  -0.351  0.00  0.00    -0.330 N 
ATOM     10  C   UNL     1       0.701   6.631   0.204  0.00  0.00    +0.052 A 
ATOM     11  C   UNL     1      -0.228   6.561   1.248  0.00  0.00    +0.068 A 
ATOM     12  C   UNL     1      -0.726   7.716   1.818  0.00  0.00    +0.028 A 
ATOM     13  C   UNL     1      -0.312   8.949   1.343  0.00  0.00    +0.002 A 
ATOM     14  C   UNL     1       0.595   9.024   0.302  0.00  0.00    +0.002 A 
ATOM     15  C   UNL     1       1.102   7.871  -0.268  0.00  0.00    +0.025 A 
ATOM     16  C   UNL     1      -2.146   2.648   3.712  0.00  0.00    +0.266 A 
ATOM     17  O   UNL     1      -2.719   3.003   4.725  0.00  0.00    -0.267 OA
ATOM     18  N   UNL     1      -2.063   1.344   3.345  0.00  0.00    -0.263 N 
ATOM     19  C   UNL     1      -1.442   0.921   2.240  0.00  0.00    +0.332 A 
ATOM     20  O   UNL     1      -1.440  -0.276   2.026  0.00  0.00    -0.246 OA
ATOM     21  C   UNL     1      -2.692   0.342   4.209  0.00  0.00    +0.157 C 
ATOM     22  H   UNL     1       2.232   5.454  -0.781  0.00  0.00    +0.147 HD
ENDROOT
BRANCH   5  23
ATOM     23  C   UNL     1      -1.869   5.905   3.806  0.00  0.00    +0.035 A 
ATOM     24  C   UNL     1      -3.140   6.465   3.656  0.00  0.00    +0.013 A 
ATOM     25  C   UNL     1      -3.622   7.340   4.607  0.00  0.00    +0.001 A 
ATOM     26  C   UNL     1      -2.845   7.673   5.704  0.00  0.00    +0.003 A 
ATOM     27  C   UNL     1      -1.583   7.129   5.858  0.00  0.00    +0.039 A 
ATOM     28  C   UNL     1      -1.089   6.247   4.916  0.00  0.00    +0.133 A 
ATOM     29  F   UNL     1       0.145   5.716   5.066  0.00  0.00    -0.205 F 
ENDBRANCH   5  23
BRANCH   8  30
ATOM     30  C   UNL     1      -0.566   4.266  -1.505  0.00  0.00    +0.020 A 
ATOM     31  C   UNL     1      -1.893   4.571  -1.268  0.00  0.00    +0.013 A 
ATOM     32  C   UNL     1      -2.793   4.609  -2.315  0.00  0.00    +0.046 A 
ATOM     33  C   UNL     1      -2.366   4.342  -3.609  0.00  0.00    +0.120 A 
ATOM     34  C   UNL     1      -1.035   4.037  -3.849  0.00  0.00    +0.091 A 
ATOM     35  C   UNL     1      -0.133   4.004  -2.797  0.00  0.00    +0.126 A 
BRANCH  35  36
ATOM     36  O   UNL     1       1.173   3.711  -3.030  0.00  0.00    -0.506 OA
ATOM     37  H   UNL     1       1.516   3.503  -4.055  0.00  0.00    +0.292 HD
ENDBRANCH  35  36
BRANCH  33  38
ATOM     38  O   UNL     1      -3.252   4.380  -4.639  0.00  0.00    -0.507 OA
ATOM     39  H   UNL     1      -2.913   4.169  -5.663  0.00  0.00    +0.292 HD
ENDBRANCH  33  38
ENDBRANCH   8  30
TORSDOF 4
