REMARK  Name = ZINC23644759
REMARK  12 active torsions:
REMARK  status: ('A' for Active; 'I' for Inactive)
REMARK    1  A    between atoms: C_1  and  C_2
REMARK    2  A    between atoms: C_2  and  O_3
REMARK    3  A    between atoms: O_3  and  C_4
REMARK    4  A    between atoms: C_4  and  C_6
REMARK    5  A    between atoms: C_7  and  C_22
REMARK    6  A    between atoms: C_12  and  C_14
REMARK    7  A    between atoms: C_17  and  O_20
REMARK    8  A    between atoms: O_20  and  C_21
REMARK    9  A    between atoms: C_22  and  S_23
REMARK   10  A    between atoms: S_23  and  C_24
REMARK   11  A    between atoms: N_28  and  C_29
REMARK   12  A    between atoms: C_32  and  O_35
REMARK                            x       y       z     vdW  Elec       q    Type
REMARK                         _______ _______ _______ _____ _____    ______ ____
ROOT
ATOM      1  C   UNL     1       2.992   0.711   1.327  0.00  0.00    +0.079 C 
ATOM      2  C   UNL     1       3.955   1.518   1.822  0.00  0.00    +0.034 C 
ATOM      3  N   UNL     1       4.685   2.329   1.002  0.00  0.00    -0.272 N 
ATOM      4  C   UNL     1       4.513   2.393  -0.325  0.00  0.00    +0.304 C 
ATOM      5  O   UNL     1       5.213   3.147  -0.973  0.00  0.00    -0.252 OA
ATOM      6  N   UNL     1       3.590   1.648  -0.965  0.00  0.00    -0.288 N 
ATOM      7  C   UNL     1       2.749   0.738  -0.169  0.00  0.00    +0.144 C 
ATOM      8  H   UNL     1       5.466   2.978   1.424  0.00  0.00    +0.156 HD
ATOM      9  H   UNL     1       3.457   1.708  -2.055  0.00  0.00    +0.151 HD
ENDROOT
BRANCH   7  10
ATOM     10  C   UNL     1       1.309   1.116  -0.399  0.00  0.00    -0.022 A 
ATOM     11  C   UNL     1       0.349   0.130  -0.532  0.00  0.00    +0.009 A 
ATOM     12  C   UNL     1      -0.971   0.473  -0.749  0.00  0.00    +0.046 A 
ATOM     13  C   UNL     1      -1.336   1.810  -0.822  0.00  0.00    +0.120 A 
ATOM     14  C   UNL     1      -0.371   2.798  -0.688  0.00  0.00    +0.046 A 
ATOM     15  C   UNL     1       0.949   2.449  -0.477  0.00  0.00    +0.009 A 
BRANCH  13  16
ATOM     16  O   UNL     1      -2.635   2.151  -1.030  0.00  0.00    -0.495 OA
ATOM     17  C   UNL     1      -3.573   1.081  -1.159  0.00  0.00    +0.277 C 
ENDBRANCH  13  16
ENDBRANCH   7  10
BRANCH   1  18
ATOM     18  C   UNL     1       2.235  -0.131   2.175  0.00  0.00    +0.339 C 
ATOM     19  O   UNL     1       2.530  -0.234   3.351  0.00  0.00    -0.245 OA
BRANCH  18  20
ATOM     20  O   UNL     1       1.186  -0.820   1.680  0.00  0.00    -0.462 OA
BRANCH  20  22
ATOM     21  C   UNL     1      -0.679  -2.347   1.856  0.00  0.00    +0.048 C 
ATOM     22  C   UNL     1       0.466  -1.651   2.594  0.00  0.00    +0.229 C 
ENDBRANCH  20  22
ENDBRANCH  18  20
ENDBRANCH   1  18
BRANCH   2  23
ATOM     23  C   UNL     1       4.228   1.522   3.304  0.00  0.00    +0.128 C 
BRANCH  23  24
ATOM     24  S   UNL     1       5.530   0.323   3.681  0.00  0.00    -0.078 S 
BRANCH  24  25
ATOM     25  C   UNL     1       5.643   0.533   5.427  0.00  0.00    +0.214 A 
ATOM     26  N   UNL     1       4.931   1.359   6.163  0.00  0.00    -0.101 NA
ATOM     27  N   UNL     1       5.264   1.261   7.400  0.00  0.00    -0.022 NA
ATOM     28  N   UNL     1       6.195   0.382   7.546  0.00  0.00    -0.038 NA
ATOM     29  N   UNL     1       6.475  -0.132   6.267  0.00  0.00    -0.187 N 
BRANCH  29  30
ATOM     30  C   UNL     1       7.415  -1.119   5.932  0.00  0.00    +0.070 A 
ATOM     31  C   UNL     1       7.142  -2.019   4.912  0.00  0.00    +0.031 A 
ATOM     32  C   UNL     1       8.070  -2.987   4.579  0.00  0.00    +0.047 A 
ATOM     33  C   UNL     1       9.270  -3.065   5.271  0.00  0.00    +0.117 A 
ATOM     34  C   UNL     1       9.540  -2.168   6.295  0.00  0.00    +0.047 A 
ATOM     35  C   UNL     1       8.616  -1.197   6.624  0.00  0.00    +0.031 A 
BRANCH  33  36
ATOM     36  O   UNL     1      10.180  -4.021   4.947  0.00  0.00    -0.507 OA
ATOM     37  H   UNL     1      11.131  -4.083   5.496  0.00  0.00    +0.292 HD
ENDBRANCH  33  36
ENDBRANCH  29  30
ENDBRANCH  24  25
ENDBRANCH  23  24
ENDBRANCH   2  23
TORSDOF 10
