REMARK  Name = ZINC09435314
REMARK  5 active torsions:
REMARK  status: ('A' for Active; 'I' for Inactive)
REMARK    1  A    between atoms: C_3  and  C_6
REMARK    2  A    between atoms: C_9  and  C_32
REMARK    3  A    between atoms: C_13  and  C_16
REMARK    4  A    between atoms: N_18  and  C_19
REMARK    5  A    between atoms: C_20  and  C_28
REMARK                            x       y       z     vdW  Elec       q    Type
REMARK                         _______ _______ _______ _____ _____    ______ ____
ROOT
ATOM      1  C   UNL     1      -1.638   6.181   7.559  0.00  0.00    +0.111 C 
ATOM      2  C   UNL     1      -0.812   5.426   8.605  0.00  0.00    +0.063 C 
ATOM      3  C   UNL     1      -1.176   3.936   8.542  0.00  0.00    +0.215 C 
ATOM      4  N   UNL     1      -1.178   3.534   7.129  0.00  0.00    -0.238 N 
ATOM      5  C   UNL     1      -1.190   4.403   6.095  0.00  0.00    +0.130 A 
ATOM      6  C   UNL     1      -1.191   3.651   4.927  0.00  0.00    +0.096 A 
ATOM      7  C   UNL     1      -1.171   2.289   5.315  0.00  0.00    +0.149 A 
ATOM      8  N   UNL     1      -1.163   2.236   6.619  0.00  0.00    -0.177 NA
ATOM      9  N   UNL     1      -1.212   5.777   6.210  0.00  0.00    -0.321 N 
ATOM     10  H   UNL     1      -0.312   6.171   5.982  0.00  0.00    +0.148 HD
ENDROOT
BRANCH   1  13
ATOM     11  C   UNL     1      -1.824   9.897   8.376  0.00  0.00    +0.008 A 
ATOM     12  C   UNL     1      -2.225   8.575   8.338  0.00  0.00    +0.013 A 
ATOM     13  C   UNL     1      -1.428   7.664   7.728  0.00  0.00    +0.010 A 
ATOM     14  S   UNL     1      -0.069   8.678   7.170  0.00  0.00    -0.100 S 
ATOM     15  C   UNL     1      -0.651  10.246   7.794  0.00  0.00    +0.045 A 
ENDBRANCH   1  13
BRANCH   6  16
ATOM     16  C   UNL     1      -1.204   4.169   3.554  0.00  0.00    +0.253 C 
ATOM     17  O   UNL     1      -1.221   5.369   3.357  0.00  0.00    -0.270 OA
ATOM     18  N   UNL     1      -1.198   3.314   2.512  0.00  0.00    -0.275 N 
ATOM     19  H   UNL     1      -1.185   2.357   2.669  0.00  0.00    +0.156 HD
BRANCH  18  20
ATOM     20  C   UNL     1      -1.211   3.803   1.215  0.00  0.00    +0.085 A 
ATOM     21  C   UNL     1      -1.207   3.090   0.025  0.00  0.00    +0.068 A 
ATOM     22  C   UNL     1      -1.218   3.850  -1.214  0.00  0.00    -0.023 A 
ATOM     23  C   UNL     1      -1.241   5.192  -1.064  0.00  0.00    -0.004 A 
ATOM     24  S   UNL     1      -1.236   5.453   0.687  0.00  0.00    -0.077 S 
ATOM     25  C   UNL     1      -1.259   6.222  -2.152  0.00  0.00    +0.043 C 
ATOM     26  C   UNL     1      -0.878   5.537  -3.473  0.00  0.00    +0.005 C 
ATOM     27  C   UNL     1      -1.699   4.252  -3.617  0.00  0.00    +0.005 C 
ATOM     28  C   UNL     1      -1.223   3.214  -2.599  0.00  0.00    +0.037 C 
BRANCH  21  29
ATOM     29  C   UNL     1      -1.187   1.624   0.017  0.00  0.00    +0.244 C 
ATOM     30  O   UNL     1      -2.233   1.001   0.018  0.00  0.00    -0.270 OA
ATOM     31  N   UNL     1      -0.011   0.966   0.007  0.00  0.00    -0.325 N 
ATOM     32  H   UNL     1       0.002  -0.004   0.002  0.00  0.00    +0.145 HD
ATOM     33  H   UNL     1       0.822   1.462   0.002  0.00  0.00    +0.145 HD
ENDBRANCH  21  29
ENDBRANCH  18  20
ENDBRANCH   6  16
BRANCH   3  34
ATOM     34  C   UNL     1      -0.138   3.116   9.312  0.00  0.00    +0.412 C 
ATOM     35  F   UNL     1       1.131   3.339   8.766  0.00  0.00    -0.168 F 
ATOM     36  F   UNL     1      -0.142   3.504  10.656  0.00  0.00    -0.168 F 
ATOM     37  F   UNL     1      -0.454   1.757   9.218  0.00  0.00    -0.168 F 
ENDBRANCH   3  34
TORSDOF 5
