REMARK  Name = ZINC01817348
REMARK  13 active torsions:
REMARK  status: ('A' for Active; 'I' for Inactive)
REMARK    1  A    between atoms: C_1  and  C_2
REMARK    2  A    between atoms: C_5  and  N_8
REMARK    3  A    between atoms: C_9  and  C_29
REMARK    4  A    between atoms: C_12  and  S_13
REMARK    5  A    between atoms: S_13  and  C_14
REMARK    6  A    between atoms: C_14  and  C_15
REMARK    7  A    between atoms: N_17  and  N_18
REMARK    8  A    between atoms: C_19  and  C_20
REMARK    9  A    between atoms: C_25  and  N_26
REMARK   10  A    between atoms: C_32  and  C_35
REMARK   11  A    between atoms: C_35  and  C_36
REMARK   12  A    between atoms: C_35  and  C_37
REMARK   13  A    between atoms: C_35  and  C_38
REMARK                            x       y       z     vdW  Elec       q    Type
REMARK                         _______ _______ _______ _____ _____    ______ ____
ROOT
ATOM      1  N   UNL     1       0.148  -3.439  -0.489  0.00  0.00    -0.270 N 
ATOM      2  C   UNL     1      -0.824  -4.209   0.112  0.00  0.00    +0.169 A 
ATOM      3  N   UNL     1      -0.453  -5.463  -0.011  0.00  0.00    -0.128 NA
ATOM      4  N   UNL     1       0.667  -5.530  -0.638  0.00  0.00    -0.122 NA
ATOM      5  C   UNL     1       1.079  -4.324  -0.960  0.00  0.00    +0.197 A 
ENDROOT
BRANCH   1  10
ATOM      6  C   UNL     1       0.252   2.217  -0.940  0.00  0.00    +0.044 C 
ATOM      7  C   UNL     1       0.224   0.715  -0.821  0.00  0.00    -0.050 A 
ATOM      8  C   UNL     1       0.055  -0.064  -1.950  0.00  0.00    +0.005 A 
ATOM      9  C   UNL     1       0.030  -1.441  -1.844  0.00  0.00    +0.026 A 
ATOM     10  C   UNL     1       0.174  -2.042  -0.601  0.00  0.00    +0.051 A 
ATOM     11  C   UNL     1       0.343  -1.257   0.532  0.00  0.00    +0.026 A 
ATOM     12  C   UNL     1       0.374   0.119   0.418  0.00  0.00    +0.005 A 
ENDBRANCH   1  10
BRANCH   2  13
ATOM     13  C   UNL     1      -2.052  -3.717   0.771  0.00  0.00    +0.020 A 
ATOM     14  C   UNL     1      -2.517  -2.426   0.513  0.00  0.00    +0.012 A 
ATOM     15  C   UNL     1      -3.663  -1.973   1.132  0.00  0.00    +0.005 A 
ATOM     16  C   UNL     1      -4.352  -2.795   2.007  0.00  0.00    -0.042 A 
ATOM     17  C   UNL     1      -3.897  -4.075   2.267  0.00  0.00    +0.005 A 
ATOM     18  C   UNL     1      -2.755  -4.543   1.650  0.00  0.00    +0.012 A 
BRANCH  16  19
ATOM     19  C   UNL     1      -5.603  -2.293   2.680  0.00  0.00    -0.013 C 
ATOM     20  C   UNL     1      -6.642  -1.927   1.618  0.00  0.00    +0.015 C 
ATOM     21  C   UNL     1      -6.167  -3.386   3.590  0.00  0.00    +0.015 C 
ATOM     22  C   UNL     1      -5.271  -1.055   3.516  0.00  0.00    +0.015 C 
ENDBRANCH  16  19
ENDBRANCH   2  13
BRANCH   5  23
ATOM     23  S   UNL     1       2.557  -3.922  -1.831  0.00  0.00    -0.076 S 
BRANCH  23  24
ATOM     24  C   UNL     1       3.325  -5.533  -2.159  0.00  0.00    +0.174 C 
BRANCH  24  25
ATOM     25  C   UNL     1       4.616  -5.330  -2.910  0.00  0.00    +0.242 C 
ATOM     26  O   UNL     1       4.981  -4.209  -3.196  0.00  0.00    -0.273 OA
ATOM     27  N   UNL     1       5.364  -6.394  -3.264  0.00  0.00    -0.206 N 
ATOM     28  H   UNL     1       5.071  -7.290  -3.035  0.00  0.00    +0.177 HD
BRANCH  27  29
ATOM     29  N   UNL     1       6.564  -6.205  -3.962  0.00  0.00    -0.188 NA
ATOM     30  C   UNL     1       7.284  -7.230  -4.303  0.00  0.00    +0.140 C 
BRANCH  30  31
ATOM     31  C   UNL     1       8.547  -7.031  -5.038  0.00  0.00    +0.025 A 
ATOM     32  C   UNL     1       9.036  -5.741  -5.257  0.00  0.00    +0.012 A 
ATOM     33  C   UNL     1      10.218  -5.563  -5.945  0.00  0.00    +0.001 A 
ATOM     34  C   UNL     1      10.919  -6.659  -6.418  0.00  0.00    +0.002 A 
ATOM     35  C   UNL     1      10.440  -7.939  -6.205  0.00  0.00    +0.033 A 
ATOM     36  C   UNL     1       9.263  -8.133  -5.513  0.00  0.00    +0.135 A 
BRANCH  36  37
ATOM     37  N   UNL     1       8.756  -9.504  -5.279  0.00  0.00    +0.057 N 
ATOM     38  O   UNL     1       9.311 -10.448  -5.789  0.00  0.00    -0.126 OA
ATOM     39  O   UNL     1       7.786  -9.678  -4.579  0.00  0.00    -0.126 OA
ENDBRANCH  36  37
ENDBRANCH  30  31
ENDBRANCH  27  29
ENDBRANCH  24  25
ENDBRANCH  23  24
ENDBRANCH   5  23
TORSDOF 9
