REMARK  Name = ZINC39634941
REMARK  7 active torsions:
REMARK  status: ('A' for Active; 'I' for Inactive)
REMARK    1  A    between atoms: C_1  and  O_2
REMARK    2  A    between atoms: O_2  and  C_3
REMARK    3  A    between atoms: C_6  and  C_9
REMARK    4  A    between atoms: C_9  and  C_10
REMARK    5  A    between atoms: C_10  and  N_11
REMARK    6  A    between atoms: C_12  and  C_14
REMARK    7  A    between atoms: C_25  and  C_27
REMARK                            x       y       z     vdW  Elec       q    Type
REMARK                         _______ _______ _______ _____ _____    ______ ____
ROOT
ATOM      1  C   UNL     1       2.244  -4.478   8.810  0.00  0.00    +0.100 C 
ATOM      2  C   UNL     1       2.672  -5.908   8.412  0.00  0.00    +0.121 C 
ATOM      3  N   UNL     1       2.450  -6.718   9.632  0.00  0.00    -0.296 N 
ATOM      4  C   UNL     1       1.185  -6.194  10.199  0.00  0.00    +0.115 C 
ATOM      5  C   UNL     1       1.268  -4.669   9.983  0.00  0.00    -0.004 C 
ATOM      6  C   UNL     1      -0.106  -4.113   9.623  0.00  0.00    -0.010 C 
ATOM      7  C   UNL     1      -1.044  -4.262  10.825  0.00  0.00    -0.082 C 
ATOM      8  N   UNL     1      -0.487  -3.539  11.975  0.00  0.00    +0.379 N 
ATOM      9  C   UNL     1       0.792  -4.141  12.373  0.00  0.00    -0.082 C 
ATOM     10  C   UNL     1       1.806  -3.987  11.236  0.00  0.00    -0.010 C 
ATOM     11  C   UNL     1       3.224  -7.709  10.118  0.00  0.00    +0.249 C 
ATOM     12  O   UNL     1       2.905  -8.285  11.140  0.00  0.00    -0.270 OA
ATOM     13  H   UNL     1      -0.338  -2.573  11.724  0.00  0.00    -0.086 HD
ATOM     14  H   UNL     1      -1.135  -3.588  12.747  0.00  0.00    -0.086 HD
ENDROOT
BRANCH  11  15
ATOM     15  C   UNL     1       4.461  -8.095   9.408  0.00  0.00    +0.073 A 
ATOM     16  C   UNL     1       5.674  -7.477   9.724  0.00  0.00    +0.054 A 
ATOM     17  C   UNL     1       6.826  -7.843   9.057  0.00  0.00    +0.021 A 
ATOM     18  C   UNL     1       6.781  -8.820   8.078  0.00  0.00    +0.003 A 
ATOM     19  C   UNL     1       5.584  -9.436   7.759  0.00  0.00    +0.021 A 
ATOM     20  C   UNL     1       4.425  -9.084   8.422  0.00  0.00    +0.054 A 
ATOM     21 CL   UNL     1       2.925  -9.864   8.026  0.00  0.00    -0.083 Cl
ATOM     22 CL   UNL     1       5.732  -6.251  10.952  0.00  0.00    -0.083 Cl
ENDBRANCH  11  15
BRANCH   1  24
ATOM     23  N   UNL     1       1.605  -2.455   7.537  0.00  0.00    -0.315 N 
ATOM     24  C   UNL     1       1.552  -3.796   7.658  0.00  0.00    +0.218 C 
ATOM     25  O   UNL     1       0.948  -4.455   6.838  0.00  0.00    -0.275 OA
ATOM     26  H   UNL     1       2.089  -1.928   8.193  0.00  0.00    +0.149 HD
BRANCH  23  27
ATOM     27  C   UNL     1       0.933  -1.793   6.417  0.00  0.00    +0.109 C 
BRANCH  27  28
ATOM     28  C   UNL     1       1.147  -0.281   6.516  0.00  0.00    +0.054 C 
BRANCH  28  32
ATOM     29  C   UNL     1      -0.815   1.651   3.247  0.00  0.00    +0.120 A 
ATOM     30  C   UNL     1      -1.495   1.435   4.436  0.00  0.00    +0.046 A 
ATOM     31  C   UNL     1      -0.859   0.810   5.491  0.00  0.00    +0.007 A 
ATOM     32  C   UNL     1       0.455   0.400   5.363  0.00  0.00    -0.046 A 
ATOM     33  C   UNL     1       1.136   0.615   4.179  0.00  0.00    +0.007 A 
ATOM     34  C   UNL     1       0.502   1.234   3.119  0.00  0.00    +0.046 A 
BRANCH  29  36
ATOM     35  C   UNL     1      -2.794   2.668   2.411  0.00  0.00    +0.277 C 
ATOM     36  O   UNL     1      -1.438   2.265   2.208  0.00  0.00    -0.495 OA
ENDBRANCH  29  36
ENDBRANCH  28  32
ENDBRANCH  27  28
ENDBRANCH  23  27
ENDBRANCH   1  24
TORSDOF 6
