REMARK  Name = ZINC06590547
REMARK  4 active torsions:
REMARK  status: ('A' for Active; 'I' for Inactive)
REMARK    1  A    between atoms: C_4  and  C_7
REMARK    2  A    between atoms: C_10  and  C_13
REMARK    3  A    between atoms: C_18  and  O_19
REMARK    4  A    between atoms: C_20  and  C_22
REMARK                            x       y       z     vdW  Elec       q    Type
REMARK                         _______ _______ _______ _____ _____    ______ ____
ROOT
ATOM      1  C   UNL     1       1.743  -0.209   4.174  0.00  0.00    +0.069 C 
ATOM      2  N   UNL     1       0.727  -0.925   4.512  0.00  0.00    -0.181 NA
ATOM      3  N   UNL     1      -0.343  -0.859   3.615  0.00  0.00    -0.178 N 
ATOM      4  C   UNL     1       0.025   0.039   2.509  0.00  0.00    +0.141 C 
ATOM      5  C   UNL     1       1.451   0.499   2.870  0.00  0.00    +0.087 C 
ATOM      6  C   UNL     1      -1.516  -1.509   3.740  0.00  0.00    +0.340 C 
ATOM      7  O   UNL     1      -2.377  -1.376   2.895  0.00  0.00    -0.264 OA
ENDROOT
BRANCH   1  11
ATOM      8  C   UNL     1       5.354   0.112   6.380  0.00  0.00    +0.000 A 
ATOM      9  C   UNL     1       4.330  -0.693   6.849  0.00  0.00    +0.001 A 
ATOM     10  C   UNL     1       3.154  -0.802   6.137  0.00  0.00    +0.010 A 
ATOM     11  C   UNL     1       2.998  -0.098   4.941  0.00  0.00    -0.002 A 
ATOM     12  C   UNL     1       4.037   0.709   4.471  0.00  0.00    +0.010 A 
ATOM     13  C   UNL     1       5.206   0.812   5.196  0.00  0.00    +0.001 A 
ENDBRANCH   1  11
BRANCH   4  14
ATOM     14  C   UNL     1       0.023  -0.705   1.199  0.00  0.00    +0.017 A 
ATOM     15  C   UNL     1       0.042  -2.087   1.188  0.00  0.00    +0.009 A 
ATOM     16  C   UNL     1       0.040  -2.770  -0.013  0.00  0.00    +0.001 A 
ATOM     17  C   UNL     1       0.019  -2.074  -1.208  0.00  0.00    +0.004 A 
ATOM     18  C   UNL     1      -0.006  -0.693  -1.203  0.00  0.00    +0.046 A 
ATOM     19  C   UNL     1       0.002  -0.004   0.002  0.00  0.00    +0.122 A 
BRANCH  19  20
ATOM     20  O   UNL     1      -0.016   1.355   0.009  0.00  0.00    -0.506 OA
ATOM     21  H   UNL     1       0.862   1.760   0.003  0.00  0.00    +0.292 HD
ENDBRANCH  19  20
ENDBRANCH   4  14
BRANCH   6  22
ATOM     22  C   UNL     1      -1.760  -2.401   4.930  0.00  0.00    +0.471 C 
ATOM     23  F   UNL     1      -3.039  -2.962   4.838  0.00  0.00    -0.162 F 
ATOM     24  F   UNL     1      -0.804  -3.423   4.951  0.00  0.00    -0.162 F 
ATOM     25  F   UNL     1      -1.664  -1.649   6.105  0.00  0.00    -0.162 F 
ENDBRANCH   6  22
TORSDOF 4
