REMARK  Name = ZINC21090187
REMARK  9 active torsions:
REMARK  status: ('A' for Active; 'I' for Inactive)
REMARK    1  A    between atoms: C_1  and  C_2
REMARK    2  A    between atoms: C_2  and  C_3
REMARK    3  A    between atoms: C_2  and  C_4
REMARK    4  A    between atoms: C_4  and  C_5
REMARK    5  A    between atoms: C_5  and  C_7
REMARK    6  A    between atoms: C_5  and  N_20
REMARK    7  A    between atoms: N_9  and  C_10
REMARK    8  A    between atoms: N_20  and  S_21
REMARK    9  A    between atoms: S_21  and  C_24
REMARK                            x       y       z     vdW  Elec       q    Type
REMARK                         _______ _______ _______ _____ _____    ______ ____
ROOT
ATOM      1  C   UNL     1      -0.946   8.090   2.341  0.00  0.00    +0.163 C 
ENDROOT
BRANCH   1   2
ATOM      2  C   UNL     1      -0.444   7.382   1.110  0.00  0.00    +0.236 C 
ATOM      3  O   UNL     1      -0.420   7.961   0.044  0.00  0.00    -0.274 OA
ATOM      4  N   UNL     1      -0.022   6.104   1.192  0.00  0.00    -0.284 N 
ATOM      5  H   UNL     1      -0.125   5.551   2.136  0.00  0.00    +0.155 HD
BRANCH   4   6
ATOM      6  C   UNL     1       0.547   5.482   0.075  0.00  0.00    +0.037 A 
ATOM      7  C   UNL     1       1.125   6.252  -0.922  0.00  0.00    +0.023 A 
ATOM      8  C   UNL     1       1.686   5.636  -2.024  0.00  0.00    +0.002 A 
ATOM      9  C   UNL     1       1.665   4.260  -2.126  0.00  0.00    +0.004 A 
ATOM     10  C   UNL     1       1.085   3.484  -1.130  0.00  0.00    -0.042 A 
ATOM     11  C   UNL     1       0.528   4.091  -0.029  0.00  0.00    -0.023 A 
ATOM     12  C   UNL     1      -0.109   3.313   1.092  0.00  0.00    +0.037 C 
ATOM     13  C   UNL     1      -0.433   1.890   0.642  0.00  0.00    +0.005 C 
ATOM     14  C   UNL     1       0.828   1.283   0.016  0.00  0.00    +0.005 C 
ATOM     15  C   UNL     1       1.094   1.988  -1.313  0.00  0.00    +0.035 C 
ENDBRANCH   4   6
ENDBRANCH   1   2
BRANCH   1  16
ATOM     16  N   UNL     1      -1.342   9.456   1.992  0.00  0.00    -0.178 NA
ATOM     17  H   UNL     1      -1.935   9.642   1.084  0.00  0.00    +0.149 HD
BRANCH  16  18
ATOM     18  S   UNL     1      -0.698  10.742   2.813  0.00  0.00    +0.059 S 
ATOM     19  O   UNL     1      -1.252  11.914   2.232  0.00  0.00    -0.153 OA
ATOM     20  O   UNL     1      -0.826  10.444   4.197  0.00  0.00    -0.153 OA
BRANCH  18  21
ATOM     21  C   UNL     1       1.028  10.772   2.462  0.00  0.00    +0.106 A 
ATOM     22  C   UNL     1       1.496  11.496   1.374  0.00  0.00    +0.030 A 
ATOM     23  C   UNL     1       2.842  11.534   1.081  0.00  0.00    +0.028 A 
ATOM     24  C   UNL     1       3.743  10.840   1.882  0.00  0.00    +0.049 A 
ATOM     25  C   UNL     1       3.265  10.108   2.985  0.00  0.00    +0.000 A 
ATOM     26  C   UNL     1       1.895  10.088   3.267  0.00  0.00    +0.038 A 
ATOM     27  C   UNL     1       4.221   9.381   3.823  0.00  0.00    +0.015 A 
ATOM     28  C   UNL     1       5.537   9.441   3.504  0.00  0.00    +0.071 A 
ATOM     29  C   UNL     1       5.965  10.191   2.387  0.00  0.00    +0.249 A 
ATOM     30  O   UNL     1       7.153  10.231   2.118  0.00  0.00    -0.268 OA
ATOM     31  N   UNL     1       5.095  10.861   1.612  0.00  0.00    -0.322 N 
ATOM     32  H   UNL     1       5.475  11.432   0.752  0.00  0.00    +0.169 HD
ENDBRANCH  18  21
ENDBRANCH  16  18
ENDBRANCH   1  16
BRANCH   1  33
ATOM     33  C   UNL     1      -2.152   7.338   2.906  0.00  0.00    +0.032 C 
BRANCH  33  35
ATOM     34  C   UNL     1      -3.873   7.325   4.718  0.00  0.00    +0.007 C 
ATOM     35  C   UNL     1      -2.579   7.978   4.229  0.00  0.00    -0.015 C 
ATOM     36  C   UNL     1      -1.479   7.773   5.273  0.00  0.00    +0.007 C 
ENDBRANCH  33  35
ENDBRANCH   1  33
TORSDOF 7
