REMARK  Name = ZINC43554317
REMARK  16 active torsions:
REMARK  status: ('A' for Active; 'I' for Inactive)
REMARK    1  A    between atoms: C_1  and  C_2
REMARK    2  A    between atoms: C_2  and  C_3
REMARK    3  A    between atoms: C_3  and  C_4
REMARK    4  A    between atoms: C_4  and  C_5
REMARK    5  A    between atoms: C_5  and  C_6
REMARK    6  A    between atoms: C_17  and  C_37
REMARK    7  A    between atoms: C_18  and  C_20
REMARK    8  A    between atoms: C_20  and  C_21
REMARK    9  A    between atoms: N_23  and  C_24
REMARK   10  A    between atoms: C_24  and  C_25
REMARK   11  A    between atoms: C_25  and  O_26
REMARK   12  A    between atoms: O_26  and  C_27
REMARK   13  A    between atoms: C_30  and  O_36
REMARK   14  A    between atoms: C_32  and  C_33
REMARK   15  A    between atoms: C_32  and  C_34
REMARK   16  A    between atoms: C_34  and  O_35
REMARK                            x       y       z     vdW  Elec       q    Type
REMARK                         _______ _______ _______ _____ _____    ______ ____
ROOT
ATOM      1  C   UNL     1       0.919  -4.103   2.455  0.00  0.00    +0.219 C 
ATOM      2  O   UNL     1       0.483  -4.799   1.563  0.00  0.00    -0.275 OA
ATOM      3  N   UNL     1       1.605  -4.661   3.472  0.00  0.00    -0.265 N 
ATOM      4  C   UNL     1       1.811  -6.035   3.499  0.00  0.00    +0.165 A 
ATOM      5  N   UNL     1       2.450  -6.747   4.402  0.00  0.00    -0.229 NA
ATOM      6  C   UNL     1       2.574  -8.064   4.291  0.00  0.00    +0.058 A 
ATOM      7  C   UNL     1       1.992  -8.612   3.195  0.00  0.00    +0.015 A 
ATOM      8  S   UNL     1       1.305  -7.193   2.384  0.00  0.00    -0.057 S 
ATOM      9  C   UNL     1       1.954 -10.043   2.801  0.00  0.00    +0.049 C 
ATOM     10  C   UNL     1       2.748 -10.939   3.771  0.00  0.00    +0.011 C 
ATOM     11  C   UNL     1       2.696 -10.383   5.188  0.00  0.00    -0.019 C 
ATOM     12  C   UNL     1       3.302  -8.977   5.256  0.00  0.00    +0.054 C 
ATOM     13  C   UNL     1       1.254 -10.402   5.680  0.00  0.00    +0.010 C 
ATOM     14  C   UNL     1       0.756 -11.847   5.727  0.00  0.00    +0.032 C 
ATOM     15  C   UNL     1       0.842 -12.522   4.372  0.00  0.00    +0.123 C 
ATOM     16  C   UNL     1       2.170 -12.348   3.653  0.00  0.00    +0.021 C 
ATOM     17  C   UNL     1       3.166 -13.421   4.114  0.00  0.00    +0.016 C 
ATOM     18  C   UNL     1       3.554 -11.218   6.150  0.00  0.00    +0.012 C 
ATOM     19  H   UNL     1       1.953  -4.104   4.186  0.00  0.00    +0.157 HD
ENDROOT
BRANCH  15  20
ATOM     20  O   UNL     1      -0.233 -12.073   3.538  0.00  0.00    -0.391 OA
ATOM     21  H   UNL     1      -1.112 -12.263   3.894  0.00  0.00    +0.210 HD
ENDBRANCH  15  20
BRANCH   1  22
ATOM     22  C   UNL     1       0.695  -2.613   2.425  0.00  0.00    +0.096 C 
BRANCH  22  23
ATOM     23  C   UNL     1      -0.103  -2.241   1.174  0.00  0.00    +0.009 C 
BRANCH  23  24
ATOM     24  C   UNL     1      -0.331  -0.729   1.145  0.00  0.00    +0.000 C 
BRANCH  24  26
ATOM     25  C   UNL     1      -1.357   1.155  -0.136  0.00  0.00    +0.004 C 
ATOM     26  C   UNL     1      -1.129  -0.358  -0.106  0.00  0.00    -0.003 C 
ENDBRANCH  24  26
ENDBRANCH  23  24
ENDBRANCH  22  23
ENDBRANCH   1  22
BRANCH  12  27
ATOM     27  C   UNL     1       3.227  -8.426   6.676  0.00  0.00    +0.106 C 
BRANCH  27  28
ATOM     28  C   UNL     1       4.004  -7.137   6.757  0.00  0.00    +0.214 C 
ATOM     29  O   UNL     1       4.562  -6.703   5.772  0.00  0.00    -0.276 OA
ATOM     30  N   UNL     1       4.078  -6.466   7.923  0.00  0.00    -0.313 N 
ATOM     31  H   UNL     1       3.631  -6.813   8.711  0.00  0.00    +0.149 HD
BRANCH  30  32
ATOM     32  C   UNL     1       4.832  -5.213   8.002  0.00  0.00    +0.132 C 
BRANCH  32  33
ATOM     33  C   UNL     1       4.757  -4.660   9.426  0.00  0.00    +0.178 C 
BRANCH  33  34
ATOM     34  O   UNL     1       5.419  -5.557  10.321  0.00  0.00    -0.381 OA
ATOM     35  C   UNL     1       5.407  -5.132  11.685  0.00  0.00    +0.194 C 
ENDBRANCH  33  34
ENDBRANCH  32  33
ENDBRANCH  30  32
ENDBRANCH  27  28
ENDBRANCH  12  27
BRANCH  16  36
ATOM     36  C   UNL     1       1.918 -12.646   2.151  0.00  0.00    +0.165 C 
BRANCH  36  37
ATOM     37  O   UNL     1       1.375 -13.961   2.011  0.00  0.00    -0.394 OA
ATOM     38  H   UNL     1       1.192 -14.215   1.096  0.00  0.00    +0.209 HD
ENDBRANCH  36  37
ENDBRANCH  16  36
TORSDOF 12
