REMARK  Name = ZINC23544363
REMARK  6 active torsions:
REMARK  status: ('A' for Active; 'I' for Inactive)
REMARK    1  A    between atoms: C_7  and  C_25
REMARK    2  A    between atoms: C_12  and  C_13
REMARK    3  A    between atoms: C_17  and  N_19
REMARK    4  A    between atoms: C_25  and  O_27
REMARK    5  A    between atoms: O_27  and  C_28
REMARK    6  A    between atoms: C_28  and  C_29
REMARK                            x       y       z     vdW  Elec       q    Type
REMARK                         _______ _______ _______ _____ _____    ______ ____
ROOT
ATOM      1  C   UNL     1       4.788  -5.126   3.501  0.00  0.00    +0.001 A 
ATOM      2  C   UNL     1       6.011  -5.790   3.424  0.00  0.00    +0.002 A 
ATOM      3  C   UNL     1       6.640  -5.968   2.231  0.00  0.00    +0.028 A 
ATOM      4  C   UNL     1       6.051  -5.476   1.051  0.00  0.00    +0.072 A 
ATOM      5  C   UNL     1       4.808  -4.798   1.136  0.00  0.00    +0.015 A 
ATOM      6  C   UNL     1       4.187  -4.637   2.379  0.00  0.00    +0.011 A 
ATOM      7  C   UNL     1       4.197  -4.298  -0.096  0.00  0.00    +0.073 A 
ATOM      8  C   UNL     1       4.883  -4.508  -1.286  0.00  0.00    -0.007 A 
ATOM      9  C   UNL     1       6.117  -5.182  -1.258  0.00  0.00    +0.072 A 
ATOM     10  N   UNL     1       6.643  -5.632  -0.132  0.00  0.00    -0.247 NA
ATOM     11  C   UNL     1       6.857  -5.396  -2.522  0.00  0.00    -0.021 C 
ATOM     12  C   UNL     1       8.133  -5.816  -2.518  0.00  0.00    +0.013 C 
ATOM     13  C   UNL     1       6.127  -5.124  -3.821  0.00  0.00    +0.037 C 
ATOM     14  C   UNL     1       5.344  -3.817  -3.645  0.00  0.00    +0.009 C 
ATOM     15  C   UNL     1       4.279  -4.007  -2.568  0.00  0.00    +0.038 C 
ENDROOT
BRANCH  12  16
ATOM     16  C   UNL     1       8.792  -6.185  -3.783  0.00  0.00    -0.023 A 
ATOM     17  C   UNL     1       8.052  -6.765  -4.817  0.00  0.00    +0.008 A 
ATOM     18  C   UNL     1       8.676  -7.107  -5.998  0.00  0.00    +0.003 A 
ATOM     19  C   UNL     1      10.031  -6.878  -6.161  0.00  0.00    +0.033 A 
ATOM     20  C   UNL     1      10.770  -6.305  -5.142  0.00  0.00    +0.127 A 
ATOM     21  C   UNL     1      10.159  -5.951  -3.957  0.00  0.00    +0.040 A 
BRANCH  20  22
ATOM     22  N   UNL     1      12.219  -6.064  -5.326  0.00  0.00    +0.056 N 
ATOM     23  O   UNL     1      12.759  -6.371  -6.373  0.00  0.00    -0.126 OA
ATOM     24  O   UNL     1      12.871  -5.559  -4.429  0.00  0.00    -0.126 OA
ENDBRANCH  20  22
ENDBRANCH  12  16
BRANCH   7  25
ATOM     25  C   UNL     1       2.900  -3.590  -0.074  0.00  0.00    +0.341 C 
ATOM     26  O   UNL     1       1.865  -4.215  -0.193  0.00  0.00    -0.245 OA
BRANCH  25  27
ATOM     27  O   UNL     1       2.865  -2.252   0.077  0.00  0.00    -0.452 OA
BRANCH  27  28
ATOM     28  C   UNL     1       1.556  -1.624   0.089  0.00  0.00    +0.328 C 
BRANCH  28  29
ATOM     29  C   UNL     1       1.715  -0.136   0.266  0.00  0.00    +0.258 C 
ATOM     30  O   UNL     1       2.822   0.347   0.372  0.00  0.00    -0.272 OA
ATOM     31  N   UNL     1       0.626   0.658   0.307  0.00  0.00    -0.238 N 
ATOM     32  C   UNL     1       0.768   1.988   0.466  0.00  0.00    +0.303 C 
ATOM     33  O   UNL     1       1.877   2.473   0.572  0.00  0.00    -0.253 OA
ATOM     34  N   UNL     1      -0.320   2.783   0.501  0.00  0.00    -0.313 N 
ATOM     35  H   UNL     1      -0.378   0.219   0.211  0.00  0.00    +0.159 HD
ATOM     36  H   UNL     1      -0.205   3.869   0.631  0.00  0.00    +0.146 HD
ATOM     37  H   UNL     1      -1.324   2.345   0.400  0.00  0.00    +0.146 HD
ENDBRANCH  28  29
ENDBRANCH  27  28
ENDBRANCH  25  27
ENDBRANCH   7  25
TORSDOF 6
