REMARK  Name = ZINC14741714
REMARK  8 active torsions:
REMARK  status: ('A' for Active; 'I' for Inactive)
REMARK    1  A    between atoms: C_1  and  N_2
REMARK    2  A    between atoms: C_5  and  C_7
REMARK    3  A    between atoms: N_9  and  C_10
REMARK    4  A    between atoms: C_10  and  C_11
REMARK    5  A    between atoms: C_11  and  N_12
REMARK    6  A    between atoms: C_19  and  N_23
REMARK    7  A    between atoms: N_23  and  C_24
REMARK    8  A    between atoms: C_33  and  O_36
REMARK                            x       y       z     vdW  Elec       q    Type
REMARK                         _______ _______ _______ _____ _____    ______ ____
ROOT
ATOM      1  C   UNL     1      -0.455   1.099   0.403  0.00  0.00    +0.172 C 
ATOM      2  N   UNL     1      -0.334  -0.356   0.281  0.00  0.00    -0.270 N 
ATOM      3  C   UNL     1      -0.256  -1.028  -0.879  0.00  0.00    +0.043 A 
ATOM      4  C   UNL     1      -0.153  -2.345  -0.574  0.00  0.00    +0.004 A 
ATOM      5  C   UNL     1      -0.177  -2.419   0.829  0.00  0.00    +0.150 A 
ATOM      6  N   UNL     1      -0.282  -1.178   1.272  0.00  0.00    -0.166 NA
ATOM      7  C   UNL     1      -0.037  -3.450  -1.587  0.00  0.00    +0.023 C 
ATOM      8  C   UNL     1       0.349  -2.829  -2.936  0.00  0.00    -0.067 C 
ATOM      9  C   UNL     1      -0.581  -1.652  -3.242  0.00  0.00    -0.009 C 
ATOM     10  C   UNL     1      -0.276  -0.491  -2.287  0.00  0.00    +0.054 C 
ENDROOT
BRANCH   5  11
ATOM     11  C   UNL     1      -0.095  -3.645   1.649  0.00  0.00    +0.264 C 
ATOM     12  O   UNL     1       0.005  -4.730   1.112  0.00  0.00    -0.268 OA
ATOM     13  N   UNL     1      -0.130  -3.559   2.994  0.00  0.00    -0.312 N 
ATOM     14  H   UNL     1      -0.210  -2.693   3.423  0.00  0.00    +0.149 HD
BRANCH  13  15
ATOM     15  C   UNL     1      -0.049  -4.775   3.808  0.00  0.00    +0.086 C 
BRANCH  15  16
ATOM     16  C   UNL     1      -0.111  -4.402   5.290  0.00  0.00    -0.060 C 
BRANCH  16  17
ATOM     17  N   UNL     1      -0.029  -5.620   6.106  0.00  0.00    +0.381 N 
ATOM     18  C   UNL     1      -1.211  -6.454   5.857  0.00  0.00    -0.079 C 
ATOM     19  C   UNL     1      -1.092  -7.762   6.642  0.00  0.00    -0.019 C 
ATOM     20  C   UNL     1      -0.994  -7.446   8.138  0.00  0.00    -0.004 C 
ATOM     21  C   UNL     1       0.199  -6.516   8.375  0.00  0.00    -0.019 C 
ATOM     22  C   UNL     1       0.032  -5.254   7.526  0.00  0.00    -0.079 C 
ATOM     23  H   UNL     1       0.802  -6.136   5.856  0.00  0.00    -0.082 HD
ENDBRANCH  16  17
ENDBRANCH  15  16
ENDBRANCH  13  15
ENDBRANCH   5  11
BRANCH   8  24
ATOM     24  N   UNL     1       0.225  -3.839  -3.994  0.00  0.00    +0.383 N 
ATOM     25  H   UNL     1      -0.704  -4.234  -3.975  0.00  0.00    -0.085 HD
ATOM     26  H   UNL     1       0.389  -3.408  -4.892  0.00  0.00    -0.085 HD
BRANCH  24  27
ATOM     27  C   UNL     1       1.214  -4.903  -3.774  0.00  0.00    -0.065 C 
ATOM     28  C   UNL     1       2.623  -4.334  -3.950  0.00  0.00    -0.022 C 
ATOM     29  C   UNL     1       2.776  -3.781  -5.368  0.00  0.00    +0.005 C 
ATOM     30  C   UNL     1       2.550  -4.904  -6.382  0.00  0.00    -0.008 C 
ATOM     31  C   UNL     1       1.141  -5.474  -6.206  0.00  0.00    +0.005 C 
ATOM     32  C   UNL     1       0.987  -6.027  -4.787  0.00  0.00    -0.022 C 
ATOM     33  C   UNL     1       2.017  -7.135  -4.559  0.00  0.00    +0.036 C 
ATOM     34  C   UNL     1       3.426  -6.566  -4.734  0.00  0.00    +0.067 C 
ATOM     35  C   UNL     1       3.653  -5.442  -3.721  0.00  0.00    +0.036 C 
ATOM     36  C   UNL     1       3.580  -6.013  -6.153  0.00  0.00    +0.038 C 
BRANCH  34  37
ATOM     37  O   UNL     1       4.388  -7.601  -4.521  0.00  0.00    -0.389 OA
ATOM     38  H   UNL     1       5.306  -7.311  -4.616  0.00  0.00    +0.210 HD
ENDBRANCH  34  37
ENDBRANCH  24  27
ENDBRANCH   8  24
TORSDOF 7
