REMARK  Name = ZINC09499767
REMARK  7 active torsions:
REMARK  status: ('A' for Active; 'I' for Inactive)
REMARK    1  A    between atoms: C_1  and  C_2
REMARK    2  A    between atoms: C_5  and  S_8
REMARK    3  A    between atoms: S_8  and  C_9
REMARK    4  A    between atoms: C_9  and  C_10
REMARK    5  A    between atoms: C_11  and  C_21
REMARK    6  A    between atoms: N_23  and  N_24
REMARK    7  A    between atoms: C_25  and  C_26
REMARK                            x       y       z     vdW  Elec       q    Type
REMARK                         _______ _______ _______ _____ _____    ______ ____
ROOT
ATOM      1  C   UNL     1       1.833   3.724   0.004  0.00  0.00    +0.089 A 
ATOM      2  C   UNL     1       1.902   4.541  -1.089  0.00  0.00    +0.173 A 
ATOM      3  N   UNL     1       2.012   5.812  -0.664  0.00  0.00    -0.124 NA
ATOM      4  N   UNL     1       2.025   5.838   0.623  0.00  0.00    -0.058 NA
ATOM      5  N   UNL     1       1.912   4.522   1.093  0.00  0.00    -0.191 N 
ATOM      6  C   UNL     1       1.886   4.112   2.431  0.00  0.00    +0.240 A 
ATOM      7  C   UNL     1       1.974   4.993   3.599  0.00  0.00    +0.206 A 
ATOM      8  N   UNL     1       1.916   4.256   4.674  0.00  0.00    -0.032 NA
ATOM      9  O   UNL     1       1.793   2.904   4.267  0.00  0.00    -0.239 OA
ATOM     10  N   UNL     1       1.775   2.884   2.851  0.00  0.00    -0.027 NA
ATOM     11  N   UNL     1       2.097   6.378   3.567  0.00  0.00    -0.337 N 
ATOM     12  H   UNL     1       2.131   6.842   2.717  0.00  0.00    +0.144 HD
ATOM     13  H   UNL     1       2.147   6.879   4.396  0.00  0.00    +0.144 HD
ENDROOT
BRANCH   2  14
ATOM     14  C   UNL     1       1.860   4.103  -2.496  0.00  0.00    +0.285 C 
ATOM     15  O   UNL     1       1.755   2.921  -2.762  0.00  0.00    -0.267 OA
ATOM     16  N   UNL     1       1.938   5.013  -3.488  0.00  0.00    -0.202 N 
ATOM     17  H   UNL     1       2.022   5.955  -3.275  0.00  0.00    +0.178 HD
BRANCH  16  18
ATOM     18  N   UNL     1       1.898   4.596  -4.825  0.00  0.00    -0.187 NA
ATOM     19  C   UNL     1       1.973   5.473  -5.781  0.00  0.00    +0.139 C 
BRANCH  19  20
ATOM     20  C   UNL     1       1.931   5.036  -7.184  0.00  0.00    +0.002 A 
ATOM     21  C   UNL     1       1.898   5.966  -8.217  0.00  0.00    +0.010 A 
ATOM     22  C   UNL     1       1.863   5.551  -9.540  0.00  0.00    +0.001 A 
ATOM     23  C   UNL     1       1.849   4.232  -9.879  0.00  0.00    +0.008 A 
ATOM     24  C   UNL     1       1.875   3.237  -8.888  0.00  0.00    -0.017 A 
ATOM     25  C   UNL     1       1.916   3.615  -7.524  0.00  0.00    -0.009 A 
ATOM     26  C   UNL     1       1.943   2.626  -6.533  0.00  0.00    +0.009 A 
ATOM     27  C   UNL     1       1.928   1.311  -6.893  0.00  0.00    +0.001 A 
ATOM     28  C   UNL     1       1.887   0.937  -8.234  0.00  0.00    +0.001 A 
ATOM     29  C   UNL     1       1.861   1.872  -9.223  0.00  0.00    +0.008 A 
ENDBRANCH  19  20
ENDBRANCH  16  18
ENDBRANCH   2  14
BRANCH   1  30
ATOM     30  C   UNL     1       1.700   2.223  -0.002  0.00  0.00    +0.132 C 
BRANCH  30  31
ATOM     31  S   UNL     1      -0.057   1.772   0.008  0.00  0.00    -0.119 S 
BRANCH  31  36
ATOM     32  C   UNL     1      -0.013  -4.264  -0.024  0.00  0.00    +0.044 C 
ATOM     33  C   UNL     1      -0.024  -2.757  -0.016  0.00  0.00    -0.050 A 
ATOM     34  C   UNL     1      -1.228  -2.076  -0.003  0.00  0.00    +0.004 A 
ATOM     35  C   UNL     1      -1.242  -0.696   0.004  0.00  0.00    +0.015 A 
ATOM     36  C   UNL     1      -0.044   0.010  -0.001  0.00  0.00    +0.008 A 
ATOM     37  C   UNL     1       1.163  -0.678  -0.019  0.00  0.00    +0.015 A 
ATOM     38  C   UNL     1       1.170  -2.059  -0.021  0.00  0.00    +0.004 A 
ENDBRANCH  31  36
ENDBRANCH  30  31
ENDBRANCH   1  30
TORSDOF 6
