REMARK  Name = ZINC38702112
REMARK  10 active torsions:
REMARK  status: ('A' for Active; 'I' for Inactive)
REMARK    1  A    between atoms: C_1  and  C_2
REMARK    2  A    between atoms: C_2  and  O_3
REMARK    3  A    between atoms: O_3  and  C_4
REMARK    4  A    between atoms: C_6  and  C_11
REMARK    5  A    between atoms: C_9  and  O_10
REMARK    6  A    between atoms: C_14  and  C_30
REMARK    7  A    between atoms: N_21  and  C_22
REMARK    8  A    between atoms: C_32  and  C_38
REMARK    9  A    between atoms: C_34  and  C_37
REMARK   10  A    between atoms: C_35  and  O_36
REMARK                            x       y       z     vdW  Elec       q    Type
REMARK                         _______ _______ _______ _____ _____    ______ ____
ROOT
ATOM      1  C   UNL     1      -0.028  -4.886  -0.603  0.00  0.00    +0.142 C 
ATOM      2  C   UNL     1       1.042  -5.615  -1.367  0.00  0.00    +0.035 A 
ATOM      3  C   UNL     1       2.157  -5.530  -2.208  0.00  0.00    +0.102 A 
ATOM      4  N   UNL     1       2.565  -6.761  -2.447  0.00  0.00    -0.173 NA
ATOM      5  N   UNL     1       1.819  -7.614  -1.841  0.00  0.00    -0.272 N 
ATOM      6  H   UNL     1       1.933  -8.577  -1.874  0.00  0.00    +0.189 HD
ATOM      7  C   UNL     1       0.841  -6.964  -1.143  0.00  0.00    +0.126 A 
ATOM      8  C   UNL     1      -0.321  -7.122  -0.262  0.00  0.00    +0.266 C 
ATOM      9  O   UNL     1      -0.759  -8.189   0.124  0.00  0.00    -0.268 OA
ATOM     10  N   UNL     1      -0.835  -5.920   0.058  0.00  0.00    -0.280 N 
ENDROOT
BRANCH   3  11
ATOM     11  C   UNL     1       2.768  -4.284  -2.734  0.00  0.00    +0.044 A 
ATOM     12  C   UNL     1       2.159  -3.054  -2.499  0.00  0.00    +0.017 A 
ATOM     13  C   UNL     1       2.731  -1.898  -2.991  0.00  0.00    -0.049 A 
ATOM     14  C   UNL     1       3.908  -1.956  -3.716  0.00  0.00    +0.010 A 
ATOM     15  C   UNL     1       4.519  -3.172  -3.955  0.00  0.00    -0.008 A 
ATOM     16  C   UNL     1       3.959  -4.340  -3.462  0.00  0.00    +0.129 A 
ATOM     17  C   UNL     1       5.801  -3.227  -4.747  0.00  0.00    +0.047 C 
ATOM     18  C   UNL     1       2.071  -0.567  -2.736  0.00  0.00    +0.044 C 
BRANCH  16  19
ATOM     19  O   UNL     1       4.563  -5.535  -3.691  0.00  0.00    -0.506 OA
ATOM     20  H   UNL     1       4.277  -5.971  -4.505  0.00  0.00    +0.292 HD
ENDBRANCH  16  19
ENDBRANCH   3  11
BRANCH  10  21
ATOM     21  C   UNL     1      -1.998  -5.683   0.917  0.00  0.00    +0.100 C 
ATOM     22  C   UNL     1      -1.748  -6.288   2.308  0.00  0.00    +0.047 C 
ATOM     23  C   UNL     1      -3.071  -6.329   3.111  0.00  0.00    +0.168 C 
ATOM     24  S   UNL     1      -4.342  -6.462   1.789  0.00  0.00    -0.029 S 
ATOM     25  O   UNL     1      -4.937  -7.752   1.847  0.00  0.00    -0.174 OA
ATOM     26  O   UNL     1      -5.170  -5.308   1.825  0.00  0.00    -0.174 OA
ATOM     27  C   UNL     1      -3.251  -6.373   0.307  0.00  0.00    +0.188 C 
ENDBRANCH  10  21
BRANCH   1  30
ATOM     28  C   UNL     1       1.816  -3.688   2.469  0.00  0.00    +0.162 A 
ATOM     29  C   UNL     1       1.242  -4.520   1.522  0.00  0.00    +0.055 A 
ATOM     30  C   UNL     1       0.596  -3.979   0.426  0.00  0.00    -0.019 A 
ATOM     31  C   UNL     1       0.521  -2.607   0.273  0.00  0.00    +0.009 A 
ATOM     32  C   UNL     1       1.092  -1.770   1.214  0.00  0.00    +0.049 A 
ATOM     33  C   UNL     1       1.736  -2.307   2.317  0.00  0.00    +0.158 A 
BRANCH  33  34
ATOM     34  O   UNL     1       2.293  -1.485   3.247  0.00  0.00    -0.503 OA
ATOM     35  H   UNL     1       3.214  -1.253   3.065  0.00  0.00    +0.292 HD
ENDBRANCH  33  34
BRANCH  28  36
ATOM     36  O   UNL     1       2.451  -4.219   3.548  0.00  0.00    -0.489 OA
BRANCH  36  38
ATOM     37  C   UNL     1       3.374  -6.046   4.832  0.00  0.00    +0.048 C 
ATOM     38  C   UNL     1       2.572  -5.642   3.594  0.00  0.00    +0.226 C 
ENDBRANCH  36  38
ENDBRANCH  28  36
ENDBRANCH   1  30
TORSDOF 7
