REMARK  Name = ZINC51168887
REMARK  9 active torsions:
REMARK  status: ('A' for Active; 'I' for Inactive)
REMARK    1  A    between atoms: C_1  and  C_2
REMARK    2  A    between atoms: C_4  and  C_10
REMARK    3  A    between atoms: C_6  and  C_9
REMARK    4  A    between atoms: C_7  and  O_8
REMARK    5  A    between atoms: C_12  and  C_18
REMARK    6  A    between atoms: C_14  and  N_16
REMARK    7  A    between atoms: N_16  and  N_17
REMARK    8  A    between atoms: C_18  and  C_19
REMARK    9  A    between atoms: C_18  and  C_20
REMARK                            x       y       z     vdW  Elec       q    Type
REMARK                         _______ _______ _______ _____ _____    ______ ____
ROOT
ATOM      1  C   UNL     1       0.029  -2.817  -2.489  0.00  0.00    +0.162 A 
ATOM      2  N   UNL     1       0.042  -4.143  -2.475  0.00  0.00    -0.232 NA
ATOM      3  C   UNL     1       0.045  -4.835  -3.604  0.00  0.00    +0.050 A 
ATOM      4  C   UNL     1       0.035  -4.162  -4.810  0.00  0.00    +0.068 A 
ATOM      5  C   UNL     1       0.021  -2.765  -4.794  0.00  0.00    +0.136 A 
ATOM      6  N   UNL     1       0.013  -2.133  -3.625  0.00  0.00    -0.212 NA
ENDROOT
BRANCH   1  10
ATOM      7  C   UNL     1      -0.018   1.503   0.010  0.00  0.00    +0.047 C 
ATOM      8  C   UNL     1       0.002  -0.004   0.002  0.00  0.00    -0.008 A 
ATOM      9  C   UNL     1       0.006  -0.686  -1.196  0.00  0.00    +0.018 A 
ATOM     10  C   UNL     1       0.025  -2.080  -1.203  0.00  0.00    +0.020 A 
ATOM     11  C   UNL     1       0.041  -2.781   0.003  0.00  0.00    +0.018 A 
ATOM     12  C   UNL     1       0.037  -2.093   1.198  0.00  0.00    -0.008 A 
ATOM     13  C   UNL     1       0.023  -0.704   1.201  0.00  0.00    +0.123 A 
ATOM     14  C   UNL     1       0.054  -2.849   2.502  0.00  0.00    +0.047 C 
BRANCH  13  15
ATOM     15  O   UNL     1       0.025  -0.029   2.380  0.00  0.00    -0.506 OA
ATOM     16  H   UNL     1      -0.858   0.154   2.729  0.00  0.00    +0.292 HD
ENDBRANCH  13  15
ENDBRANCH   1  10
BRANCH   3  17
ATOM     17  C   UNL     1       0.061  -6.342  -3.573  0.00  0.00    +0.032 C 
ATOM     18  C   UNL     1      -1.371  -6.869  -3.683  0.00  0.00    +0.014 C 
ATOM     19  C   UNL     1       0.890  -6.868  -4.746  0.00  0.00    +0.014 C 
ENDBRANCH   3  17
BRANCH   5  20
ATOM     20  N   UNL     1       0.011  -2.048  -5.980  0.00  0.00    -0.267 N 
ATOM     21  H   UNL     1       0.014  -2.516  -6.830  0.00  0.00    +0.167 HD
BRANCH  20  22
ATOM     22  N   UNL     1      -0.002  -0.682  -5.953  0.00  0.00    -0.255 NA
ATOM     23  H   UNL     1       0.777  -0.324  -5.421  0.00  0.00    +0.140 HD
ATOM     24  H   UNL     1      -0.008  -0.302  -6.887  0.00  0.00    +0.140 HD
ENDBRANCH  20  22
ENDBRANCH   5  20
TORSDOF 5
