REMARK  Name = ZINC06077433
REMARK  16 active torsions:
REMARK  status: ('A' for Active; 'I' for Inactive)
REMARK    1  A    between atoms: C_1  and  C_2
REMARK    2  A    between atoms: C_2  and  C_3
REMARK    3  A    between atoms: C_3  and  C_4
REMARK    4  A    between atoms: C_3  and  C_5
REMARK    5  A    between atoms: C_3  and  N_6
REMARK    6  A    between atoms: C_7  and  C_9
REMARK    7  A    between atoms: C_9  and  C_11
REMARK    8  A    between atoms: C_9  and  N_20
REMARK    9  A    between atoms: C_14  and  O_17
REMARK   10  A    between atoms: O_17  and  C_18
REMARK   11  A    between atoms: C_18  and  C_19
REMARK   12  A    between atoms: N_20  and  C_21
REMARK   13  A    between atoms: C_21  and  C_22
REMARK   14  A    between atoms: C_28  and  C_30
REMARK   15  A    between atoms: C_31  and  N_38
REMARK   16  A    between atoms: C_32  and  C_35
REMARK                            x       y       z     vdW  Elec       q    Type
REMARK                         _______ _______ _______ _____ _____    ______ ____
ROOT
ATOM      1  N   UNL     1       4.660  -0.908   0.162  0.00  0.00    -0.277 N 
ATOM      2  C   UNL     1       4.337  -2.013   0.864  0.00  0.00    +0.258 C 
ATOM      3  O   UNL     1       4.974  -2.310   1.857  0.00  0.00    -0.269 OA
ENDROOT
BRANCH   2   4
ATOM      4  C   UNL     1       3.219  -2.854   0.432  0.00  0.00    +0.115 A 
ATOM      5  C   UNL     1       3.116  -4.246   0.412  0.00  0.00    +0.076 A 
ATOM      6  C   UNL     1       1.882  -4.683  -0.072  0.00  0.00    +0.155 A 
ATOM      7  N   UNL     1       0.986  -3.795  -0.443  0.00  0.00    -0.203 NA
ATOM      8  S   UNL     1       1.628  -2.375  -0.209  0.00  0.00    +0.019 S 
BRANCH   6   9
ATOM      9  C   UNL     1       1.588  -6.124  -0.168  0.00  0.00    +0.262 C 
ATOM     10  O   UNL     1       2.422  -6.939   0.176  0.00  0.00    -0.269 OA
ATOM     11  N   UNL     1       0.394  -6.538  -0.636  0.00  0.00    -0.324 N 
ATOM     12  H   UNL     1      -0.272  -5.888  -0.910  0.00  0.00    +0.145 HD
ATOM     13  H   UNL     1       0.200  -7.487  -0.699  0.00  0.00    +0.145 HD
ENDBRANCH   6   9
BRANCH   5  14
ATOM     14  N   UNL     1       4.128  -5.101   0.827  0.00  0.00    -0.355 N 
ATOM     15  H   UNL     1       3.997  -6.061   0.790  0.00  0.00    +0.142 HD
ATOM     16  H   UNL     1       4.965  -4.737   1.155  0.00  0.00    +0.142 HD
ENDBRANCH   5  14
ENDBRANCH   2   4
BRANCH   1  17
ATOM     17  C   UNL     1       5.861  -0.144   0.510  0.00  0.00    +0.193 C 
BRANCH  17  18
ATOM     18  C   UNL     1       5.472   1.050   1.344  0.00  0.00    -0.018 A 
ATOM     19  C   UNL     1       4.364   1.801   0.999  0.00  0.00    +0.009 A 
ATOM     20  C   UNL     1       4.002   2.892   1.765  0.00  0.00    +0.046 A 
ATOM     21  C   UNL     1       4.758   3.241   2.874  0.00  0.00    +0.121 A 
ATOM     22  C   UNL     1       5.873   2.489   3.215  0.00  0.00    +0.046 A 
ATOM     23  C   UNL     1       6.227   1.395   2.449  0.00  0.00    +0.009 A 
BRANCH  21  24
ATOM     24  O   UNL     1       4.409   4.318   3.626  0.00  0.00    -0.492 OA
BRANCH  24  25
ATOM     25  C   UNL     1       3.249   5.046   3.216  0.00  0.00    +0.225 C 
ATOM     26  C   UNL     1       3.015   6.214   4.175  0.00  0.00    +0.048 C 
ENDBRANCH  24  25
ENDBRANCH  21  24
ENDBRANCH  17  18
BRANCH  17  28
ATOM     27  N   UNL     1       7.790  -0.096  -1.038  0.00  0.00    -0.308 N 
ATOM     28  C   UNL     1       6.541   0.324  -0.750  0.00  0.00    +0.239 C 
ATOM     29  O   UNL     1       5.966   1.078  -1.506  0.00  0.00    -0.273 OA
ATOM     30  H   UNL     1       8.207  -0.782  -0.495  0.00  0.00    +0.149 HD
BRANCH  27  31
ATOM     31  C   UNL     1       8.515   0.484  -2.171  0.00  0.00    +0.029 C 
ATOM     32  C   UNL     1       7.779   0.154  -3.471  0.00  0.00    +0.031 C 
ATOM     33  C   UNL     1       8.594   2.003  -2.002  0.00  0.00    +0.031 C 
BRANCH  31  35
ATOM     34  C   UNL     1      10.686   0.509  -3.406  0.00  0.00    +0.006 C 
ATOM     35  C   UNL     1       9.929  -0.097  -2.223  0.00  0.00    +0.022 C 
ENDBRANCH  31  35
ENDBRANCH  27  31
ENDBRANCH  17  28
ENDBRANCH   1  17
BRANCH   1  36
ATOM     36  C   UNL     1       3.811  -0.472  -0.950  0.00  0.00    +0.145 C 
BRANCH  36  37
ATOM     37  C   UNL     1       4.097  -1.320  -2.163  0.00  0.00    -0.012 A 
ATOM     38  C   UNL     1       4.920  -0.845  -3.172  0.00  0.00    +0.008 A 
ATOM     39  C   UNL     1       5.159  -1.661  -4.267  0.00  0.00    +0.020 A 
ATOM     40  C   UNL     1       4.564  -2.908  -4.321  0.00  0.00    +0.111 A 
ATOM     41  N   UNL     1       3.783  -3.324  -3.344  0.00  0.00    -0.263 NA
ATOM     42  C   UNL     1       3.537  -2.577  -2.285  0.00  0.00    +0.115 A 
ENDBRANCH  36  37
ENDBRANCH   1  36
TORSDOF 12
