REMARK  Name = ZINC61881646
REMARK  4 active torsions:
REMARK  status: ('A' for Active; 'I' for Inactive)
REMARK    1  A    between atoms: C_3  and  N_8
REMARK    2  A    between atoms: N_8  and  S_9
REMARK    3  A    between atoms: S_9  and  C_12
REMARK    4  A    between atoms: C_16  and  N_19
REMARK                            x       y       z     vdW  Elec       q    Type
REMARK                         _______ _______ _______ _____ _____    ______ ____
ROOT
ATOM      1  S   UNL     1       5.009   1.139  -0.040  0.00  0.00    +0.094 S 
ATOM      2  O   UNL     1       5.081   0.451   1.201  0.00  0.00    -0.148 OA
ATOM      3  O   UNL     1       5.058   0.464  -1.289  0.00  0.00    -0.148 OA
ENDROOT
BRANCH   1   4
ATOM      4  C   UNL     1       6.329   2.307  -0.046  0.00  0.00    +0.127 A 
ATOM      5  C   UNL     1       7.195   2.375   1.030  0.00  0.00    +0.050 A 
ATOM      6  C   UNL     1       8.233   3.290   1.028  0.00  0.00    +0.045 A 
ATOM      7  C   UNL     1       8.407   4.139  -0.049  0.00  0.00    +0.044 A 
ATOM      8  C   UNL     1       7.538   4.073  -1.130  0.00  0.00    +0.042 A 
ATOM      9  C   UNL     1       6.500   3.149  -1.128  0.00  0.00    +0.065 A 
ATOM     10 BR   UNL     1       5.319   3.048  -2.601  0.00  0.00    -0.046 Br
ATOM     11 CL   UNL     1       9.318   3.373   2.381  0.00  0.00    -0.083 Cl
BRANCH   8  12
ATOM     12  N   UNL     1       7.711   4.929  -2.220  0.00  0.00    -0.357 N 
ATOM     13  H   UNL     1       8.438   5.572  -2.223  0.00  0.00    +0.142 HD
ATOM     14  H   UNL     1       7.104   4.882  -2.975  0.00  0.00    +0.142 HD
ENDBRANCH   8  12
ENDBRANCH   1   4
BRANCH   1  15
ATOM     15  N   UNL     1       3.594   2.000  -0.021  0.00  0.00    -0.078 NA
BRANCH  15  18
ATOM     16  C   UNL     1      -0.017   1.385   0.010  0.00  0.00    +0.020 A 
ATOM     17  C   UNL     1       1.190   2.061   0.002  0.00  0.00    +0.048 A 
ATOM     18  C   UNL     1       2.374   1.332  -0.013  0.00  0.00    +0.163 A 
ATOM     19  N   UNL     1       2.351   0.008  -0.021  0.00  0.00    -0.236 NA
ATOM     20  C   UNL     1       1.216  -0.664  -0.014  0.00  0.00    +0.128 A 
ATOM     21  C   UNL     1       0.002  -0.004   0.002  0.00  0.00    +0.036 A 
ATOM     22 BR   UNL     1      -1.617  -0.982   0.013  0.00  0.00    -0.049 Br
ENDBRANCH  15  18
ENDBRANCH   1  15
TORSDOF 4
