REMARK  Name = ZINC36684928
REMARK  9 active torsions:
REMARK  status: ('A' for Active; 'I' for Inactive)
REMARK    1  A    between atoms: C_1  and  C_2
REMARK    2  A    between atoms: N_11  and  C_15
REMARK    3  A    between atoms: C_15  and  C_16
REMARK    4  A    between atoms: N_18  and  C_19
REMARK    5  A    between atoms: C_19  and  C_20
REMARK    6  A    between atoms: C_20  and  C_22
REMARK    7  A    between atoms: C_20  and  N_30
REMARK    8  A    between atoms: C_25  and  O_28
REMARK    9  A    between atoms: O_28  and  C_29
REMARK                            x       y       z     vdW  Elec       q    Type
REMARK                         _______ _______ _______ _____ _____    ______ ____
ROOT
ATOM      1  C   UNL     1       3.322   2.922   2.359  0.00  0.00    +0.231 C 
ATOM      2  O   UNL     1       2.323   3.284   1.774  0.00  0.00    -0.274 OA
ATOM      3  N   UNL     1       4.304   3.805   2.627  0.00  0.00    -0.315 N 
ATOM      4  H   UNL     1       5.103   3.516   3.095  0.00  0.00    +0.149 HD
ENDROOT
BRANCH   1   5
ATOM      5  C   UNL     1       3.466   1.484   2.785  0.00  0.00    +0.213 C 
BRANCH   5  15
ATOM      6  C   UNL     1      -0.159   1.567   0.232  0.00  0.00    +0.010 C 
ATOM      7  C   UNL     1      -0.101   0.044   0.107  0.00  0.00    +0.018 C 
ATOM      8  C   UNL     1       0.495  -0.334  -1.252  0.00  0.00    +0.006 C 
ATOM      9  C   UNL     1       0.572  -1.857  -1.368  0.00  0.00    +0.000 C 
ATOM     10  C   UNL     1       1.467  -2.411  -0.257  0.00  0.00    +0.003 C 
ATOM     11  C   UNL     1       0.874  -2.042   1.105  0.00  0.00    +0.035 C 
ATOM     12  C   UNL     1       0.768  -0.525   1.222  0.00  0.00    +0.115 C 
ATOM     13  C   UNL     1       2.142   0.104   1.194  0.00  0.00    +0.247 C 
ATOM     14  O   UNL     1       2.954   0.053   0.295  0.00  0.00    -0.273 OA
ATOM     15  N   UNL     1       2.275   0.733   2.380  0.00  0.00    -0.215 N 
ATOM     16  C   UNL     1       1.183   0.587   3.141  0.00  0.00    +0.310 C 
ATOM     17  O   UNL     1       1.065   1.063   4.252  0.00  0.00    -0.252 OA
ATOM     18  N   UNL     1       0.230  -0.148   2.536  0.00  0.00    -0.285 N 
ATOM     19  H   UNL     1      -0.639  -0.382   2.896  0.00  0.00    +0.151 HD
ENDBRANCH   5  15
ENDBRANCH   1   5
BRANCH   3  20
ATOM     20  C   UNL     1       4.165   5.204   2.213  0.00  0.00    +0.093 C 
BRANCH  20  21
ATOM     21  C   UNL     1       5.354   6.012   2.735  0.00  0.00    -0.020 C 
BRANCH  21  22
ATOM     22  N   UNL     1       5.167   7.430   2.402  0.00  0.00    +0.385 N 
ATOM     23  C   UNL     1       6.335   8.195   2.854  0.00  0.00    -0.078 C 
ATOM     24  C   UNL     1       6.182   9.660   2.438  0.00  0.00    -0.019 C 
ATOM     25  C   UNL     1       4.915  10.236   3.075  0.00  0.00    -0.004 C 
ATOM     26  C   UNL     1       3.712   9.385   2.656  0.00  0.00    -0.019 C 
ATOM     27  C   UNL     1       3.957   7.931   3.064  0.00  0.00    -0.078 C 
ATOM     28  H   UNL     1       5.068   7.529   1.403  0.00  0.00    -0.081 HD
ENDBRANCH  21  22
BRANCH  21  29
ATOM     29  C   UNL     1       6.623   5.508   2.096  0.00  0.00    -0.059 A 
ATOM     30  C   UNL     1       6.959   5.914   0.817  0.00  0.00    +0.005 A 
ATOM     31  C   UNL     1       8.121   5.454   0.229  0.00  0.00    +0.046 A 
ATOM     32  C   UNL     1       8.951   4.585   0.922  0.00  0.00    +0.120 A 
ATOM     33  C   UNL     1       8.611   4.179   2.204  0.00  0.00    +0.046 A 
ATOM     34  C   UNL     1       7.451   4.646   2.790  0.00  0.00    +0.005 A 
BRANCH  32  35
ATOM     35  O   UNL     1      10.094   4.130   0.345  0.00  0.00    -0.495 OA
ATOM     36  C   UNL     1      10.900   3.238   1.117  0.00  0.00    +0.277 C 
ENDBRANCH  32  35
ENDBRANCH  21  29
ENDBRANCH  20  21
ENDBRANCH   3  20
TORSDOF 7
