REMARK  Name = ZINC24956070
REMARK  10 active torsions:
REMARK  status: ('A' for Active; 'I' for Inactive)
REMARK    1  A    between atoms: C_1  and  C_2
REMARK    2  A    between atoms: C_2  and  C_3
REMARK    3  A    between atoms: C_3  and  C_4
REMARK    4  A    between atoms: C_4  and  N_5
REMARK    5  A    between atoms: C_6  and  N_29
REMARK    6  A    between atoms: C_7  and  N_14
REMARK    7  A    between atoms: N_14  and  C_15
REMARK    8  A    between atoms: N_14  and  C_17
REMARK    9  A    between atoms: C_15  and  C_16
REMARK   10  A    between atoms: C_17  and  C_18
REMARK                            x       y       z     vdW  Elec       q    Type
REMARK                         _______ _______ _______ _____ _____    ______ ____
ROOT
ATOM      1  N   UNL     1      -1.290   3.604  -0.914  0.00  0.00    -0.280 N 
ATOM      2  C   UNL     1      -0.064   4.159  -0.626  0.00  0.00    +0.127 A 
ATOM      3  C   UNL     1       1.000   3.338  -0.368  0.00  0.00    +0.134 A 
ATOM      4  C   UNL     1       0.811   1.945  -0.405  0.00  0.00    +0.277 A 
ATOM      5  O   UNL     1       1.745   1.193  -0.179  0.00  0.00    -0.266 OA
ATOM      6  N   UNL     1      -0.407   1.445  -0.692  0.00  0.00    -0.273 N 
ATOM      7  H   UNL     1      -0.563   0.357  -0.718  0.00  0.00    +0.173 HD
ATOM      8  C   UNL     1      -1.441   2.267  -0.948  0.00  0.00    +0.331 A 
ATOM      9  O   UNL     1      -2.530   1.794  -1.209  0.00  0.00    -0.246 OA
ENDROOT
BRANCH   2  10
ATOM     10  N   UNL     1       0.090   5.526  -0.596  0.00  0.00    -0.343 N 
ATOM     11  H   UNL     1       1.072   5.964  -0.365  0.00  0.00    +0.144 HD
ATOM     12  H   UNL     1      -0.769   6.181  -0.804  0.00  0.00    +0.144 HD
ENDBRANCH   2  10
BRANCH   1  13
ATOM     13  C   UNL     1      -2.436   4.473  -1.191  0.00  0.00    +0.128 C 
BRANCH  13  14
ATOM     14  C   UNL     1      -2.502   4.767  -2.691  0.00  0.00    +0.021 C 
BRANCH  14  16
ATOM     15  C   UNL     1      -3.764   5.969  -4.481  0.00  0.00    +0.004 C 
ATOM     16  C   UNL     1      -3.699   5.675  -2.981  0.00  0.00    -0.002 C 
ENDBRANCH  14  16
ENDBRANCH  13  14
ENDBRANCH   1  13
BRANCH   3  17
ATOM     17  N   UNL     1       2.271   3.883  -0.069  0.00  0.00    -0.318 N 
BRANCH  17  18
ATOM     18  C   UNL     1       2.683   3.537   1.298  0.00  0.00    +0.102 C 
ATOM     19  C   UNL     1       1.917   4.405   2.297  0.00  0.00    +0.024 C 
ENDBRANCH  17  18
BRANCH  17  20
ATOM     20  C   UNL     1       3.274   3.446  -1.048  0.00  0.00    +0.160 C 
BRANCH  20  21
ATOM     21  C   UNL     1       4.490   4.332  -0.951  0.00  0.00    +0.066 A 
ATOM     22  C   UNL     1       5.700   3.801  -0.550  0.00  0.00    +0.095 A 
ATOM     23  C   UNL     1       6.816   4.642  -0.473  0.00  0.00    +0.259 A 
ATOM     24  O   UNL     1       7.901   4.202  -0.128  0.00  0.00    -0.267 OA
ATOM     25  N   UNL     1       6.673   5.949  -0.782  0.00  0.00    -0.268 N 
ATOM     26  C   UNL     1       7.747   6.781  -0.706  0.00  0.00    +0.096 A 
ATOM     27  C   UNL     1       7.628   8.093  -1.011  0.00  0.00    +0.018 A 
ATOM     28  C   UNL     1       6.389   8.614  -1.410  0.00  0.00    +0.005 A 
ATOM     29  C   UNL     1       5.307   7.789  -1.489  0.00  0.00    +0.047 A 
ATOM     30  C   UNL     1       5.451   6.427  -1.168  0.00  0.00    +0.141 A 
ATOM     31  N   UNL     1       4.395   5.619  -1.245  0.00  0.00    -0.232 NA
ENDBRANCH  20  21
ENDBRANCH  17  20
ENDBRANCH   3  17
TORSDOF 8
