REMARK  Name = ZINC46141077
REMARK  6 active torsions:
REMARK  status: ('A' for Active; 'I' for Inactive)
REMARK    1  A    between atoms: C_1  and  C_2
REMARK    2  A    between atoms: C_5  and  C_8
REMARK    3  A    between atoms: C_11  and  C_17
REMARK    4  A    between atoms: N_19  and  C_20
REMARK    5  A    between atoms: C_21  and  N_31
REMARK    6  A    between atoms: N_31  and  C_32
REMARK                            x       y       z     vdW  Elec       q    Type
REMARK                         _______ _______ _______ _____ _____    ______ ____
ROOT
ATOM      1  C   UNL     1      -0.002  -5.673   4.768  0.00  0.00    +0.248 C 
ATOM      2  O   UNL     1      -0.954  -5.011   5.136  0.00  0.00    -0.270 OA
ATOM      3  N   UNL     1       0.864  -6.171   5.674  0.00  0.00    -0.274 N 
ATOM      4  H   UNL     1       1.663  -6.633   5.377  0.00  0.00    +0.155 HD
ENDROOT
BRANCH   3   5
ATOM      5  C   UNL     1       0.608  -6.020   7.047  0.00  0.00    +0.141 A 
ATOM      6  C   UNL     1       0.489  -7.133   7.861  0.00  0.00    +0.067 A 
ATOM      7  C   UNL     1       0.220  -6.913   9.291  0.00  0.00    +0.040 A 
ATOM      8  C   UNL     1       0.089  -7.989  10.172  0.00  0.00    +0.013 A 
ATOM      9  C   UNL     1      -0.162  -7.751  11.505  0.00  0.00    +0.001 A 
ATOM     10  C   UNL     1      -0.283  -6.451  11.973  0.00  0.00    +0.004 A 
ATOM     11  C   UNL     1      -0.156  -5.380  11.114  0.00  0.00    +0.047 A 
ATOM     12  C   UNL     1       0.097  -5.597   9.765  0.00  0.00    +0.141 A 
ATOM     13  O   UNL     1       0.226  -4.557   8.914  0.00  0.00    -0.421 OA
ATOM     14  C   UNL     1       0.476  -4.736   7.607  0.00  0.00    +0.361 A 
ATOM     15  O   UNL     1       0.587  -3.760   6.886  0.00  0.00    -0.243 OA
BRANCH   6  16
ATOM     16  N   UNL     1       0.617  -8.409   7.348  0.00  0.00    -0.339 N 
ATOM     17  H   UNL     1       0.011  -8.717   6.655  0.00  0.00    +0.146 HD
BRANCH  16  18
ATOM     18  C   UNL     1       1.668  -9.298   7.849  0.00  0.00    +0.070 C 
ATOM     19  C   UNL     1       2.981  -8.997   7.122  0.00  0.00    +0.022 C 
ATOM     20  C   UNL     1       4.078  -9.925   7.646  0.00  0.00    +0.002 C 
ATOM     21  C   UNL     1       3.679 -11.380   7.395  0.00  0.00    +0.000 C 
ATOM     22  C   UNL     1       2.366 -11.681   8.121  0.00  0.00    +0.002 C 
ATOM     23  C   UNL     1       1.268 -10.753   7.598  0.00  0.00    +0.022 C 
ENDBRANCH  16  18
ENDBRANCH   6  16
ENDBRANCH   3   5
BRANCH   1  27
ATOM     24  C   UNL     1      -1.046  -5.129  -0.133  0.00  0.00    +0.175 A 
ATOM     25  C   UNL     1      -0.424  -5.562   1.039  0.00  0.00    +0.050 A 
ATOM     26  C   UNL     1      -0.621  -5.317   2.405  0.00  0.00    +0.027 A 
ATOM     27  C   UNL     1       0.206  -5.930   3.332  0.00  0.00    +0.038 A 
ATOM     28  C   UNL     1       1.243  -6.796   2.926  0.00  0.00    +0.015 A 
ATOM     29  C   UNL     1       1.473  -7.063   1.621  0.00  0.00    +0.032 A 
ATOM     30  C   UNL     1       0.662  -6.468   0.625  0.00  0.00    +0.114 A 
ATOM     31  N   UNL     1       0.633  -6.526  -0.689  0.00  0.00    -0.078 NA
ATOM     32  O   UNL     1      -0.419  -5.709  -1.165  0.00  0.00    -0.353 OA
BRANCH  24  37
ATOM     33  C   UNL     1      -5.516  -1.526  -0.469  0.00  0.00    +0.044 C 
ATOM     34  C   UNL     1      -4.344  -2.470  -0.381  0.00  0.00    -0.050 A 
ATOM     35  C   UNL     1      -3.246  -2.283  -1.202  0.00  0.00    +0.004 A 
ATOM     36  C   UNL     1      -2.170  -3.143  -1.127  0.00  0.00    +0.012 A 
ATOM     37  C   UNL     1      -2.192  -4.206  -0.219  0.00  0.00    +0.021 A 
ATOM     38  C   UNL     1      -3.305  -4.388   0.607  0.00  0.00    +0.012 A 
ATOM     39  C   UNL     1      -4.370  -3.517   0.524  0.00  0.00    +0.004 A 
ENDBRANCH  24  37
ENDBRANCH   1  27
TORSDOF 5
