REMARK  Name = ZINC45605948
REMARK  8 active torsions:
REMARK  status: ('A' for Active; 'I' for Inactive)
REMARK    1  A    between atoms: C_1  and  C_2
REMARK    2  A    between atoms: C_7  and  S_29
REMARK    3  A    between atoms: C_12  and  C_14
REMARK    4  A    between atoms: C_14  and  N_15
REMARK    5  A    between atoms: N_15  and  C_16
REMARK    6  A    between atoms: C_16  and  C_17
REMARK    7  A    between atoms: C_16  and  C_23
REMARK    8  A    between atoms: S_29  and  N_32
REMARK                            x       y       z     vdW  Elec       q    Type
REMARK                         _______ _______ _______ _____ _____    ______ ____
ROOT
ATOM      1  C   UNL     1      -0.019   1.526   0.010  0.00  0.00    +0.029 C 
ATOM      2  C   UNL     1       0.002  -0.004   0.002  0.00  0.00    +0.083 C 
ATOM      3  C   UNL     1      -1.430  -0.557   0.082  0.00  0.00    +0.059 C 
ATOM      4  C   UNL     1      -1.457  -1.361   1.363  0.00  0.00    -0.022 A 
ATOM      5  C   UNL     1      -2.472  -2.086   1.957  0.00  0.00    +0.034 A 
ATOM      6  C   UNL     1      -2.247  -2.747   3.150  0.00  0.00    +0.105 A 
ATOM      7  C   UNL     1      -1.003  -2.681   3.749  0.00  0.00    +0.030 A 
ATOM      8  C   UNL     1       0.013  -1.959   3.160  0.00  0.00    +0.026 A 
ATOM      9  C   UNL     1      -0.206  -1.288   1.955  0.00  0.00    +0.040 A 
ATOM     10  N   UNL     1       0.679  -0.510   1.199  0.00  0.00    -0.270 N 
ATOM     11  C   UNL     1       1.964  -0.262   1.523  0.00  0.00    +0.203 C 
ATOM     12  O   UNL     1       2.650   0.428   0.799  0.00  0.00    -0.277 OA
ENDROOT
BRANCH   6  13
ATOM     13  S   UNL     1      -3.543  -3.672   3.905  0.00  0.00    +0.056 S 
ATOM     14  O   UNL     1      -3.235  -3.746   5.290  0.00  0.00    -0.153 OA
ATOM     15  O   UNL     1      -4.764  -3.127   3.424  0.00  0.00    -0.153 OA
BRANCH  13  16
ATOM     16  N   UNL     1      -3.450  -5.216   3.316  0.00  0.00    -0.204 NA
ATOM     17  H   UNL     1      -3.737  -5.963   3.865  0.00  0.00    +0.144 HD
ATOM     18  H   UNL     1      -3.108  -5.375   2.422  0.00  0.00    +0.144 HD
ENDBRANCH  13  16
ENDBRANCH   6  13
BRANCH  11  19
ATOM     19  C   UNL     1       2.547  -0.841   2.786  0.00  0.00    +0.017 C 
BRANCH  19  20
ATOM     20  N   UNL     1       3.951  -0.427   2.911  0.00  0.00    +0.392 N 
ATOM     21  H   UNL     1       4.473  -0.762   2.115  0.00  0.00    -0.084 HD
ATOM     22  H   UNL     1       4.003   0.580   2.947  0.00  0.00    -0.084 HD
BRANCH  20  23
ATOM     23  C   UNL     1       4.521  -0.992   4.142  0.00  0.00    -0.009 C 
BRANCH  23  24
ATOM     24  C   UNL     1       4.556  -2.495   4.036  0.00  0.00    -0.057 A 
ATOM     25  C   UNL     1       4.912  -3.095   2.843  0.00  0.00    +0.002 A 
ATOM     26  C   UNL     1       4.944  -4.474   2.746  0.00  0.00    +0.000 A 
ATOM     27  C   UNL     1       4.620  -5.252   3.842  0.00  0.00    +0.000 A 
ATOM     28  C   UNL     1       4.265  -4.651   5.035  0.00  0.00    +0.000 A 
ATOM     29  C   UNL     1       4.237  -3.273   5.133  0.00  0.00    +0.002 A 
ENDBRANCH  23  24
BRANCH  23  30
ATOM     30  C   UNL     1       5.921  -0.469   4.334  0.00  0.00    -0.057 A 
ATOM     31  C   UNL     1       6.763  -0.333   3.246  0.00  0.00    +0.002 A 
ATOM     32  C   UNL     1       8.047   0.146   3.422  0.00  0.00    +0.000 A 
ATOM     33  C   UNL     1       8.490   0.490   4.686  0.00  0.00    +0.000 A 
ATOM     34  C   UNL     1       7.647   0.355   5.774  0.00  0.00    +0.000 A 
ATOM     35  C   UNL     1       6.361  -0.120   5.597  0.00  0.00    +0.002 A 
ENDBRANCH  23  30
ENDBRANCH  20  23
ENDBRANCH  19  20
ENDBRANCH  11  19
TORSDOF 7
