REMARK  Name = ZINC06195109
REMARK  12 active torsions:
REMARK  status: ('A' for Active; 'I' for Inactive)
REMARK    1  A    between atoms: C_1  and  C_2
REMARK    2  A    between atoms: C_2  and  O_3
REMARK    3  A    between atoms: O_3  and  C_4
REMARK    4  A    between atoms: C_4  and  C_6
REMARK    5  A    between atoms: C_10  and  N_11
REMARK    6  A    between atoms: C_12  and  C_14
REMARK    7  A    between atoms: C_16  and  N_30
REMARK    8  A    between atoms: C_19  and  N_20
REMARK    9  A    between atoms: N_20  and  C_21
REMARK   10  A    between atoms: C_21  and  C_22
REMARK   11  A    between atoms: C_22  and  C_23
REMARK   12  A    between atoms: C_23  and  C_24
REMARK                            x       y       z     vdW  Elec       q    Type
REMARK                         _______ _______ _______ _____ _____    ______ ____
ROOT
ATOM      1  C   UNL     1      -2.556  -2.595  -5.388  0.00  0.00    +0.060 A 
ATOM      2  C   UNL     1      -3.408  -2.179  -4.360  0.00  0.00    +0.037 A 
ATOM      3  C   UNL     1      -4.760  -2.022  -4.609  0.00  0.00    +0.025 A 
ATOM      4  C   UNL     1      -5.273  -2.277  -5.877  0.00  0.00    +0.024 A 
ATOM      5  C   UNL     1      -4.439  -2.687  -6.897  0.00  0.00    +0.025 A 
ATOM      6  C   UNL     1      -3.079  -2.844  -6.665  0.00  0.00    +0.039 A 
ENDROOT
BRANCH   1   8
ATOM      7  N   UNL     1      -0.595  -2.406  -3.940  0.00  0.00    -0.275 N 
ATOM      8  C   UNL     1      -1.114  -2.764  -5.131  0.00  0.00    +0.250 C 
ATOM      9  O   UNL     1      -0.394  -3.227  -5.995  0.00  0.00    -0.270 OA
ATOM     10  H   UNL     1      -1.170  -2.037  -3.252  0.00  0.00    +0.156 HD
BRANCH   7  15
ATOM     11  C   UNL     1       1.463  -2.256  -2.545  0.00  0.00    +0.091 A 
ATOM     12  C   UNL     1       2.890  -2.528  -2.544  0.00  0.00    -0.021 A 
ATOM     13  C   UNL     1       3.353  -3.053  -3.698  0.00  0.00    -0.004 A 
ATOM     14  S   UNL     1       1.928  -3.177  -4.739  0.00  0.00    -0.077 S 
ATOM     15  C   UNL     1       0.760  -2.566  -3.700  0.00  0.00    +0.087 A 
ATOM     16  C   UNL     1       4.767  -3.439  -4.008  0.00  0.00    +0.043 C 
ATOM     17  C   UNL     1       5.683  -2.799  -2.955  0.00  0.00    +0.005 C 
ATOM     18  C   UNL     1       5.103  -3.070  -1.563  0.00  0.00    +0.005 C 
ATOM     19  C   UNL     1       3.819  -2.261  -1.368  0.00  0.00    +0.037 C 
BRANCH  11  20
ATOM     20  C   UNL     1       0.794  -1.685  -1.374  0.00  0.00    +0.342 C 
ATOM     21  O   UNL     1       0.336  -2.417  -0.518  0.00  0.00    -0.245 OA
BRANCH  20  22
ATOM     22  O   UNL     1       0.687  -0.346  -1.245  0.00  0.00    -0.461 OA
BRANCH  22  24
ATOM     23  C   UNL     1      -0.002   1.671  -0.106  0.00  0.00    +0.048 C 
ATOM     24  C   UNL     1       0.023   0.142  -0.078  0.00  0.00    +0.229 C 
ENDBRANCH  22  24
ENDBRANCH  20  22
ENDBRANCH  11  20
ENDBRANCH   7  15
ENDBRANCH   1   8
BRANCH   3  25
ATOM     25  N   UNL     1      -5.614  -1.607  -3.580  0.00  0.00    -0.358 N 
ATOM     26  H   UNL     1      -5.258  -1.430  -2.696  0.00  0.00    +0.142 HD
ATOM     27  H   UNL     1      -6.562  -1.496  -3.753  0.00  0.00    +0.142 HD
ENDBRANCH   3  25
BRANCH   6  28
ATOM     28  N   UNL     1      -2.238  -3.251  -7.697  0.00  0.00    -0.343 N 
ATOM     29  H   UNL     1      -1.304  -3.440  -7.515  0.00  0.00    +0.146 HD
BRANCH  28  30
ATOM     30  C   UNL     1      -2.764  -3.396  -9.056  0.00  0.00    +0.102 C 
BRANCH  30  31
ATOM     31  C   UNL     1      -1.641  -3.852  -9.991  0.00  0.00    +0.023 C 
BRANCH  31  32
ATOM     32  C   UNL     1      -2.190  -4.002 -11.411  0.00  0.00    +0.036 C 
BRANCH  32  33
ATOM     33  C   UNL     1      -1.085  -4.452 -12.332  0.00  0.00    -0.047 A 
ATOM     34  C   UNL     1      -0.299  -3.515 -12.977  0.00  0.00    +0.003 A 
ATOM     35  C   UNL     1       0.715  -3.928 -13.821  0.00  0.00    +0.000 A 
ATOM     36  C   UNL     1       0.943  -5.277 -14.020  0.00  0.00    +0.000 A 
ATOM     37  C   UNL     1       0.158  -6.213 -13.374  0.00  0.00    +0.000 A 
ATOM     38  C   UNL     1      -0.853  -5.801 -12.527  0.00  0.00    +0.003 A 
ENDBRANCH  32  33
ENDBRANCH  31  32
ENDBRANCH  30  31
ENDBRANCH  28  30
ENDBRANCH   6  28
TORSDOF 11
