REMARK  Name = ZINC36813175
REMARK  3 active torsions:
REMARK  status: ('A' for Active; 'I' for Inactive)
REMARK    1  A    between atoms: C_8  and  N_13
REMARK    2  A    between atoms: C_9  and  N_12
REMARK    3  A    between atoms: N_13  and  C_14
REMARK                            x       y       z     vdW  Elec       q    Type
REMARK                         _______ _______ _______ _____ _____    ______ ____
ROOT
ATOM      1  C   UNL     1       2.329   1.219   3.619  0.00  0.00    +0.017 A 
ATOM      2  C   UNL     1       2.489   1.914   2.460  0.00  0.00    +0.027 A 
ATOM      3  C   UNL     1       2.852   1.236   1.284  0.00  0.00    +0.048 A 
ATOM      4  C   UNL     1       3.045  -0.166   1.330  0.00  0.00    +0.022 A 
ATOM      5  C   UNL     1       2.873  -0.852   2.541  0.00  0.00    +0.027 A 
ATOM      6  C   UNL     1       2.520  -0.161   3.662  0.00  0.00    +0.019 A 
ATOM      7 BR   UNL     1       2.288  -1.086   5.295  0.00  0.00    -0.050 Br
ATOM      8  C   UNL     1       3.411  -0.847   0.146  0.00  0.00    +0.063 A 
ATOM      9  C   UNL     1       3.562  -0.097  -1.015  0.00  0.00    +0.063 A 
ATOM     10  C   UNL     1       3.353   1.280  -0.976  0.00  0.00    +0.107 A 
ATOM     11  N   UNL     1       3.015   1.897   0.132  0.00  0.00    -0.359 N 
ATOM     12  H   UNL     1       2.879   2.857   0.116  0.00  0.00    +0.165 HD
ENDROOT
BRANCH   9  13
ATOM     13  N   UNL     1       3.924  -0.723  -2.216  0.00  0.00    -0.355 N 
ATOM     14  H   UNL     1       3.993  -1.689  -2.258  0.00  0.00    +0.142 HD
ATOM     15  H   UNL     1       4.105  -0.189  -3.006  0.00  0.00    +0.142 HD
ENDBRANCH   9  13
BRANCH   8  16
ATOM     16  N   UNL     1       3.612  -2.224   0.143  0.00  0.00    -0.310 N 
ATOM     17  H   UNL     1       2.880  -2.821  -0.076  0.00  0.00    +0.152 HD
BRANCH  16  18
ATOM     18  C   UNL     1       4.870  -2.747   0.457  0.00  0.00    +0.068 A 
ATOM     19  C   UNL     1       5.896  -1.901   0.858  0.00  0.00    +0.041 A 
ATOM     20  C   UNL     1       7.138  -2.421   1.167  0.00  0.00    +0.020 A 
ATOM     21  C   UNL     1       7.362  -3.783   1.077  0.00  0.00    +0.018 A 
ATOM     22  C   UNL     1       6.344  -4.630   0.677  0.00  0.00    +0.041 A 
ATOM     23  C   UNL     1       5.097  -4.117   0.372  0.00  0.00    +0.144 A 
ATOM     24  F   UNL     1       4.101  -4.945  -0.012  0.00  0.00    -0.204 F 
ATOM     25 BR   UNL     1       8.535  -1.269   1.714  0.00  0.00    -0.050 Br
ENDBRANCH  16  18
ENDBRANCH   8  16
TORSDOF 3
