REMARK  Name = ZINC40287812
REMARK  5 active torsions:
REMARK  status: ('A' for Active; 'I' for Inactive)
REMARK    1  A    between atoms: C_1  and  O_2
REMARK    2  A    between atoms: O_2  and  C_3
REMARK    3  A    between atoms: C_3  and  C_5
REMARK    4  A    between atoms: C_7  and  N_12
REMARK    5  A    between atoms: C_24  and  C_26
REMARK                            x       y       z     vdW  Elec       q    Type
REMARK                         _______ _______ _______ _____ _____    ______ ____
ROOT
ATOM      1  N   UNL     1      -0.440  -4.983   1.000  0.00  0.00    -0.269 N 
ATOM      2  C   UNL     1      -0.507  -6.312   0.788  0.00  0.00    +0.307 C 
ATOM      3  O   UNL     1      -0.020  -6.792  -0.217  0.00  0.00    -0.252 OA
ATOM      4  N   UNL     1      -1.115  -7.109   1.689  0.00  0.00    -0.272 N 
ATOM      5  C   UNL     1      -1.867  -6.537   2.816  0.00  0.00    +0.116 C 
ATOM      6  C   UNL     1      -1.179  -6.925   4.130  0.00  0.00    +0.076 C 
ATOM      7  C   UNL     1      -0.829  -8.391   4.082  0.00  0.00    +0.066 A 
ATOM      8  C   UNL     1      -0.763  -9.123   2.949  0.00  0.00    +0.064 A 
ATOM      9  N   UNL     1      -0.416 -10.388   3.306  0.00  0.00    -0.346 N 
ATOM     10  H   UNL     1      -0.290 -11.142   2.709  0.00  0.00    +0.167 HD
ATOM     11  C   UNL     1      -0.282 -10.396   4.653  0.00  0.00    +0.197 A 
ATOM     12  N   UNL     1      -0.531  -9.196   5.107  0.00  0.00    -0.240 NA
ATOM     13  C   UNL     1      -1.047  -8.577   1.568  0.00  0.00    +0.156 C 
ATOM     14  H   UNL     1      -0.710  -4.614   1.856  0.00  0.00    +0.156 HD
ENDROOT
BRANCH   1  17
ATOM     15  C   UNL     1       0.128  -1.951  -1.020  0.00  0.00    +0.079 A 
ATOM     16  C   UNL     1      -0.333  -2.794  -0.007  0.00  0.00    +0.039 A 
ATOM     17  C   UNL     1       0.019  -4.134  -0.014  0.00  0.00    +0.036 A 
ATOM     18  C   UNL     1       0.829  -4.636  -1.026  0.00  0.00    +0.025 A 
ATOM     19  C   UNL     1       1.286  -3.803  -2.030  0.00  0.00    +0.022 A 
ATOM     20  C   UNL     1       0.936  -2.466  -2.037  0.00  0.00    +0.055 A 
ATOM     21 CL   UNL     1       1.507  -1.426  -3.304  0.00  0.00    -0.083 Cl
BRANCH  15  22
ATOM     22  C   UNL     1      -0.242  -0.522  -1.020  0.00  0.00    +0.340 C 
ATOM     23  O   UNL     1       0.156   0.209  -1.906  0.00  0.00    -0.245 OA
BRANCH  22  25
ATOM     24  C   UNL     1      -1.341   1.364  -0.102  0.00  0.00    +0.280 C 
ATOM     25  O   UNL     1      -1.022  -0.028  -0.039  0.00  0.00    -0.464 OA
ENDBRANCH  22  25
ENDBRANCH  15  22
ENDBRANCH   1  17
BRANCH  13  26
ATOM     26  C   UNL     1      -2.362  -9.111   1.061  0.00  0.00    -0.021 A 
ATOM     27  C   UNL     1      -3.514  -8.928   1.802  0.00  0.00    +0.007 A 
ATOM     28  C   UNL     1      -4.720  -9.418   1.337  0.00  0.00    +0.020 A 
ATOM     29  C   UNL     1      -4.774 -10.091   0.130  0.00  0.00    +0.041 A 
ATOM     30  C   UNL     1      -3.620 -10.274  -0.612  0.00  0.00    +0.020 A 
ATOM     31  C   UNL     1      -2.416  -9.778  -0.149  0.00  0.00    +0.007 A 
ATOM     32 CL   UNL     1      -6.288 -10.707  -0.454  0.00  0.00    -0.084 Cl
ENDBRANCH  13  26
TORSDOF 4
