REMARK  Name = ZINC47948918
REMARK  7 active torsions:
REMARK  status: ('A' for Active; 'I' for Inactive)
REMARK    1  A    between atoms: C_4  and  C_7
REMARK    2  A    between atoms: C_7  and  C_9
REMARK    3  A    between atoms: C_7  and  N_26
REMARK    4  A    between atoms: C_9  and  N_10
REMARK    5  A    between atoms: N_13  and  C_14
REMARK    6  A    between atoms: C_14  and  C_15
REMARK    7  A    between atoms: C_20  and  N_21
REMARK                            x       y       z     vdW  Elec       q    Type
REMARK                         _______ _______ _______ _____ _____    ______ ____
ROOT
ATOM      1  N   UNL     1       5.320  -1.941   1.316  0.00  0.00    -0.301 N 
ATOM      2  C   UNL     1       5.837  -2.443   2.455  0.00  0.00    +0.300 C 
ATOM      3  O   UNL     1       5.352  -2.139   3.528  0.00  0.00    -0.253 OA
ATOM      4  N   UNL     1       6.891  -3.281   2.404  0.00  0.00    -0.295 N 
ATOM      5  H   UNL     1       5.707  -2.183   0.460  0.00  0.00    +0.150 HD
ATOM      6  H   UNL     1       7.278  -3.523   1.548  0.00  0.00    +0.151 HD
ENDROOT
BRANCH   1   7
ATOM      7  C   UNL     1       4.174  -1.030   1.370  0.00  0.00    +0.095 C 
BRANCH   7   8
ATOM      8  C   UNL     1       3.870  -0.508  -0.035  0.00  0.00    -0.020 C 
BRANCH   8  12
ATOM      9  C   UNL     1       7.127   1.896  -1.399  0.00  0.00    +0.000 A 
ATOM     10  C   UNL     1       7.011   0.585  -1.822  0.00  0.00    +0.000 A 
ATOM     11  C   UNL     1       5.957  -0.193  -1.381  0.00  0.00    +0.002 A 
ATOM     12  C   UNL     1       5.019   0.340  -0.516  0.00  0.00    -0.059 A 
ATOM     13  C   UNL     1       5.136   1.651  -0.092  0.00  0.00    +0.002 A 
ATOM     14  C   UNL     1       6.189   2.429  -0.535  0.00  0.00    +0.000 A 
ENDBRANCH   8  12
BRANCH   8  15
ATOM     15  N   UNL     1       2.645   0.302  -0.003  0.00  0.00    +0.385 N 
ATOM     16  C   UNL     1       2.327   0.805  -1.363  0.00  0.00    -0.078 C 
ATOM     17  C   UNL     1       0.811   1.116  -1.282  0.00  0.00    -0.020 C 
ATOM     18  C   UNL     1       0.271  -0.028  -0.394  0.00  0.00    -0.020 C 
ATOM     19  C   UNL     1       1.492  -0.534   0.397  0.00  0.00    -0.078 C 
ATOM     20  H   UNL     1       2.754   1.073   0.638  0.00  0.00    -0.081 HD
ENDBRANCH   8  15
ENDBRANCH   7   8
ENDBRANCH   1   7
BRANCH   4  21
ATOM     21  C   UNL     1       7.453  -3.827   3.643  0.00  0.00    +0.144 C 
BRANCH  21  22
ATOM     22  C   UNL     1       8.614  -4.729   3.312  0.00  0.00    +0.014 A 
ATOM     23  C   UNL     1       8.449  -6.103   3.284  0.00  0.00    +0.010 A 
ATOM     24  C   UNL     1       9.546  -6.895   2.974  0.00  0.00    +0.020 A 
ATOM     25  C   UNL     1      10.760  -6.293   2.707  0.00  0.00    +0.113 A 
ATOM     26  N   UNL     1      10.887  -4.981   2.742  0.00  0.00    -0.236 NA
ATOM     27  C   UNL     1       9.863  -4.192   3.028  0.00  0.00    +0.160 A 
BRANCH  27  28
ATOM     28  N   UNL     1      10.042  -2.805   3.048  0.00  0.00    -0.202 N 
ATOM     29  C   UNL     1      11.197  -2.142   3.258  0.00  0.00    +0.226 A 
ATOM     30  N   UNL     1      10.944  -0.860   3.197  0.00  0.00    -0.222 NA
ATOM     31  C   UNL     1       9.649  -0.665   2.953  0.00  0.00    +0.245 A 
ATOM     32  N   UNL     1       9.056  -1.825   2.848  0.00  0.00    -0.152 NA
ENDBRANCH  27  28
ENDBRANCH  21  22
ENDBRANCH   4  21
TORSDOF 7
