REMARK  Name = ZINC28822934
REMARK  6 active torsions:
REMARK  status: ('A' for Active; 'I' for Inactive)
REMARK    1  A    between atoms: N_4  and  C_8
REMARK    2  A    between atoms: C_11  and  C_14
REMARK    3  A    between atoms: C_14  and  N_15
REMARK    4  A    between atoms: N_15  and  C_16
REMARK    5  A    between atoms: C_21  and  N_23
REMARK    6  A    between atoms: C_24  and  C_26
REMARK                            x       y       z     vdW  Elec       q    Type
REMARK                         _______ _______ _______ _____ _____    ______ ____
ROOT
ATOM      1  N   UNL     1      -6.675   6.005   1.471  0.00  0.00    +0.385 N 
ATOM      2  H   UNL     1      -6.809   5.004   1.906  0.00  0.00    -0.085 HD
ATOM      3  H   UNL     1      -5.935   6.566   2.062  0.00  0.00    -0.085 HD
ENDROOT
BRANCH   1   4
ATOM      4  C   UNL     1      -7.958   6.718   1.525  0.00  0.00    -0.051 C 
ATOM      5  C   UNL     1      -9.137   5.723   1.375  0.00  0.00    -0.014 C 
ATOM      6  C   UNL     1     -10.311   6.483   2.044  0.00  0.00    +0.000 C 
ATOM      7  C   UNL     1      -9.663   7.199   3.247  0.00  0.00    +0.020 C 
ATOM      8  C   UNL     1      -8.168   7.349   2.917  0.00  0.00    +0.059 C 
BRANCH   8   9
ATOM      9  N   UNL     1      -7.360   6.643   3.915  0.00  0.00    -0.310 N 
ATOM     10  C   UNL     1      -6.979   7.274   5.043  0.00  0.00    +0.251 C 
ATOM     11  O   UNL     1      -7.306   8.431   5.233  0.00  0.00    -0.270 OA
ATOM     12  H   UNL     1      -7.064   5.597   3.743  0.00  0.00    +0.149 HD
BRANCH  10  13
ATOM     13  C   UNL     1      -6.171   6.568   6.040  0.00  0.00    +0.075 A 
ATOM     14  C   UNL     1      -5.676   7.031   7.250  0.00  0.00    +0.022 A 
ATOM     15  C   UNL     1      -4.942   6.150   8.003  0.00  0.00    +0.028 A 
ATOM     16  C   UNL     1      -4.729   4.891   7.532  0.00  0.00    +0.079 A 
ATOM     17  S   UNL     1      -5.561   4.892   6.011  0.00  0.00    -0.072 S 
ATOM     18 CL   UNL     1      -3.842   3.597   8.275  0.00  0.00    -0.076 Cl
ENDBRANCH  10  13
ENDBRANCH   8   9
ENDBRANCH   1   4
BRANCH   1  19
ATOM     19  C   UNL     1      -6.201   5.879   0.086  0.00  0.00    -0.046 C 
BRANCH  19  23
ATOM     20  C   UNL     1      -2.469   3.797   0.043  0.00  0.00    +0.049 A 
ATOM     21  C   UNL     1      -2.492   5.181   0.160  0.00  0.00    +0.026 A 
ATOM     22  C   UNL     1      -3.700   5.851   0.168  0.00  0.00    +0.004 A 
ATOM     23  C   UNL     1      -4.885   5.145   0.071  0.00  0.00    -0.064 A 
ATOM     24  C   UNL     1      -4.865   3.767  -0.040  0.00  0.00    +0.004 A 
ATOM     25  C   UNL     1      -3.660   3.091  -0.054  0.00  0.00    +0.026 A 
BRANCH  20  29
ATOM     26  C   UNL     1       1.153   1.776   0.006  0.00  0.00    +0.007 A 
ATOM     27  C   UNL     1       0.263   1.640   1.081  0.00  0.00    +0.018 A 
ATOM     28  C   UNL     1      -0.914   2.309   1.072  0.00  0.00    +0.095 A 
ATOM     29  N   UNL     1      -1.246   3.115   0.029  0.00  0.00    -0.284 N 
ATOM     30  C   UNL     1      -0.409   3.269  -1.015  0.00  0.00    +0.256 A 
ATOM     31  O   UNL     1      -0.719   4.000  -1.942  0.00  0.00    -0.267 OA
ATOM     32  C   UNL     1       0.818   2.586  -1.039  0.00  0.00    +0.071 A 
ENDBRANCH  20  29
ENDBRANCH  19  23
ENDBRANCH   1  19
TORSDOF 6
