REMARK  Name = ZINC20557998
REMARK  6 active torsions:
REMARK  status: ('A' for Active; 'I' for Inactive)
REMARK    1  A    between atoms: C_5  and  N_7
REMARK    2  A    between atoms: C_8  and  C_10
REMARK    3  A    between atoms: C_10  and  N_11
REMARK    4  A    between atoms: C_14  and  S_22
REMARK    5  A    between atoms: S_22  and  N_25
REMARK    6  A    between atoms: N_25  and  C_26
REMARK                            x       y       z     vdW  Elec       q    Type
REMARK                         _______ _______ _______ _____ _____    ______ ____
ROOT
ATOM      1  N   UNL     1       2.134  -2.235   5.029  0.00  0.00    -0.256 N 
ATOM      2  C   UNL     1       3.091  -1.611   5.843  0.00  0.00    +0.081 A 
ATOM      3  C   UNL     1       3.622  -0.380   5.495  0.00  0.00    +0.055 A 
ATOM      4  C   UNL     1       4.564   0.218   6.311  0.00  0.00    +0.107 A 
ATOM      5  C   UNL     1       4.978  -0.410   7.472  0.00  0.00    +0.032 A 
ATOM      6  C   UNL     1       4.444  -1.631   7.829  0.00  0.00    +0.049 A 
ATOM      7  C   UNL     1       3.504  -2.238   7.015  0.00  0.00    +0.143 A 
ATOM      8  O   UNL     1       2.979  -3.449   7.346  0.00  0.00    -0.481 OA
ATOM      9  C   UNL     1       1.622  -3.687   6.964  0.00  0.00    +0.325 C 
ATOM     10  C   UNL     1       1.416  -3.261   5.533  0.00  0.00    +0.258 C 
ATOM     11  O   UNL     1       0.608  -3.839   4.836  0.00  0.00    -0.271 OA
ENDROOT
BRANCH   4  12
ATOM     12  S   UNL     1       5.242   1.784   5.870  0.00  0.00    +0.059 S 
ATOM     13  O   UNL     1       6.504   1.876   6.516  0.00  0.00    -0.153 OA
ATOM     14  O   UNL     1       5.096   1.907   4.462  0.00  0.00    -0.153 OA
BRANCH  12  15
ATOM     15  N   UNL     1       4.276   2.944   6.550  0.00  0.00    -0.187 NA
ATOM     16  H   UNL     1       3.584   3.510   5.909  0.00  0.00    +0.148 HD
BRANCH  15  17
ATOM     17  C   UNL     1       4.186   3.061   8.007  0.00  0.00    +0.077 C 
ATOM     18  C   UNL     1       2.926   2.333   8.519  0.00  0.00    +0.020 C 
ATOM     19  C   UNL     1       2.416   3.225   9.678  0.00  0.00    +0.002 C 
ATOM     20  C   UNL     1       2.687   4.657   9.152  0.00  0.00    +0.002 C 
ATOM     21  C   UNL     1       4.034   4.538   8.410  0.00  0.00    +0.020 C 
ENDBRANCH  15  17
ENDBRANCH  12  15
ENDBRANCH   4  12
BRANCH   1  22
ATOM     22  C   UNL     1       1.922  -1.784   3.651  0.00  0.00    +0.209 C 
BRANCH  22  24
ATOM     23  N   UNL     1       0.496  -0.149   2.463  0.00  0.00    -0.284 N 
ATOM     24  C   UNL     1       0.860  -0.715   3.631  0.00  0.00    +0.235 C 
ATOM     25  O   UNL     1       0.332  -0.364   4.665  0.00  0.00    -0.274 OA
ATOM     26  H   UNL     1       0.908  -0.528   1.516  0.00  0.00    +0.155 HD
BRANCH  23  31
ATOM     27  C   UNL     1      -1.417   2.784   3.566  0.00  0.00    +0.002 A 
ATOM     28  C   UNL     1      -2.178   3.029   2.442  0.00  0.00    +0.004 A 
ATOM     29  C   UNL     1      -2.060   2.224   1.315  0.00  0.00    -0.042 A 
ATOM     30  C   UNL     1      -1.174   1.173   1.318  0.00  0.00    -0.023 A 
ATOM     31  C   UNL     1      -0.404   0.922   2.455  0.00  0.00    +0.037 A 
ATOM     32  C   UNL     1      -0.527   1.727   3.576  0.00  0.00    +0.023 A 
ATOM     33  C   UNL     1      -0.988   0.264   0.132  0.00  0.00    +0.037 C 
ATOM     34  C   UNL     1      -2.167   0.391  -0.831  0.00  0.00    +0.005 C 
ATOM     35  C   UNL     1      -2.386   1.878  -1.133  0.00  0.00    +0.005 C 
ATOM     36  C   UNL     1      -2.927   2.550   0.127  0.00  0.00    +0.035 C 
ENDBRANCH  23  31
ENDBRANCH  22  24
ENDBRANCH   1  22
TORSDOF 6
