REMARK  Name = ZINC05573007
REMARK  11 active torsions:
REMARK  status: ('A' for Active; 'I' for Inactive)
REMARK    1  A    between atoms: C_1  and  C_2
REMARK    2  A    between atoms: C_2  and  C_4
REMARK    3  A    between atoms: C_4  and  O_32
REMARK    4  A    between atoms: C_8  and  O_25
REMARK    5  A    between atoms: C_11  and  O_12
REMARK    6  A    between atoms: C_19  and  O_23
REMARK    7  A    between atoms: O_23  and  C_24
REMARK    8  A    between atoms: C_26  and  O_29
REMARK    9  A    between atoms: O_29  and  C_30
REMARK   10  A    between atoms: C_30  and  C_31
REMARK   11  A    between atoms: C_31  and  N_55
REMARK                            x       y       z     vdW  Elec       q    Type
REMARK                         _______ _______ _______ _____ _____    ______ ____
ROOT
ATOM      1  C   UNL     1      -0.128  -2.708   0.638  0.00  0.00    +0.130 C 
ATOM      2  C   UNL     1       1.206  -2.242   0.059  0.00  0.00    +0.082 C 
ATOM      3  C   UNL     1       1.207  -0.748  -0.137  0.00  0.00    +0.007 A 
ATOM      4  C   UNL     1       0.053  -0.005  -0.167  0.00  0.00    +0.030 A 
ATOM      5  C   UNL     1       0.115   1.381  -0.361  0.00  0.00    +0.134 A 
ATOM      6  C   UNL     1       1.343   2.020  -0.523  0.00  0.00    +0.078 A 
ATOM      7  C   UNL     1       2.528   1.258  -0.489  0.00  0.00    +0.078 A 
ATOM      8  C   UNL     1       2.450  -0.120  -0.296  0.00  0.00    +0.132 A 
ATOM      9  C   UNL     1       3.835   1.917  -0.656  0.00  0.00    +0.198 C 
ATOM     10  O   UNL     1       4.857   1.260  -0.627  0.00  0.00    -0.286 OA
ATOM     11  C   UNL     1       3.900   3.379  -0.860  0.00  0.00    +0.037 A 
ATOM     12  C   UNL     1       5.129   4.010  -1.019  0.00  0.00    +0.012 A 
ATOM     13  C   UNL     1       5.185   5.381  -1.210  0.00  0.00    +0.004 A 
ATOM     14  C   UNL     1       4.028   6.133  -1.244  0.00  0.00    +0.046 A 
ATOM     15  C   UNL     1       2.788   5.521  -1.087  0.00  0.00    +0.132 A 
ATOM     16  C   UNL     1       2.716   4.138  -0.894  0.00  0.00    +0.075 A 
ATOM     17  C   UNL     1       1.409   3.478  -0.726  0.00  0.00    +0.202 C 
ATOM     18  O   UNL     1       0.386   4.135  -0.757  0.00  0.00    -0.286 OA
ATOM     19  C   UNL     1      -1.311  -0.621   0.007  0.00  0.00    +0.155 C 
ATOM     20  C   UNL     1      -1.256  -2.129  -0.224  0.00  0.00    +0.079 C 
ENDROOT
BRANCH   1  22
ATOM     21  C   UNL     1       0.282  -5.006   1.807  0.00  0.00    +0.089 C 
ATOM     22  C   UNL     1      -0.193  -4.213   0.616  0.00  0.00    +0.162 C 
ATOM     23  O   UNL     1      -0.626  -4.785  -0.355  0.00  0.00    -0.295 OA
ENDBRANCH   1  22
BRANCH   8  24
ATOM     24  O   UNL     1       3.586  -0.860  -0.261  0.00  0.00    -0.506 OA
ATOM     25  H   UNL     1       3.864  -1.194  -1.125  0.00  0.00    +0.292 HD
ENDBRANCH   8  24
BRANCH  15  26
ATOM     26  O   UNL     1       1.654   6.264  -1.122  0.00  0.00    -0.494 OA
ATOM     27  C   UNL     1       1.805   7.671  -1.323  0.00  0.00    +0.277 C 
ENDBRANCH  15  26
BRANCH   5  28
ATOM     28  O   UNL     1      -1.030   2.107  -0.397  0.00  0.00    -0.506 OA
ATOM     29  H   UNL     1      -1.343   2.391   0.472  0.00  0.00    +0.292 HD
ENDBRANCH   5  28
BRANCH   1  30
ATOM     30  O   UNL     1      -0.259  -2.239   1.982  0.00  0.00    -0.381 OA
ATOM     31  H   UNL     1       0.424  -2.568   2.582  0.00  0.00    +0.211 HD
ENDBRANCH   1  30
BRANCH  19  32
ATOM     32  O   UNL     1      -2.216  -0.034  -0.931  0.00  0.00    -0.374 OA
BRANCH  32  33
ATOM     33  C   UNL     1      -3.580  -0.040  -0.505  0.00  0.00    +0.141 C 
BRANCH  33  34
ATOM     34  C   UNL     1      -4.453   0.605  -1.583  0.00  0.00    -0.058 C 
BRANCH  34  37
ATOM     35  H   UNL     1      -4.708  -1.168  -2.598  0.00  0.00    -0.090 HD
ATOM     36  H   UNL     1      -4.992   0.184  -3.525  0.00  0.00    -0.090 HD
ATOM     37  N   UNL     1      -4.397  -0.220  -2.803  0.00  0.00    +0.380 N 
ATOM     38  H   UNL     1      -3.429  -0.251  -3.145  0.00  0.00    -0.090 HD
ENDBRANCH  34  37
ENDBRANCH  33  34
ENDBRANCH  32  33
ENDBRANCH  19  32
TORSDOF 9
