REMARK  Name = ZINC24212528
REMARK  11 active torsions:
REMARK  status: ('A' for Active; 'I' for Inactive)
REMARK    1  A    between atoms: C_1  and  C_2
REMARK    2  A    between atoms: C_2  and  C_3
REMARK    3  A    between atoms: C_3  and  N_4
REMARK    4  A    between atoms: N_4  and  C_5
REMARK    5  A    between atoms: N_4  and  C_17
REMARK    6  A    between atoms: C_5  and  C_6
REMARK    7  A    between atoms: N_8  and  C_9
REMARK    8  A    between atoms: C_17  and  C_18
REMARK    9  A    between atoms: N_20  and  C_21
REMARK   10  A    between atoms: C_21  and  C_23
REMARK   11  A    between atoms: C_21  and  C_24
REMARK                            x       y       z     vdW  Elec       q    Type
REMARK                         _______ _______ _______ _____ _____    ______ ____
ROOT
ATOM      1  N   UNL     1       0.688  -1.828  -1.266  0.00  0.00    +0.391 N 
ATOM      2  H   UNL     1       1.172  -1.999  -0.397  0.00  0.00    -0.080 HD
ENDROOT
BRANCH   1   3
ATOM      3  C   UNL     1       0.357  -0.401  -1.370  0.00  0.00    -0.078 C 
BRANCH   3   5
ATOM      4  C   UNL     1      -0.650   1.546  -0.171  0.00  0.00    +0.002 C 
ATOM      5  C   UNL     1      -0.420   0.034  -0.126  0.00  0.00    -0.022 C 
ENDBRANCH   3   5
ENDBRANCH   1   3
BRANCH   1   6
ATOM      6  C   UNL     1       1.551  -2.214  -2.390  0.00  0.00    +0.020 C 
BRANCH   6   7
ATOM      7  C   UNL     1       2.868  -1.490  -2.285  0.00  0.00    +0.201 C 
ATOM      8  O   UNL     1       3.069  -0.728  -1.363  0.00  0.00    -0.278 OA
ATOM      9  N   UNL     1       3.824  -1.690  -3.214  0.00  0.00    -0.286 N 
ATOM     10  H   UNL     1       3.691  -2.350  -3.912  0.00  0.00    +0.155 HD
BRANCH   9  11
ATOM     11  C   UNL     1       5.008  -0.944  -3.173  0.00  0.00    +0.052 A 
ATOM     12  C   UNL     1       5.550  -0.567  -1.951  0.00  0.00    +0.026 A 
ATOM     13  C   UNL     1       6.718   0.169  -1.913  0.00  0.00    +0.022 A 
ATOM     14  C   UNL     1       7.348   0.532  -3.090  0.00  0.00    +0.042 A 
ATOM     15  C   UNL     1       6.811   0.158  -4.309  0.00  0.00    +0.041 A 
ATOM     16  C   UNL     1       5.645  -0.584  -4.354  0.00  0.00    +0.064 A 
ATOM     17 CL   UNL     1       4.975  -1.059  -5.883  0.00  0.00    -0.082 Cl
ATOM     18 CL   UNL     1       8.816   1.458  -3.038  0.00  0.00    -0.083 Cl
ENDBRANCH   9  11
ENDBRANCH   6   7
ENDBRANCH   1   6
BRANCH   1  19
ATOM     19  C   UNL     1      -0.547  -2.622  -1.302  0.00  0.00    +0.019 C 
BRANCH  19  20
ATOM     20  C   UNL     1      -0.224  -4.069  -1.029  0.00  0.00    +0.197 C 
ATOM     21  O   UNL     1       0.904  -4.389  -0.718  0.00  0.00    -0.278 OA
ATOM     22  N   UNL     1      -1.187  -5.006  -1.132  0.00  0.00    -0.310 N 
ATOM     23  H   UNL     1      -2.088  -4.749  -1.381  0.00  0.00    +0.149 HD
BRANCH  22  24
ATOM     24  C   UNL     1      -0.872  -6.412  -0.867  0.00  0.00    +0.107 C 
ATOM     25  C   UNL     1      -0.973  -6.683   0.635  0.00  0.00    +0.033 C 
BRANCH  24  26
ATOM     26  C   UNL     1      -1.848  -7.292  -1.604  0.00  0.00    +0.010 A 
ATOM     27  C   UNL     1      -1.621  -8.457  -2.259  0.00  0.00    +0.013 A 
ATOM     28  C   UNL     1      -2.682  -9.101  -2.869  0.00  0.00    +0.008 A 
ATOM     29  C   UNL     1      -3.917  -8.548  -2.794  0.00  0.00    +0.045 A 
ATOM     30  S   UNL     1      -3.606  -7.076  -1.833  0.00  0.00    -0.100 S 
ENDBRANCH  24  26
ENDBRANCH  22  24
ENDBRANCH  19  20
ENDBRANCH   1  19
TORSDOF 9
