REMARK  Name = ZINC40780620
REMARK  6 active torsions:
REMARK  status: ('A' for Active; 'I' for Inactive)
REMARK    1  A    between atoms: C_4  and  C_7
REMARK    2  A    between atoms: C_7  and  C_8
REMARK    3  A    between atoms: C_7  and  C_14
REMARK    4  A    between atoms: N_16  and  N_17
REMARK    5  A    between atoms: C_19  and  N_34
REMARK    6  A    between atoms: C_20  and  N_24
REMARK                            x       y       z     vdW  Elec       q    Type
REMARK                         _______ _______ _______ _____ _____    ______ ____
ROOT
ATOM      1  N   UNL     1       4.518  -3.193  -2.548  0.00  0.00    -0.247 N 
ATOM      2  C   UNL     1       5.586  -4.040  -2.822  0.00  0.00    +0.161 A 
ATOM      3  C   UNL     1       5.557  -4.879  -3.937  0.00  0.00    +0.107 A 
ATOM      4  C   UNL     1       6.656  -5.709  -4.166  0.00  0.00    +0.148 A 
ATOM      5  N   UNL     1       7.682  -5.668  -3.319  0.00  0.00    -0.219 NA
ATOM      6  C   UNL     1       7.670  -4.861  -2.278  0.00  0.00    +0.225 A 
ATOM      7  N   UNL     1       6.654  -4.058  -2.029  0.00  0.00    -0.217 NA
ATOM      8  H   UNL     1       3.743  -3.186  -3.131  0.00  0.00    +0.172 HD
ENDROOT
BRANCH   4   9
ATOM      9  N   UNL     1       6.678  -6.564  -5.261  0.00  0.00    -0.309 N 
ATOM     10  C   UNL     1       7.136  -6.104  -6.583  0.00  0.00    +0.111 C 
ATOM     11  C   UNL     1       8.398  -6.887  -6.941  0.00  0.00    +0.054 C 
ATOM     12  C   UNL     1       8.203  -8.360  -6.697  0.00  0.00    -0.041 A 
ATOM     13  C   UNL     1       9.057  -9.241  -7.351  0.00  0.00    +0.004 A 
ATOM     14  C   UNL     1       8.939 -10.602  -7.164  0.00  0.00    +0.000 A 
ATOM     15  C   UNL     1       7.963 -11.098  -6.319  0.00  0.00    +0.000 A 
ATOM     16  C   UNL     1       7.112 -10.227  -5.671  0.00  0.00    +0.005 A 
ATOM     17  C   UNL     1       7.226  -8.856  -5.863  0.00  0.00    -0.027 A 
ATOM     18  C   UNL     1       6.252  -7.963  -5.145  0.00  0.00    +0.142 C 
ENDBRANCH   4   9
BRANCH   1  21
ATOM     19  C   UNL     1       3.526  -1.530  -1.163  0.00  0.00    +0.241 C 
ATOM     20  O   UNL     1       2.557  -1.521  -1.893  0.00  0.00    -0.273 OA
ATOM     21  N   UNL     1       4.561  -2.351  -1.429  0.00  0.00    -0.235 N 
ATOM     22  H   UNL     1       5.337  -2.358  -0.846  0.00  0.00    +0.173 HD
BRANCH  19  23
ATOM     23  C   UNL     1       3.572  -0.624   0.040  0.00  0.00    +0.136 C 
BRANCH  23  27
ATOM     24  C   UNL     1      -0.028   1.666   0.235  0.00  0.00    +0.000 A 
ATOM     25  C   UNL     1       1.198   2.304   0.250  0.00  0.00    +0.000 A 
ATOM     26  C   UNL     1       2.363   1.563   0.187  0.00  0.00    +0.005 A 
ATOM     27  C   UNL     1       2.302   0.184   0.110  0.00  0.00    -0.031 A 
ATOM     28  C   UNL     1       1.076  -0.454   0.096  0.00  0.00    +0.005 A 
ATOM     29  C   UNL     1      -0.089   0.287   0.157  0.00  0.00    +0.000 A 
ENDBRANCH  23  27
BRANCH  23  30
ATOM     30  C   UNL     1       3.708  -1.455   1.290  0.00  0.00    -0.031 A 
ATOM     31  C   UNL     1       2.842  -2.508   1.517  0.00  0.00    +0.005 A 
ATOM     32  C   UNL     1       2.966  -3.270   2.664  0.00  0.00    +0.000 A 
ATOM     33  C   UNL     1       3.958  -2.980   3.582  0.00  0.00    +0.000 A 
ATOM     34  C   UNL     1       4.825  -1.928   3.354  0.00  0.00    +0.000 A 
ATOM     35  C   UNL     1       4.703  -1.168   2.206  0.00  0.00    +0.005 A 
ENDBRANCH  23  30
ENDBRANCH  19  23
ENDBRANCH   1  21
BRANCH   3  36
ATOM     36  N   UNL     1       4.452  -4.889  -4.804  0.00  0.00    -0.353 N 
ATOM     37  H   UNL     1       3.730  -4.255  -4.676  0.00  0.00    +0.143 HD
ATOM     38  H   UNL     1       4.412  -5.530  -5.531  0.00  0.00    +0.143 HD
ENDBRANCH   3  36
TORSDOF 6
