REMARK  Name = ZINC35991966
REMARK  10 active torsions:
REMARK  status: ('A' for Active; 'I' for Inactive)
REMARK    1  A    between atoms: C_1  and  C_2
REMARK    2  A    between atoms: C_2  and  O_3
REMARK    3  A    between atoms: O_3  and  C_4
REMARK    4  A    between atoms: C_4  and  C_6
REMARK    5  A    between atoms: C_7  and  C_22
REMARK    6  A    between atoms: N_8  and  C_21
REMARK    7  A    between atoms: C_12  and  C_14
REMARK    8  A    between atoms: C_22  and  N_23
REMARK    9  A    between atoms: C_27  and  C_30
REMARK   10  A    between atoms: C_31  and  C_33
REMARK                            x       y       z     vdW  Elec       q    Type
REMARK                         _______ _______ _______ _____ _____    ______ ____
ROOT
ATOM      1  C   UNL     1       0.682  -2.023   0.605  0.00  0.00    +0.080 C 
ATOM      2  C   UNL     1       1.349  -3.060   0.053  0.00  0.00    +0.041 C 
ATOM      3  N   UNL     1       2.095  -2.895  -1.079  0.00  0.00    -0.260 N 
ATOM      4  C   UNL     1       2.226  -1.726  -1.719  0.00  0.00    +0.307 C 
ATOM      5  O   UNL     1       2.913  -1.678  -2.720  0.00  0.00    -0.252 OA
ATOM      6  N   UNL     1       1.620  -0.602  -1.289  0.00  0.00    -0.288 N 
ATOM      7  C   UNL     1       0.786  -0.674  -0.078  0.00  0.00    +0.146 C 
ATOM      8  C   UNL     1       2.793  -4.063  -1.623  0.00  0.00    +0.139 C 
ATOM      9  H   UNL     1       1.729   0.235  -1.768  0.00  0.00    +0.151 HD
ENDROOT
BRANCH   7  10
ATOM     10  C   UNL     1       1.337   0.310   0.921  0.00  0.00    +0.013 A 
ATOM     11  C   UNL     1       2.697   0.551   0.975  0.00  0.00    +0.008 A 
ATOM     12  C   UNL     1       3.204   1.454   1.891  0.00  0.00    +0.001 A 
ATOM     13  C   UNL     1       2.351   2.118   2.754  0.00  0.00    +0.003 A 
ATOM     14  C   UNL     1       0.991   1.879   2.701  0.00  0.00    +0.039 A 
ATOM     15  C   UNL     1       0.482   0.978   1.780  0.00  0.00    +0.129 A 
ATOM     16  F   UNL     1      -0.848   0.747   1.725  0.00  0.00    -0.205 F 
ENDBRANCH   7  10
BRANCH   1  17
ATOM     17  C   UNL     1      -0.092  -2.192   1.777  0.00  0.00    +0.339 C 
ATOM     18  O   UNL     1      -1.305  -2.247   1.702  0.00  0.00    -0.245 OA
BRANCH  17  19
ATOM     19  O   UNL     1       0.516  -2.294   2.978  0.00  0.00    -0.462 OA
BRANCH  19  21
ATOM     20  C   UNL     1       0.534  -2.558   5.380  0.00  0.00    +0.048 C 
ATOM     21  C   UNL     1      -0.327  -2.463   4.119  0.00  0.00    +0.229 C 
ENDBRANCH  19  21
ENDBRANCH  17  19
ENDBRANCH   1  17
BRANCH   2  22
ATOM     22  C   UNL     1       1.269  -4.420   0.697  0.00  0.00    +0.136 C 
BRANCH  22  23
ATOM     23  N   UNL     1       0.578  -5.349  -0.207  0.00  0.00    -0.294 NA
ATOM     24  C   UNL     1      -0.826  -4.959  -0.392  0.00  0.00    +0.104 C 
ATOM     25  C   UNL     1      -1.459  -5.839  -1.474  0.00  0.00    +0.124 C 
ATOM     26  N   UNL     1      -1.248  -7.249  -1.113  0.00  0.00    -0.292 N 
ATOM     27  C   UNL     1       0.116  -7.685  -0.779  0.00  0.00    +0.087 C 
ATOM     28  C   UNL     1       0.688  -6.732   0.276  0.00  0.00    +0.107 C 
ATOM     29  C   UNL     1       0.079  -9.111  -0.225  0.00  0.00    +0.029 C 
ATOM     30  C   UNL     1      -2.278  -8.118  -1.088  0.00  0.00    +0.247 C 
ATOM     31  O   UNL     1      -2.076  -9.293  -0.850  0.00  0.00    -0.270 OA
BRANCH  30  32
ATOM     32  C   UNL     1      -3.652  -7.643  -1.350  0.00  0.00    +0.037 A 
ATOM     33  C   UNL     1      -3.873  -6.601  -2.252  0.00  0.00    +0.014 A 
ATOM     34  C   UNL     1      -5.159  -6.162  -2.493  0.00  0.00    +0.021 A 
ATOM     35  C   UNL     1      -6.229  -6.753  -1.842  0.00  0.00    +0.041 A 
ATOM     36  C   UNL     1      -6.016  -7.788  -0.947  0.00  0.00    +0.021 A 
ATOM     37  C   UNL     1      -4.736  -8.240  -0.702  0.00  0.00    +0.014 A 
ATOM     38 CL   UNL     1      -7.843  -6.195  -2.150  0.00  0.00    -0.084 Cl
ENDBRANCH  30  32
ENDBRANCH  22  23
ENDBRANCH   2  22
TORSDOF 7
