REMARK  Name = ZINC12244250
REMARK  7 active torsions:
REMARK  status: ('A' for Active; 'I' for Inactive)
REMARK    1  A    between atoms: C_4  and  C_7
REMARK    2  A    between atoms: C_7  and  C_8
REMARK    3  A    between atoms: C_8  and  C_21
REMARK    4  A    between atoms: N_11  and  C_15
REMARK    5  A    between atoms: C_15  and  C_16
REMARK    6  A    between atoms: C_16  and  N_73
REMARK    7  A    between atoms: C_27  and  C_29
REMARK                            x       y       z     vdW  Elec       q    Type
REMARK                         _______ _______ _______ _____ _____    ______ ____
ROOT
ATOM      1  C   UNL     1       0.660  -0.136   4.207  0.00  0.00    +0.119 C 
ATOM      2  C   UNL     1      -0.318  -0.042   3.052  0.00  0.00    +0.247 C 
ATOM      3  O   UNL     1      -1.164  -0.854   2.741  0.00  0.00    -0.273 OA
ATOM      4  N   UNL     1      -0.052   1.130   2.443  0.00  0.00    -0.226 N 
ATOM      5  C   UNL     1       0.943   1.786   3.050  0.00  0.00    +0.309 C 
ATOM      6  O   UNL     1       1.359   2.869   2.685  0.00  0.00    -0.252 OA
ATOM      7  N   UNL     1       1.431   1.115   4.108  0.00  0.00    -0.284 N 
ATOM      8  H   UNL     1       2.151   1.400   4.693  0.00  0.00    +0.151 HD
ENDROOT
BRANCH   1   9
ATOM      9  C   UNL     1      -0.087  -0.204   5.540  0.00  0.00    +0.025 C 
ATOM     10  C   UNL     1      -0.791  -1.557   5.661  0.00  0.00    +0.025 C 
ATOM     11  C   UNL     1      -1.509  -1.636   7.012  0.00  0.00    +0.108 C 
ATOM     12  N   UNL     1      -2.403  -0.477   7.140  0.00  0.00    -0.301 N 
ATOM     13  C   UNL     1      -1.846   0.869   6.952  0.00  0.00    +0.108 C 
ATOM     14  C   UNL     1      -1.124   0.920   5.602  0.00  0.00    +0.025 C 
ATOM     15  C   UNL     1      -3.710  -0.646   7.425  0.00  0.00    +0.219 C 
ATOM     16  O   UNL     1      -4.420   0.320   7.611  0.00  0.00    -0.275 OA
BRANCH  15  17
ATOM     17  C   UNL     1      -4.289  -2.035   7.512  0.00  0.00    +0.079 C 
ATOM     18  C   UNL     1      -5.535  -2.019   8.405  0.00  0.00    +0.017 C 
ATOM     19  C   UNL     1      -5.996  -3.462   8.620  0.00  0.00    +0.027 C 
ATOM     20  C   UNL     1      -6.080  -4.179   7.304  0.00  0.00    -0.031 C 
ATOM     21  C   UNL     1      -5.512  -3.767   6.216  0.00  0.00    -0.030 C 
ATOM     22  C   UNL     1      -4.699  -2.509   6.116  0.00  0.00    +0.039 C 
ENDBRANCH  15  17
ENDBRANCH   1   9
BRANCH   1  23
ATOM     23  C   UNL     1       1.578  -1.348   4.043  0.00  0.00    +0.070 C 
BRANCH  23  27
ATOM     24  C   UNL     1       3.776  -0.990   0.398  0.00  0.00    +0.000 A 
ATOM     25  C   UNL     1       4.290  -0.467   1.569  0.00  0.00    +0.000 A 
ATOM     26  C   UNL     1       3.579  -0.583   2.749  0.00  0.00    +0.004 A 
ATOM     27  C   UNL     1       2.353  -1.222   2.757  0.00  0.00    -0.045 A 
ATOM     28  C   UNL     1       1.841  -1.749   1.586  0.00  0.00    +0.004 A 
ATOM     29  C   UNL     1       2.550  -1.629   0.406  0.00  0.00    +0.000 A 
ENDBRANCH  23  27
ENDBRANCH   1  23
BRANCH   4  30
ATOM     30  C   UNL     1      -0.768   1.626   1.265  0.00  0.00    +0.099 C 
BRANCH  30  31
ATOM     31  C   UNL     1      -0.062   1.142  -0.003  0.00  0.00    -0.059 C 
BRANCH  31  36
ATOM     32  C   UNL     1      -0.973   3.111  -1.109  0.00  0.00    -0.079 C 
ATOM     33  C   UNL     1      -1.233   3.510  -2.583  0.00  0.00    -0.020 C 
ATOM     34  C   UNL     1      -0.281   2.578  -3.367  0.00  0.00    -0.020 C 
ATOM     35  C   UNL     1      -0.002   1.397  -2.418  0.00  0.00    -0.079 C 
ATOM     36  N   UNL     1      -0.782   1.655  -1.207  0.00  0.00    +0.381 N 
ATOM     37  H   UNL     1      -1.694   1.189  -1.277  0.00  0.00    -0.082 HD
ENDBRANCH  31  36
ENDBRANCH  30  31
ENDBRANCH   4  30
TORSDOF 7
