REMARK  Name = ZINC35686532
REMARK  12 active torsions:
REMARK  status: ('A' for Active; 'I' for Inactive)
REMARK    1  A    between atoms: C_4  and  C_7
REMARK    2  A    between atoms: C_7  and  N_8
REMARK    3  A    between atoms: C_14  and  C_16
REMARK    4  A    between atoms: C_16  and  C_18
REMARK    5  A    between atoms: C_16  and  N_23
REMARK    6  A    between atoms: C_18  and  C_19
REMARK    7  A    between atoms: C_19  and  C_20
REMARK    8  A    between atoms: C_20  and  C_21
REMARK    9  A    between atoms: C_21  and  N_22
REMARK   10  A    between atoms: C_24  and  O_26
REMARK   11  A    between atoms: O_26  and  C_27
REMARK   12  A    between atoms: C_27  and  C_28
REMARK                            x       y       z     vdW  Elec       q    Type
REMARK                         _______ _______ _______ _____ _____    ______ ____
ROOT
ATOM      1  C   UNL     1       6.910  -3.764   4.358  0.00  0.00    +0.162 C 
ENDROOT
BRANCH   1   8
ATOM      2  N   UNL     1       4.899   0.774   3.784  0.00  0.00    -0.295 NA
ATOM      3  C   UNL     1       6.246   0.238   4.019  0.00  0.00    +0.103 C 
ATOM      4  C   UNL     1       6.364  -1.142   3.363  0.00  0.00    +0.123 C 
ATOM      5  N   UNL     1       5.265  -1.988   3.852  0.00  0.00    -0.298 N 
ATOM      6  C   UNL     1       3.894  -1.460   3.776  0.00  0.00    +0.123 C 
ATOM      7  C   UNL     1       3.873  -0.067   4.415  0.00  0.00    +0.103 C 
ATOM      8  C   UNL     1       5.507  -3.214   4.355  0.00  0.00    +0.236 C 
ATOM      9  O   UNL     1       4.595  -3.875   4.807  0.00  0.00    -0.274 OA
BRANCH   2  10
ATOM     10  C   UNL     1       4.797   2.164   4.247  0.00  0.00    +0.119 C 
BRANCH  10  14
ATOM     11  C   UNL     1       7.330   4.648   1.867  0.00  0.00    +0.000 A 
ATOM     12  C   UNL     1       6.018   4.434   1.488  0.00  0.00    +0.000 A 
ATOM     13  C   UNL     1       5.198   3.630   2.258  0.00  0.00    +0.005 A 
ATOM     14  C   UNL     1       5.691   3.040   3.407  0.00  0.00    -0.033 A 
ATOM     15  C   UNL     1       7.003   3.253   3.786  0.00  0.00    +0.005 A 
ATOM     16  C   UNL     1       7.822   4.058   3.016  0.00  0.00    +0.000 A 
ENDBRANCH  10  14
ENDBRANCH   2  10
ENDBRANCH   1   8
BRANCH   1  17
ATOM     17  N   UNL     1       6.949  -4.998   5.147  0.00  0.00    -0.270 N 
ATOM     18  C   UNL     1       8.103  -5.398   5.716  0.00  0.00    +0.401 C 
ATOM     19  O   UNL     1       9.112  -4.735   5.574  0.00  0.00    -0.226 OA
ATOM     20  H   UNL     1       6.144  -5.527   5.261  0.00  0.00    +0.153 HD
BRANCH  18  21
ATOM     21  O   UNL     1       8.139  -6.532   6.441  0.00  0.00    -0.446 OA
BRANCH  21  22
ATOM     22  C   UNL     1       9.397  -6.895   7.015  0.00  0.00    +0.269 C 
BRANCH  22  23
ATOM     23  C   UNL     1       9.244  -8.181   7.785  0.00  0.00    -0.010 A 
ATOM     24  C   UNL     1       8.899  -8.149   9.123  0.00  0.00    +0.007 A 
ATOM     25  C   UNL     1       8.759  -9.329   9.830  0.00  0.00    +0.000 A 
ATOM     26  C   UNL     1       8.964 -10.541   9.198  0.00  0.00    +0.000 A 
ATOM     27  C   UNL     1       9.309 -10.574   7.860  0.00  0.00    +0.000 A 
ATOM     28  C   UNL     1       9.444  -9.394   7.152  0.00  0.00    +0.007 A 
ENDBRANCH  22  23
ENDBRANCH  21  22
ENDBRANCH  18  21
ENDBRANCH   1  17
BRANCH   1  29
ATOM     29  C   UNL     1       7.342  -4.064   2.921  0.00  0.00    +0.032 C 
BRANCH  29  30
ATOM     30  C   UNL     1       8.812  -4.490   2.910  0.00  0.00    +0.000 C 
BRANCH  30  31
ATOM     31  C   UNL     1       9.245  -4.790   1.474  0.00  0.00    -0.019 C 
BRANCH  31  32
ATOM     32  C   UNL     1      10.714  -5.216   1.462  0.00  0.00    -0.086 C 
BRANCH  32  33
ATOM     33  N   UNL     1      11.130  -5.504   0.083  0.00  0.00    +0.378 N 
ATOM     34  H   UNL     1      11.015  -4.677  -0.483  0.00  0.00    -0.090 HD
ATOM     35  H   UNL     1      12.099  -5.785   0.075  0.00  0.00    -0.090 HD
ATOM     36  H   UNL     1      10.561  -6.249  -0.291  0.00  0.00    -0.090 HD
ENDBRANCH  32  33
ENDBRANCH  31  32
ENDBRANCH  30  31
ENDBRANCH  29  30
ENDBRANCH   1  29
TORSDOF 12
