REMARK  Name = ZINC36307840
REMARK  18 active torsions:
REMARK  status: ('A' for Active; 'I' for Inactive)
REMARK    1  A    between atoms: C_1  and  C_2
REMARK    2  A    between atoms: C_2  and  C_3
REMARK    3  A    between atoms: C_3  and  C_4
REMARK    4  A    between atoms: C_4  and  C_6
REMARK    5  A    between atoms: C_4  and  O_35
REMARK    6  A    between atoms: C_6  and  N_7
REMARK    7  A    between atoms: N_7  and  C_8
REMARK    8  A    between atoms: N_7  and  C_12
REMARK    9  A    between atoms: C_8  and  C_9
REMARK   10  A    between atoms: C_9  and  O_10
REMARK   11  A    between atoms: O_10  and  C_11
REMARK   12  A    between atoms: C_12  and  C_13
REMARK   13  A    between atoms: C_14  and  C_32
REMARK   14  A    between atoms: N_16  and  C_26
REMARK   15  A    between atoms: C_17  and  O_18
REMARK   16  A    between atoms: O_18  and  C_19
REMARK   17  A    between atoms: C_32  and  C_33
REMARK   18  A    between atoms: C_32  and  C_34
REMARK                            x       y       z     vdW  Elec       q    Type
REMARK                         _______ _______ _______ _____ _____    ______ ____
ROOT
ATOM      1  C   UNL     1      -3.320  -6.392  -0.856  0.00  0.00    +0.021 A 
ATOM      2  C   UNL     1      -2.908  -6.715  -2.152  0.00  0.00    +0.071 A 
ATOM      3  N   UNL     1      -2.343  -7.896  -2.125  0.00  0.00    -0.168 NA
ATOM      4  N   UNL     1      -2.374  -8.370  -0.807  0.00  0.00    -0.200 N 
ATOM      5  C   UNL     1      -2.977  -7.424  -0.039  0.00  0.00    +0.225 A 
ENDROOT
BRANCH   4   6
ATOM      6  C   UNL     1      -1.870  -9.599  -0.360  0.00  0.00    +0.069 A 
ATOM      7  C   UNL     1      -1.207  -9.677   0.858  0.00  0.00    +0.028 A 
ATOM      8  C   UNL     1      -0.711 -10.889   1.296  0.00  0.00    +0.002 A 
ATOM      9  C   UNL     1      -0.873 -12.024   0.523  0.00  0.00    +0.000 A 
ATOM     10  C   UNL     1      -1.533 -11.950  -0.690  0.00  0.00    +0.002 A 
ATOM     11  C   UNL     1      -2.036 -10.742  -1.131  0.00  0.00    +0.028 A 
ENDBRANCH   4   6
BRANCH   2  12
ATOM     12  C   UNL     1      -3.084  -5.851  -3.374  0.00  0.00    +0.034 C 
ATOM     13  C   UNL     1      -1.713  -5.527  -3.972  0.00  0.00    +0.014 C 
ATOM     14  C   UNL     1      -3.928  -6.597  -4.409  0.00  0.00    +0.014 C 
ENDBRANCH   2  12
BRANCH   1  15
ATOM     15  C   UNL     1      -4.014  -5.122  -0.437  0.00  0.00    -0.036 C 
BRANCH  15  16
ATOM     16  N   UNL     1      -3.025  -4.174   0.092  0.00  0.00    +0.386 N 
ATOM     17  H   UNL     1      -2.513  -4.607   0.846  0.00  0.00    -0.081 HD
BRANCH  16  18
ATOM     18  C   UNL     1      -2.092  -3.792  -0.977  0.00  0.00    -0.047 C 
BRANCH  18  19
ATOM     19  C   UNL     1      -0.957  -2.954  -0.387  0.00  0.00    +0.098 C 
BRANCH  19  20
ATOM     20  O   UNL     1      -1.473  -1.698   0.059  0.00  0.00    -0.394 OA
ATOM     21  H   UNL     1      -1.884  -1.171  -0.640  0.00  0.00    +0.210 HD
ENDBRANCH  19  20
BRANCH  19  22
ATOM     22  C   UNL     1       0.110  -2.715  -1.458  0.00  0.00    +0.029 C 
BRANCH  22  24
ATOM     23  C   UNL     1       2.368  -1.745  -1.908  0.00  0.00    +0.004 C 
ATOM     24  C   UNL     1       1.302  -1.984  -0.837  0.00  0.00    -0.001 C 
ENDBRANCH  22  24
ENDBRANCH  19  22
ENDBRANCH  18  19
ENDBRANCH  16  18
BRANCH  16  25
ATOM     25  C   UNL     1      -3.713  -2.976   0.593  0.00  0.00    -0.050 C 
BRANCH  25  26
ATOM     26  C   UNL     1      -4.630  -3.363   1.755  0.00  0.00    +0.141 C 
BRANCH  26  27
ATOM     27  O   UNL     1      -3.840  -3.840   2.846  0.00  0.00    -0.385 OA
ATOM     28  C   UNL     1      -4.604  -4.230   3.989  0.00  0.00    +0.193 C 
ENDBRANCH  26  27
ENDBRANCH  25  26
ENDBRANCH  16  25
ENDBRANCH  15  16
ENDBRANCH   1  15
BRANCH   5  29
ATOM     29  O   UNL     1      -3.198  -7.497   1.298  0.00  0.00    -0.435 OA
BRANCH  29  30
ATOM     30  C   UNL     1      -4.309  -8.154   1.726  0.00  0.00    +0.165 A 
ATOM     31  C   UNL     1      -5.120  -8.813   0.815  0.00  0.00    +0.049 A 
ATOM     32  C   UNL     1      -6.248  -9.481   1.252  0.00  0.00    +0.004 A 
ATOM     33  C   UNL     1      -6.570  -9.492   2.597  0.00  0.00    +0.003 A 
ATOM     34  C   UNL     1      -5.763  -8.836   3.509  0.00  0.00    +0.042 A 
ATOM     35  C   UNL     1      -4.630  -8.171   3.078  0.00  0.00    +0.165 A 
ATOM     36  F   UNL     1      -3.839  -7.534   3.969  0.00  0.00    -0.202 F 
ENDBRANCH  29  30
ENDBRANCH   5  29
TORSDOF 14
