REMARK  Name = ZINC01044331
REMARK  7 active torsions:
REMARK  status: ('A' for Active; 'I' for Inactive)
REMARK    1  A    between atoms: C_1  and  C_2
REMARK    2  A    between atoms: C_4  and  C_27
REMARK    3  A    between atoms: C_6  and  C_20
REMARK    4  A    between atoms: C_8  and  C_19
REMARK    5  A    between atoms: C_10  and  C_11
REMARK    6  A    between atoms: C_10  and  O_18
REMARK    7  A    between atoms: C_26  and  N_57
REMARK                            x       y       z     vdW  Elec       q    Type
REMARK                         _______ _______ _______ _____ _____    ______ ____
ROOT
ATOM      1  C   UNL     1       2.120  -2.248   2.322  0.00  0.00    +0.009 C 
ATOM      2  C   UNL     1       1.147  -2.605   1.196  0.00  0.00    +0.013 C 
ATOM      3  C   UNL     1       1.108  -4.124   1.017  0.00  0.00    -0.031 C 
ATOM      4  C   UNL     1       2.896  -4.035  -0.616  0.00  0.00    -0.031 C 
ATOM      5  C   UNL     1       2.988  -2.513  -0.485  0.00  0.00    +0.013 C 
ATOM      6  C   UNL     1       1.613  -1.954  -0.108  0.00  0.00    +0.094 C 
ATOM      7  C   UNL     1       3.436  -1.912  -1.819  0.00  0.00    +0.009 C 
ATOM      8  C   UNL     1       2.479  -6.078   0.613  0.00  0.00    -0.094 C 
ATOM      9  N   UNL     1       2.466  -4.602   0.680  0.00  0.00    +0.387 N 
ATOM     10  H   UNL     1       3.118  -4.295   1.411  0.00  0.00    -0.080 HD
ENDROOT
BRANCH   6  11
ATOM     11  C   UNL     1       1.711  -0.462   0.081  0.00  0.00    -0.016 A 
ATOM     12  C   UNL     1       0.618   0.342  -0.188  0.00  0.00    +0.009 A 
ATOM     13  C   UNL     1       0.707   1.710  -0.015  0.00  0.00    +0.039 A 
ATOM     14  C   UNL     1       1.890   2.276   0.427  0.00  0.00    +0.123 A 
ATOM     15  C   UNL     1       2.984   1.471   0.696  0.00  0.00    +0.039 A 
ATOM     16  C   UNL     1       2.893   0.103   0.522  0.00  0.00    +0.009 A 
ATOM     17  F   UNL     1       1.978   3.614   0.596  0.00  0.00    -0.205 F 
ENDBRANCH   6  11
BRANCH   4  18
ATOM     18  C   UNL     1       4.252  -4.591  -0.968  0.00  0.00    -0.061 A 
ATOM     19  C   UNL     1       5.205  -4.763   0.018  0.00  0.00    +0.002 A 
ATOM     20  C   UNL     1       6.447  -5.277  -0.304  0.00  0.00    +0.000 A 
ATOM     21  C   UNL     1       6.739  -5.612  -1.613  0.00  0.00    +0.000 A 
ATOM     22  C   UNL     1       5.787  -5.436  -2.600  0.00  0.00    +0.000 A 
ATOM     23  C   UNL     1       4.543  -4.925  -2.277  0.00  0.00    +0.002 A 
ENDBRANCH   4  18
BRANCH   3  24
ATOM     24  C   UNL     1       0.135  -4.476  -0.079  0.00  0.00    -0.061 A 
ATOM     25  C   UNL     1       0.537  -5.284  -1.126  0.00  0.00    +0.002 A 
ATOM     26  C   UNL     1      -0.357  -5.610  -2.129  0.00  0.00    +0.000 A 
ATOM     27  C   UNL     1      -1.649  -5.120  -2.090  0.00  0.00    +0.000 A 
ATOM     28  C   UNL     1      -2.049  -4.309  -1.045  0.00  0.00    +0.000 A 
ATOM     29  C   UNL     1      -1.157  -3.986  -0.039  0.00  0.00    +0.002 A 
ENDBRANCH   3  24
BRANCH   6  30
ATOM     30  O   UNL     1       0.678  -2.243  -1.149  0.00  0.00    -0.384 OA
ATOM     31  H   UNL     1      -0.216  -1.919  -0.976  0.00  0.00    +0.211 HD
ENDBRANCH   6  30
TORSDOF 4
