REMARK  Name = ZINC67392729
REMARK  11 active torsions:
REMARK  status: ('A' for Active; 'I' for Inactive)
REMARK    1  A    between atoms: C_1  and  C_2
REMARK    2  A    between atoms: C_2  and  C_3
REMARK    3  A    between atoms: C_6  and  N_12
REMARK    4  A    between atoms: C_8  and  N_9
REMARK    5  A    between atoms: C_13  and  C_15
REMARK    6  A    between atoms: N_17  and  C_18
REMARK    7  A    between atoms: C_18  and  C_19
REMARK    8  A    between atoms: C_19  and  C_20
REMARK    9  A    between atoms: C_19  and  C_21
REMARK   10  A    between atoms: C_19  and  N_22
REMARK   11  A    between atoms: C_26  and  C_29
REMARK                            x       y       z     vdW  Elec       q    Type
REMARK                         _______ _______ _______ _____ _____    ______ ____
ROOT
ATOM      1  C   UNL     1       2.642  -2.530  -7.021  0.00  0.00    +0.299 C 
ATOM      2  O   UNL     1       3.855  -2.546  -7.060  0.00  0.00    -0.265 OA
ATOM      3  N   UNL     1       1.928  -2.851  -8.119  0.00  0.00    -0.309 N 
ATOM      4  H   UNL     1       0.959  -2.838  -8.088  0.00  0.00    +0.149 HD
ENDROOT
BRANCH   1   6
ATOM      5  N   UNL     1       2.654  -1.833  -4.660  0.00  0.00    -0.278 N 
ATOM      6  C   UNL     1       1.940  -2.154  -5.758  0.00  0.00    +0.303 C 
ATOM      7  O   UNL     1       0.727  -2.138  -5.719  0.00  0.00    -0.265 OA
ATOM      8  H   UNL     1       3.621  -1.905  -4.673  0.00  0.00    +0.155 HD
BRANCH   5  12
ATOM      9  C   UNL     1       0.706  -0.530  -1.218  0.00  0.00    -0.017 A 
ATOM     10  C   UNL     1       1.938  -0.001  -1.556  0.00  0.00    +0.007 A 
ATOM     11  C   UNL     1       2.587  -0.431  -2.696  0.00  0.00    +0.024 A 
ATOM     12  C   UNL     1       2.001  -1.396  -3.505  0.00  0.00    +0.036 A 
ATOM     13  C   UNL     1       0.763  -1.926  -3.163  0.00  0.00    +0.056 A 
ATOM     14  C   UNL     1       0.122  -1.495  -2.018  0.00  0.00    +0.131 A 
BRANCH  14  15
ATOM     15  N   UNL     1      -1.195  -2.063  -1.650  0.00  0.00    +0.057 N 
ATOM     16  O   UNL     1      -1.667  -2.966  -2.300  0.00  0.00    -0.126 OA
ATOM     17  O   UNL     1      -1.798  -1.623  -0.699  0.00  0.00    -0.126 OA
ENDBRANCH  14  15
BRANCH   9  19
ATOM     18  C   UNL     1       0.199  -1.085   1.145  0.00  0.00    +0.009 C 
ATOM     19  C   UNL     1       0.001  -0.059   0.028  0.00  0.00    +0.034 C 
ENDBRANCH   9  19
ENDBRANCH   5  12
ENDBRANCH   1   6
BRANCH   3  20
ATOM     20  C   UNL     1       2.617  -3.219  -9.358  0.00  0.00    +0.092 C 
BRANCH  20  21
ATOM     21  C   UNL     1       1.583  -3.534 -10.441  0.00  0.00    -0.055 C 
ATOM     22  C   UNL     1       2.302  -3.919 -11.736  0.00  0.00    -0.008 C 
ATOM     23  C   UNL     1       0.702  -4.698  -9.982  0.00  0.00    -0.008 C 
BRANCH  21  24
ATOM     24  N   UNL     1       0.746  -2.351 -10.679  0.00  0.00    +0.384 N 
ATOM     25  C   UNL     1       1.594  -1.233 -11.111  0.00  0.00    -0.078 C 
ATOM     26  C   UNL     1       0.739   0.024 -11.282  0.00  0.00    -0.018 C 
ATOM     27  C   UNL     1      -0.340  -0.238 -12.338  0.00  0.00    -0.001 C 
ATOM     28  C   UNL     1      -1.171  -1.452 -11.913  0.00  0.00    -0.031 C 
ATOM     29  C   UNL     1      -0.245  -2.655 -11.718  0.00  0.00    -0.075 C 
ATOM     30  C   UNL     1      -2.202  -1.770 -12.998  0.00  0.00    +0.005 C 
ATOM     31  H   UNL     1       0.271  -2.099  -9.826  0.00  0.00    -0.081 HD
ENDBRANCH  21  24
ENDBRANCH  20  21
ENDBRANCH   3  20
TORSDOF 7
