REMARK  Name = ZINC20467540
REMARK  5 active torsions:
REMARK  status: ('A' for Active; 'I' for Inactive)
REMARK    1  A    between atoms: C_4  and  C_19
REMARK    2  A    between atoms: C_6  and  N_7
REMARK    3  A    between atoms: N_7  and  S_8
REMARK    4  A    between atoms: S_8  and  C_11
REMARK    5  A    between atoms: C_16  and  N_17
REMARK                            x       y       z     vdW  Elec       q    Type
REMARK                         _______ _______ _______ _____ _____    ______ ____
ROOT
ATOM      1  S   UNL     1      -2.541   4.821  -0.053  0.00  0.00    +0.095 S 
ATOM      2  O   UNL     1      -2.395   5.674  -1.179  0.00  0.00    -0.148 OA
ATOM      3  O   UNL     1      -3.581   3.858   0.045  0.00  0.00    -0.148 OA
ENDROOT
BRANCH   1   4
ATOM      4  C   UNL     1      -1.023   3.940   0.111  0.00  0.00    +0.151 A 
ATOM      5  C   UNL     1      -0.003   4.126  -0.805  0.00  0.00    +0.049 A 
ATOM      6  C   UNL     1       1.174   3.406  -0.640  0.00  0.00    +0.038 A 
ATOM      7  C   UNL     1       1.294   2.541   0.430  0.00  0.00    +0.128 A 
ATOM      8  N   UNL     1       0.305   2.388   1.290  0.00  0.00    -0.238 NA
ATOM      9  C   UNL     1      -0.834   3.051   1.164  0.00  0.00    +0.143 A 
ATOM     10 BR   UNL     1       2.600   3.615  -1.864  0.00  0.00    -0.049 Br
BRANCH   9  11
ATOM     11  N   UNL     1      -1.849   2.859   2.094  0.00  0.00    -0.342 N 
ATOM     12  H   UNL     1      -1.705   2.158   2.929  0.00  0.00    +0.144 HD
ATOM     13  H   UNL     1      -2.797   3.408   1.994  0.00  0.00    +0.144 HD
ENDBRANCH   9  11
ENDBRANCH   1   4
BRANCH   1  14
ATOM     14  N   UNL     1      -2.680   5.805   1.272  0.00  0.00    -0.098 NA
BRANCH  14  20
ATOM     15  C   UNL     1      -0.431   6.680   1.272  0.00  0.00    +0.028 A 
ATOM     16  C   UNL     1       0.441   7.739   1.439  0.00  0.00    +0.022 A 
ATOM     17  C   UNL     1      -0.043   8.987   1.789  0.00  0.00    +0.053 A 
ATOM     18  C   UNL     1      -1.402   9.180   1.967  0.00  0.00    +0.075 A 
ATOM     19  C   UNL     1      -2.279   8.127   1.796  0.00  0.00    +0.040 A 
ATOM     20  C   UNL     1      -1.795   6.872   1.445  0.00  0.00    +0.075 A 
ATOM     21 CL   UNL     1       1.056  10.313   2.004  0.00  0.00    -0.083 Cl
BRANCH  18  22
ATOM     22  C   UNL     1      -1.926  10.541   2.348  0.00  0.00    +0.419 C 
ATOM     23  F   UNL     1      -3.318  10.488   2.469  0.00  0.00    -0.166 F 
ATOM     24  F   UNL     1      -1.366  10.931   3.569  0.00  0.00    -0.166 F 
ATOM     25  F   UNL     1      -1.579  11.467   1.358  0.00  0.00    -0.166 F 
ENDBRANCH  18  22
ENDBRANCH  14  20
ENDBRANCH   1  14
TORSDOF 5
