REMARK  Name = ZINC58954614
REMARK  15 active torsions:
REMARK  status: ('A' for Active; 'I' for Inactive)
REMARK    1  A    between atoms: C_1  and  C_2
REMARK    2  A    between atoms: C_2  and  C_3
REMARK    3  A    between atoms: C_3  and  C_4
REMARK    4  A    between atoms: C_4  and  C_6
REMARK    5  A    between atoms: C_4  and  N_22
REMARK    6  A    between atoms: N_8  and  C_9
REMARK    7  A    between atoms: C_9  and  C_10
REMARK    8  A    between atoms: C_10  and  C_12
REMARK    9  A    between atoms: C_10  and  N_17
REMARK   10  A    between atoms: N_17  and  C_18
REMARK   11  A    between atoms: N_17  and  C_20
REMARK   12  A    between atoms: C_18  and  C_19
REMARK   13  A    between atoms: C_20  and  C_21
REMARK   14  A    between atoms: N_25  and  C_26
REMARK   15  A    between atoms: C_26  and  C_27
REMARK                            x       y       z     vdW  Elec       q    Type
REMARK                         _______ _______ _______ _____ _____    ______ ____
ROOT
ATOM      1  C   UNL     1       1.185  -2.565   1.218  0.00  0.00    +0.160 C 
ENDROOT
BRANCH   1   2
ATOM      2  N   UNL     1       2.153  -2.758   0.136  0.00  0.00    -0.288 N 
ATOM      3  C   UNL     1       1.759  -3.301  -1.033  0.00  0.00    +0.300 C 
ATOM      4  O   UNL     1       0.599  -3.630  -1.190  0.00  0.00    -0.253 OA
ATOM      5  N   UNL     1       2.650  -3.479  -2.028  0.00  0.00    -0.295 N 
ATOM      6  H   UNL     1       3.079  -2.496   0.261  0.00  0.00    +0.151 HD
ATOM      7  H   UNL     1       3.575  -3.216  -1.903  0.00  0.00    +0.151 HD
BRANCH   5   8
ATOM      8  C   UNL     1       2.221  -4.068  -3.299  0.00  0.00    +0.141 C 
BRANCH   8   9
ATOM      9  C   UNL     1       3.399  -4.157  -4.234  0.00  0.00    -0.030 A 
ATOM     10  C   UNL     1       3.690  -3.103  -5.081  0.00  0.00    +0.008 A 
ATOM     11  C   UNL     1       4.770  -3.183  -5.939  0.00  0.00    +0.038 A 
ATOM     12  C   UNL     1       5.561  -4.319  -5.951  0.00  0.00    +0.123 A 
ATOM     13  C   UNL     1       5.269  -5.374  -5.103  0.00  0.00    +0.038 A 
ATOM     14  C   UNL     1       4.192  -5.289  -4.242  0.00  0.00    +0.008 A 
ATOM     15  F   UNL     1       6.617  -4.398  -6.790  0.00  0.00    -0.205 F 
ENDBRANCH   8   9
ENDBRANCH   5   8
ENDBRANCH   1   2
BRANCH   1  16
ATOM     16  C   UNL     1       1.906  -2.546   2.541  0.00  0.00    +0.233 C 
ATOM     17  O   UNL     1       3.111  -2.681   2.577  0.00  0.00    -0.274 OA
ATOM     18  N   UNL     1       1.212  -2.379   3.685  0.00  0.00    -0.315 N 
ATOM     19  H   UNL     1       0.249  -2.272   3.656  0.00  0.00    +0.149 HD
BRANCH  18  20
ATOM     20  C   UNL     1       1.914  -2.361   4.971  0.00  0.00    +0.093 C 
BRANCH  20  21
ATOM     21  C   UNL     1       0.922  -2.028   6.088  0.00  0.00    -0.020 C 
BRANCH  21  22
ATOM     22  C   UNL     1       1.606  -2.166   7.423  0.00  0.00    -0.052 A 
ATOM     23  C   UNL     1       1.431  -3.304   8.188  0.00  0.00    +0.009 A 
ATOM     24  C   UNL     1       2.060  -3.396   9.385  0.00  0.00    +0.045 A 
ATOM     25  S   UNL     1       2.935  -1.841   9.462  0.00  0.00    -0.105 S 
ATOM     26  C   UNL     1       2.407  -1.177   7.891  0.00  0.00    +0.047 A 
ENDBRANCH  21  22
BRANCH  21  27
ATOM     27  N   UNL     1       0.443  -0.650   5.922  0.00  0.00    +0.385 N 
ATOM     28  H   UNL     1       1.232  -0.024   5.860  0.00  0.00    -0.081 HD
BRANCH  27  29
ATOM     29  C   UNL     1      -0.356  -0.553   4.693  0.00  0.00    -0.081 C 
ATOM     30  C   UNL     1      -1.504  -1.564   4.750  0.00  0.00    -0.017 C 
ENDBRANCH  27  29
BRANCH  27  31
ATOM     31  C   UNL     1      -0.387  -0.278   7.076  0.00  0.00    -0.081 C 
ATOM     32  C   UNL     1      -0.791   1.193   6.961  0.00  0.00    -0.017 C 
ENDBRANCH  27  31
ENDBRANCH  21  27
ENDBRANCH  20  21
ENDBRANCH  18  20
ENDBRANCH   1  16
BRANCH   1  33
ATOM     33  C   UNL     1       0.454  -1.236   1.017  0.00  0.00    +0.031 C 
BRANCH  33  35
ATOM     34  C   UNL     1      -1.110   0.028  -0.467  0.00  0.00    +0.004 C 
ATOM     35  C   UNL     1      -0.379  -1.301  -0.265  0.00  0.00    -0.001 C 
ENDBRANCH  33  35
ENDBRANCH   1  33
TORSDOF 12
