REMARK  Name = ZINC19561674
REMARK  8 active torsions:
REMARK  status: ('A' for Active; 'I' for Inactive)
REMARK    1  A    between atoms: C_1  and  C_2
REMARK    2  A    between atoms: C_3  and  C_30
REMARK    3  A    between atoms: C_7  and  N_11
REMARK    4  A    between atoms: N_11  and  C_12
REMARK    5  A    between atoms: C_12  and  C_13
REMARK    6  A    between atoms: C_13  and  C_14
REMARK    7  A    between atoms: N_16  and  C_17
REMARK    8  A    between atoms: C_26  and  C_29
REMARK                            x       y       z     vdW  Elec       q    Type
REMARK                         _______ _______ _______ _____ _____    ______ ____
ROOT
ATOM      1  C   UNL     1      -0.101   1.398   1.206  0.00  0.00    +0.219 C 
ATOM      2  O   UNL     1      -0.085   0.201   1.398  0.00  0.00    -0.275 OA
ATOM      3  N   UNL     1       1.048   2.103   1.244  0.00  0.00    -0.285 N 
ATOM      4  H   UNL     1       1.044   3.174   0.994  0.00  0.00    +0.155 HD
ENDROOT
BRANCH   3   5
ATOM      5  C   UNL     1       2.245   1.471   1.603  0.00  0.00    +0.035 A 
ATOM      6  C   UNL     1       3.205   2.164   2.329  0.00  0.00    +0.027 A 
ATOM      7  C   UNL     1       4.386   1.543   2.690  0.00  0.00    +0.049 A 
ATOM      8  C   UNL     1       4.619   0.230   2.318  0.00  0.00    +0.143 A 
ATOM      9  C   UNL     1       3.659  -0.467   1.584  0.00  0.00    +0.077 A 
ATOM     10  C   UNL     1       2.474   0.154   1.228  0.00  0.00    +0.050 A 
ATOM     11  N   UNL     1       3.911  -1.796   1.215  0.00  0.00    -0.279 N 
ATOM     12  C   UNL     1       4.908  -2.469   1.829  0.00  0.00    +0.258 C 
ATOM     13  O   UNL     1       5.162  -3.610   1.504  0.00  0.00    -0.271 OA
ATOM     14  C   UNL     1       5.704  -1.797   2.919  0.00  0.00    +0.256 C 
ATOM     15  O   UNL     1       5.779  -0.392   2.662  0.00  0.00    -0.478 OA
ATOM     16  C   UNL     1       7.116  -2.385   2.955  0.00  0.00    +0.062 C 
ATOM     17  H   UNL     1       3.300  -2.275   0.436  0.00  0.00    +0.155 HD
ENDBRANCH   3   5
BRANCH   1  18
ATOM     18  C   UNL     1      -1.404   2.098   0.917  0.00  0.00    +0.115 C 
BRANCH  18  19
ATOM     19  C   UNL     1      -2.543   1.076   0.925  0.00  0.00    +0.112 C 
BRANCH  19  20
ATOM     20  N   UNL     1      -3.811   1.756   0.644  0.00  0.00    -0.328 N 
ATOM     21  H   UNL     1      -3.825   2.842   0.470  0.00  0.00    +0.147 HD
BRANCH  20  28
ATOM     22  C   UNL     1      -5.329   4.033  -0.225  0.00  0.00    +0.045 C 
ATOM     23  C   UNL     1      -6.455   3.032  -0.191  0.00  0.00    -0.028 A 
ATOM     24  C   UNL     1      -7.700   3.400  -0.525  0.00  0.00    -0.008 A 
ATOM     25  S   UNL     1      -8.644   1.900  -0.330  0.00  0.00    -0.074 S 
ATOM     26  C   UNL     1      -7.340   0.820   0.196  0.00  0.00    +0.114 A 
ATOM     27  C   UNL     1      -6.204   1.659   0.211  0.00  0.00    +0.051 A 
ATOM     28  C   UNL     1      -4.989   1.032   0.599  0.00  0.00    +0.130 A 
ATOM     29  N   UNL     1      -4.999  -0.252   0.921  0.00  0.00    -0.220 NA
ATOM     30  C   UNL     1      -6.103  -0.976   0.890  0.00  0.00    +0.224 A 
ATOM     31  N   UNL     1      -7.260  -0.452   0.533  0.00  0.00    -0.228 NA
ATOM     32  C   UNL     1      -8.186   4.758  -0.963  0.00  0.00    +0.052 C 
ENDBRANCH  20  28
ENDBRANCH  19  20
ENDBRANCH  18  19
ENDBRANCH   1  18
TORSDOF 5
