REMARK  Name = ZINC09326088
REMARK  15 active torsions:
REMARK  status: ('A' for Active; 'I' for Inactive)
REMARK    1  A    between atoms: C_1  and  C_2
REMARK    2  A    between atoms: C_2  and  C_3
REMARK    3  A    between atoms: C_3  and  C_4
REMARK    4  A    between atoms: C_4  and  N_5
REMARK    5  A    between atoms: N_5  and  C_6
REMARK    6  A    between atoms: N_5  and  S_7
REMARK    7  A    between atoms: S_7  and  C_10
REMARK    8  A    between atoms: C_13  and  C_16
REMARK    9  A    between atoms: C_16  and  N_18
REMARK   10  A    between atoms: N_20  and  C_31
REMARK   11  A    between atoms: C_22  and  O_29
REMARK   12  A    between atoms: O_29  and  C_30
REMARK   13  A    between atoms: C_31  and  C_32
REMARK   14  A    between atoms: C_32  and  O_33
REMARK   15  A    between atoms: O_33  and  C_34
REMARK                            x       y       z     vdW  Elec       q    Type
REMARK                         _______ _______ _______ _____ _____    ______ ____
ROOT
ATOM      1  C   UNL     1      -3.696   3.626   6.598  0.00  0.00    +0.269 C 
ATOM      2  O   UNL     1      -2.990   3.141   7.465  0.00  0.00    -0.268 OA
ENDROOT
BRANCH   1   3
ATOM      3  N   UNL     1      -3.405   3.424   5.309  0.00  0.00    -0.152 NA
ATOM      4  C   UNL     1      -2.346   2.695   4.973  0.00  0.00    +0.167 A 
ATOM      5  N   UNL     1      -1.896   2.385   3.728  0.00  0.00    -0.316 N 
ATOM      6  C   UNL     1      -0.763   1.605   3.575  0.00  0.00    +0.101 A 
ATOM      7  C   UNL     1      -0.148   1.182   2.380  0.00  0.00    +0.145 A 
ATOM      8  C   UNL     1       0.985   0.397   2.412  0.00  0.00    +0.049 A 
ATOM      9  C   UNL     1       1.556   0.011   3.613  0.00  0.00    +0.025 A 
ATOM     10  C   UNL     1       0.972   0.415   4.801  0.00  0.00    +0.057 A 
ATOM     11  C   UNL     1      -0.163   1.194   4.772  0.00  0.00    +0.061 A 
ATOM     12  S   UNL     1      -1.204   1.912   6.018  0.00  0.00    -0.050 S 
ATOM     13 CL   UNL     1       1.666  -0.060   6.320  0.00  0.00    -0.082 Cl
BRANCH   7  14
ATOM     14  O   UNL     1      -0.682   1.547   1.184  0.00  0.00    -0.493 OA
ATOM     15  C   UNL     1      -0.013   1.086   0.008  0.00  0.00    +0.277 C 
ENDBRANCH   7  14
BRANCH   5  16
ATOM     16  C   UNL     1      -2.612   2.875   2.548  0.00  0.00    +0.152 C 
BRANCH  16  17
ATOM     17  C   UNL     1      -3.679   1.857   2.139  0.00  0.00    +0.181 C 
BRANCH  17  18
ATOM     18  O   UNL     1      -4.378   2.335   0.988  0.00  0.00    -0.381 OA
ATOM     19  C   UNL     1      -5.401   1.453   0.522  0.00  0.00    +0.194 C 
ENDBRANCH  17  18
ENDBRANCH  16  17
ENDBRANCH   5  16
ENDBRANCH   1   3
BRANCH   1  23
ATOM     20  C   UNL     1      -7.084   5.957   7.672  0.00  0.00    +0.106 A 
ATOM     21  C   UNL     1      -6.284   5.408   8.659  0.00  0.00    +0.029 A 
ATOM     22  C   UNL     1      -5.183   4.650   8.317  0.00  0.00    +0.015 A 
ATOM     23  C   UNL     1      -4.877   4.438   6.973  0.00  0.00    +0.039 A 
ATOM     24  C   UNL     1      -5.684   4.998   5.982  0.00  0.00    +0.015 A 
ATOM     25  C   UNL     1      -6.785   5.750   6.337  0.00  0.00    +0.029 A 
BRANCH  20  26
ATOM     26  S   UNL     1      -8.488   6.924   8.118  0.00  0.00    +0.061 S 
ATOM     27  O   UNL     1      -9.384   6.870   7.016  0.00  0.00    -0.153 OA
ATOM     28  O   UNL     1      -8.863   6.516   9.426  0.00  0.00    -0.153 OA
BRANCH  26  29
ATOM     29  N   UNL     1      -7.981   8.496   8.239  0.00  0.00    -0.180 NA
ATOM     30  C   UNL     1      -8.022   9.371   7.066  0.00  0.00    +0.131 C 
BRANCH  29  31
ATOM     31  C   UNL     1      -7.491   9.011   9.521  0.00  0.00    +0.109 C 
BRANCH  31  32
ATOM     32  C   UNL     1      -5.966   8.899   9.566  0.00  0.00    +0.017 C 
BRANCH  32  34
ATOM     33  C   UNL     1      -3.930   9.324  10.950  0.00  0.00    +0.004 C 
ATOM     34  C   UNL     1      -5.455   9.436  10.905  0.00  0.00    -0.002 C 
ENDBRANCH  32  34
ENDBRANCH  31  32
ENDBRANCH  29  31
ENDBRANCH  26  29
ENDBRANCH  20  26
ENDBRANCH   1  23
TORSDOF 11
