REMARK  Name = ZINC12780788
REMARK  8 active torsions:
REMARK  status: ('A' for Active; 'I' for Inactive)
REMARK    1  A    between atoms: C_1  and  C_2
REMARK    2  A    between atoms: C_2  and  C_24
REMARK    3  A    between atoms: N_5  and  C_9
REMARK    4  A    between atoms: C_9  and  C_10
REMARK    5  A    between atoms: N_12  and  C_13
REMARK    6  A    between atoms: C_18  and  S_19
REMARK    7  A    between atoms: S_19  and  C_20
REMARK    8  A    between atoms: C_20  and  C_21
REMARK                            x       y       z     vdW  Elec       q    Type
REMARK                         _______ _______ _______ _____ _____    ______ ____
ROOT
ATOM      1  C   UNL     1       1.457   9.988  -1.504  0.00  0.00    +0.047 C 
ATOM      2  C   UNL     1       2.857   9.553  -1.065  0.00  0.00    +0.135 C 
ATOM      3  C   UNL     1       3.124   8.114  -1.459  0.00  0.00    +0.251 C 
ATOM      4  O   UNL     1       3.149   7.654  -2.580  0.00  0.00    -0.272 OA
ATOM      5  N   UNL     1       3.328   7.452  -0.303  0.00  0.00    -0.215 N 
ATOM      6  C   UNL     1       3.234   8.266   0.755  0.00  0.00    +0.310 C 
ATOM      7  O   UNL     1       3.383   7.900   1.904  0.00  0.00    -0.252 OA
ATOM      8  N   UNL     1       2.957   9.535   0.404  0.00  0.00    -0.281 N 
ATOM      9  H   UNL     1       2.846  10.290   1.002  0.00  0.00    +0.152 HD
ENDROOT
BRANCH   2  10
ATOM     10  C   UNL     1       3.903  10.463  -1.657  0.00  0.00    -0.012 A 
ATOM     11  C   UNL     1       4.439  10.181  -2.899  0.00  0.00    +0.010 A 
ATOM     12  C   UNL     1       5.399  11.012  -3.449  0.00  0.00    +0.050 A 
ATOM     13  C   UNL     1       5.821  12.130  -2.749  0.00  0.00    +0.162 A 
ATOM     14  C   UNL     1       5.283  12.413  -1.502  0.00  0.00    +0.162 A 
ATOM     15  C   UNL     1       4.319  11.582  -0.957  0.00  0.00    +0.055 A 
ATOM     16  O   UNL     1       5.706  13.517  -0.820  0.00  0.00    -0.488 OA
ATOM     17  C   UNL     1       7.054  13.481  -0.347  0.00  0.00    +0.232 C 
ATOM     18  C   UNL     1       8.019  13.921  -1.436  0.00  0.00    +0.082 C 
ATOM     19  C   UNL     1       8.033  12.965  -2.619  0.00  0.00    +0.232 C 
ATOM     20  O   UNL     1       6.766  12.958  -3.280  0.00  0.00    -0.488 OA
ENDBRANCH   2  10
BRANCH   5  21
ATOM     21  C   UNL     1       3.621   6.019  -0.215  0.00  0.00    +0.214 C 
BRANCH  21  22
ATOM     22  C   UNL     1       2.331   5.249  -0.094  0.00  0.00    +0.235 C 
ATOM     23  O   UNL     1       1.272   5.839  -0.082  0.00  0.00    -0.274 OA
ATOM     24  N   UNL     1       2.356   3.905   0.001  0.00  0.00    -0.283 N 
ATOM     25  H   UNL     1       3.203   3.439   0.071  0.00  0.00    +0.155 HD
BRANCH  24  26
ATOM     26  C   UNL     1       1.156   3.180  -0.004  0.00  0.00    +0.047 A 
ATOM     27  C   UNL     1       0.023   3.715  -0.597  0.00  0.00    +0.024 A 
ATOM     28  C   UNL     1      -1.160   2.999  -0.600  0.00  0.00    +0.002 A 
ATOM     29  C   UNL     1      -1.216   1.746  -0.016  0.00  0.00    +0.001 A 
ATOM     30  C   UNL     1      -0.093   1.208   0.583  0.00  0.00    +0.016 A 
ATOM     31  C   UNL     1       1.098   1.919   0.591  0.00  0.00    +0.030 A 
BRANCH  31  32
ATOM     32  S   UNL     1       2.534   1.232   1.347  0.00  0.00    -0.114 S 
BRANCH  32  33
ATOM     33  C   UNL     1       1.976  -0.380   1.963  0.00  0.00    +0.169 C 
BRANCH  33  34
ATOM     34  C   UNL     1       3.123  -1.083   2.642  0.00  0.00    +0.221 C 
ATOM     35  O   UNL     1       4.210  -0.549   2.704  0.00  0.00    -0.275 OA
ATOM     36  N   UNL     1       2.941  -2.305   3.180  0.00  0.00    -0.329 N 
ATOM     37  H   UNL     1       2.072  -2.733   3.130  0.00  0.00    +0.145 HD
ATOM     38  H   UNL     1       3.680  -2.757   3.617  0.00  0.00    +0.145 HD
ENDBRANCH  33  34
ENDBRANCH  32  33
ENDBRANCH  31  32
ENDBRANCH  24  26
ENDBRANCH  21  22
ENDBRANCH   5  21
TORSDOF 7
