REMARK  Name = ZINC01481061
REMARK  8 active torsions:
REMARK  status: ('A' for Active; 'I' for Inactive)
REMARK    1  A    between atoms: C_1  and  C_2
REMARK    2  A    between atoms: C_5  and  C_11
REMARK    3  A    between atoms: C_7  and  N_8
REMARK    4  A    between atoms: C_16  and  C_21
REMARK    5  A    between atoms: C_24  and  O_29
REMARK    6  A    between atoms: C_25  and  O_27
REMARK    7  A    between atoms: O_27  and  C_28
REMARK    8  A    between atoms: O_29  and  C_30
REMARK                            x       y       z     vdW  Elec       q    Type
REMARK                         _______ _______ _______ _____ _____    ______ ____
ROOT
ATOM      1  C   UNL     1       3.394   1.790  -1.651  0.00  0.00    +0.136 C 
ATOM      2  C   UNL     1       4.037   2.995  -2.297  0.00  0.00    +0.036 C 
ATOM      3  C   UNL     1       3.762   4.279  -2.017  0.00  0.00    +0.017 C 
ATOM      4  C   UNL     1       4.462   5.397  -2.773  0.00  0.00    +0.059 C 
ATOM      5  C   UNL     1       5.884   4.969  -3.132  0.00  0.00    +0.032 C 
ATOM      6  C   UNL     1       5.786   3.717  -4.012  0.00  0.00    +0.088 C 
ATOM      7  C   UNL     1       5.009   2.670  -3.272  0.00  0.00    +0.163 C 
ATOM      8  O   UNL     1       5.223   1.500  -3.519  0.00  0.00    -0.292 OA
ATOM      9  N   UNL     1       2.867   4.697  -1.087  0.00  0.00    -0.316 N 
ATOM     10  C   UNL     1       1.578   4.194  -0.945  0.00  0.00    +0.052 A 
ATOM     11  C   UNL     1       0.453   4.974  -1.149  0.00  0.00    +0.025 A 
ATOM     12  C   UNL     1      -0.800   4.427  -0.933  0.00  0.00    +0.002 A 
ATOM     13  C   UNL     1      -0.927   3.112  -0.523  0.00  0.00    +0.002 A 
ATOM     14  C   UNL     1       0.197   2.328  -0.329  0.00  0.00    +0.025 A 
ATOM     15  C   UNL     1       1.452   2.868  -0.559  0.00  0.00    +0.049 A 
ATOM     16  N   UNL     1       2.606   2.090  -0.475  0.00  0.00    -0.331 N 
ATOM     17  H   UNL     1       3.146   5.398  -0.477  0.00  0.00    +0.152 HD
ATOM     18  H   UNL     1       2.885   1.744   0.387  0.00  0.00    +0.147 HD
ENDROOT
BRANCH   1  23
ATOM     19  C   UNL     1      -0.022  -0.771  -5.545  0.00  0.00    +0.046 C 
ATOM     20  C   UNL     1       0.869  -0.103  -4.530  0.00  0.00    -0.020 A 
ATOM     21  C   UNL     1       1.966  -0.776  -4.024  0.00  0.00    +0.006 A 
ATOM     22  C   UNL     1       2.786  -0.161  -3.096  0.00  0.00    +0.006 A 
ATOM     23  C   UNL     1       2.503   1.122  -2.667  0.00  0.00    -0.021 A 
ATOM     24  C   UNL     1       1.406   1.794  -3.172  0.00  0.00    +0.038 A 
ATOM     25  C   UNL     1       0.589   1.182  -4.104  0.00  0.00    +0.129 A 
BRANCH  25  26
ATOM     26  N   UNL     1      -0.585   1.902  -4.646  0.00  0.00    +0.057 N 
ATOM     27  O   UNL     1      -0.894   1.769  -5.816  0.00  0.00    -0.126 OA
ATOM     28  O   UNL     1      -1.242   2.627  -3.921  0.00  0.00    -0.126 OA
ENDBRANCH  25  26
ENDBRANCH   1  23
BRANCH   5  29
ATOM     29  C   UNL     1       6.576   6.073  -3.889  0.00  0.00    -0.040 A 
ATOM     30  C   UNL     1       6.034   6.543  -5.071  0.00  0.00    +0.008 A 
ATOM     31  C   UNL     1       6.664   7.556  -5.769  0.00  0.00    +0.049 A 
ATOM     32  C   UNL     1       7.841   8.103  -5.285  0.00  0.00    +0.161 A 
ATOM     33  C   UNL     1       8.387   7.630  -4.095  0.00  0.00    +0.162 A 
ATOM     34  C   UNL     1       7.747   6.618  -3.397  0.00  0.00    +0.053 A 
BRANCH  33  35
ATOM     35  O   UNL     1       9.542   8.163  -3.615  0.00  0.00    -0.491 OA
ATOM     36  C   UNL     1      10.044   7.628  -2.389  0.00  0.00    +0.277 C 
ENDBRANCH  33  35
BRANCH  32  37
ATOM     37  O   UNL     1       8.462   9.101  -5.970  0.00  0.00    -0.491 OA
ATOM     38  C   UNL     1       7.845   9.536  -7.182  0.00  0.00    +0.277 C 
ENDBRANCH  32  37
ENDBRANCH   5  29
TORSDOF 5
