REMARK  Name = ZINC09409471
REMARK  13 active torsions:
REMARK  status: ('A' for Active; 'I' for Inactive)
REMARK    1  A    between atoms: C_1  and  C_2
REMARK    2  A    between atoms: C_6  and  C_27
REMARK    3  A    between atoms: C_7  and  C_11
REMARK    4  A    between atoms: C_11  and  C_12
REMARK    5  A    between atoms: N_14  and  C_15
REMARK    6  A    between atoms: C_15  and  C_16
REMARK    7  A    between atoms: C_16  and  C_17
REMARK    8  A    between atoms: C_20  and  S_23
REMARK    9  A    between atoms: S_23  and  N_26
REMARK   10  A    between atoms: C_28  and  O_30
REMARK   11  A    between atoms: O_30  and  C_31
REMARK   12  A    between atoms: C_31  and  C_32
REMARK   13  A    between atoms: C_32  and  C_34
REMARK                            x       y       z     vdW  Elec       q    Type
REMARK                         _______ _______ _______ _____ _____    ______ ____
ROOT
ATOM      1  C   UNL     1      -1.049   6.446   0.547  0.00  0.00    +0.138 C 
ENDROOT
BRANCH   1   8
ATOM      2  C   UNL     1       4.798   1.255  -1.032  0.00  0.00    +0.044 C 
ATOM      3  C   UNL     1       3.543   2.042  -0.755  0.00  0.00    -0.043 A 
ATOM      4  C   UNL     1       3.629   3.397  -0.503  0.00  0.00    +0.050 A 
ATOM      5  C   UNL     1       2.480   4.131  -0.247  0.00  0.00    +0.143 A 
ATOM      6  C   UNL     1       1.230   3.485  -0.252  0.00  0.00    +0.062 A 
ATOM      7  C   UNL     1       0.025   4.268   0.023  0.00  0.00    -0.026 A 
ATOM      8  C   UNL     1       0.164   5.598   0.264  0.00  0.00    +0.049 A 
ATOM      9  C   UNL     1       1.447   6.182   0.249  0.00  0.00    +0.341 A 
ATOM     10  O   UNL     1       1.559   7.375   0.467  0.00  0.00    -0.245 OA
ATOM     11  O   UNL     1       2.549   5.457   0.001  0.00  0.00    -0.422 OA
ATOM     12  C   UNL     1      -1.335   3.618   0.033  0.00  0.00    +0.045 C 
ATOM     13  C   UNL     1       1.156   2.107  -0.505  0.00  0.00    +0.132 A 
ATOM     14  C   UNL     1       2.317   1.398  -0.758  0.00  0.00    +0.050 A 
BRANCH  13  15
ATOM     15  O   UNL     1      -0.045   1.475  -0.508  0.00  0.00    -0.487 OA
BRANCH  15  16
ATOM     16  C   UNL     1      -0.040   0.072  -0.779  0.00  0.00    +0.259 C 
BRANCH  16  17
ATOM     17  C   UNL     1      -1.452  -0.452  -0.740  0.00  0.00    -0.043 C 
ATOM     18  C   UNL     1      -2.446   0.362  -0.484  0.00  0.00    +0.011 C 
ATOM     19  C   UNL     1      -1.721  -1.913  -0.996  0.00  0.00    +0.042 C 
ENDBRANCH  16  17
ENDBRANCH  15  16
ENDBRANCH  13  15
ENDBRANCH   1   8
BRANCH   1  20
ATOM     20  C   UNL     1      -1.591   6.995  -0.747  0.00  0.00    +0.218 C 
ATOM     21  O   UNL     1      -1.046   6.724  -1.796  0.00  0.00    -0.275 OA
ATOM     22  N   UNL     1      -2.681   7.787  -0.740  0.00  0.00    -0.315 N 
ATOM     23  H   UNL     1      -3.118   8.003   0.100  0.00  0.00    +0.149 HD
BRANCH  22  24
ATOM     24  C   UNL     1      -3.208   8.321  -1.998  0.00  0.00    +0.109 C 
BRANCH  24  25
ATOM     25  C   UNL     1      -4.440   9.182  -1.711  0.00  0.00    +0.054 C 
BRANCH  25  26
ATOM     26  C   UNL     1      -4.982   9.731  -3.006  0.00  0.00    -0.046 A 
ATOM     27  C   UNL     1      -4.534  10.949  -3.481  0.00  0.00    +0.005 A 
ATOM     28  C   UNL     1      -5.027  11.451  -4.671  0.00  0.00    +0.029 A 
ATOM     29  C   UNL     1      -5.976  10.738  -5.380  0.00  0.00    +0.105 A 
ATOM     30  C   UNL     1      -6.428   9.523  -4.902  0.00  0.00    +0.029 A 
ATOM     31  C   UNL     1      -5.931   9.019  -3.715  0.00  0.00    +0.005 A 
BRANCH  29  32
ATOM     32  S   UNL     1      -6.609  11.380  -6.894  0.00  0.00    +0.056 S 
ATOM     33  O   UNL     1      -5.625  12.273  -7.399  0.00  0.00    -0.153 OA
ATOM     34  O   UNL     1      -7.082  10.267  -7.641  0.00  0.00    -0.153 OA
BRANCH  32  35
ATOM     35  N   UNL     1      -7.935  12.298  -6.521  0.00  0.00    -0.204 NA
ATOM     36  H   UNL     1      -8.216  12.391  -5.597  0.00  0.00    +0.144 HD
ATOM     37  H   UNL     1      -8.431  12.743  -7.226  0.00  0.00    +0.144 HD
ENDBRANCH  32  35
ENDBRANCH  29  32
ENDBRANCH  25  26
ENDBRANCH  24  25
ENDBRANCH  22  24
ENDBRANCH   1  20
TORSDOF 10
