REMARK  Name = ZINC33438806
REMARK  5 active torsions:
REMARK  status: ('A' for Active; 'I' for Inactive)
REMARK    1  A    between atoms: C_6  and  C_7
REMARK    2  A    between atoms: N_15  and  C_18
REMARK    3  A    between atoms: C_24  and  C_26
REMARK    4  A    between atoms: C_24  and  C_33
REMARK    5  A    between atoms: C_26  and  C_27
REMARK                            x       y       z     vdW  Elec       q    Type
REMARK                         _______ _______ _______ _____ _____    ______ ____
ROOT
ATOM      1  C   UNL     1      -0.969  -0.789   0.367  0.00  0.00    -0.027 C 
ATOM      2  C   UNL     1      -1.548  -1.541   1.553  0.00  0.00    +0.077 C 
ATOM      3  C   UNL     1      -0.884  -2.946   1.285  0.00  0.00    +0.086 C 
ATOM      4  C   UNL     1      -1.061  -3.601   2.557  0.00  0.00    +0.225 C 
ATOM      5  O   UNL     1      -1.260  -4.779   2.758  0.00  0.00    -0.275 OA
ATOM      6  N   UNL     1      -0.955  -2.600   3.491  0.00  0.00    -0.239 N 
ATOM      7  C   UNL     1      -1.020  -1.340   2.939  0.00  0.00    +0.225 C 
ATOM      8  O   UNL     1      -0.713  -0.289   3.458  0.00  0.00    -0.275 OA
ATOM      9  C   UNL     1      -1.177  -3.154  -0.143  0.00  0.00    +0.048 C 
ATOM     10  N   UNL     1      -0.853  -1.796  -0.731  0.00  0.00    +0.395 N 
ATOM     11  H   UNL     1      -1.511  -1.579  -1.464  0.00  0.00    -0.083 HD
ATOM     12  H   UNL     1       0.086  -1.791  -1.101  0.00  0.00    -0.083 HD
ENDROOT
BRANCH   1  18
ATOM     13  C   UNL     1       1.510  -1.039   0.604  0.00  0.00    +0.003 A 
ATOM     14  C   UNL     1       2.757  -0.532   0.921  0.00  0.00    +0.015 A 
ATOM     15  C   UNL     1       2.883   0.777   1.349  0.00  0.00    +0.018 A 
ATOM     16  C   UNL     1       1.761   1.580   1.458  0.00  0.00    +0.015 A 
ATOM     17  C   UNL     1       0.515   1.073   1.140  0.00  0.00    +0.003 A 
ATOM     18  C   UNL     1       0.390  -0.236   0.713  0.00  0.00    -0.061 A 
ATOM     19 BR   UNL     1       4.587   1.470   1.784  0.00  0.00    -0.050 Br
ENDBRANCH   1  18
BRANCH   6  20
ATOM     20  C   UNL     1      -0.801  -2.844   4.928  0.00  0.00    +0.084 C 
ATOM     21  C   UNL     1      -1.973  -2.212   5.681  0.00  0.00    +0.023 C 
ATOM     22  C   UNL     1      -1.811  -2.466   7.181  0.00  0.00    +0.002 C 
ATOM     23  C   UNL     1      -0.499  -1.846   7.666  0.00  0.00    +0.000 C 
ATOM     24  C   UNL     1       0.672  -2.478   6.912  0.00  0.00    +0.002 C 
ATOM     25  C   UNL     1       0.511  -2.224   5.412  0.00  0.00    +0.023 C 
ENDBRANCH   6  20
BRANCH   9  26
ATOM     26  C   UNL     1      -2.626  -3.513  -0.346  0.00  0.00    +0.346 C 
ATOM     27  O   UNL     1      -3.339  -2.804  -1.036  0.00  0.00    -0.248 OA
ATOM     28  O   UNL     1      -3.086  -4.513   0.179  0.00  0.00    -0.248 OA
ENDBRANCH   9  26
BRANCH   9  29
ATOM     29  C   UNL     1      -0.261  -4.227  -0.735  0.00  0.00    +0.003 C 
BRANCH  29  30
ATOM     30  C   UNL     1      -0.675  -4.511  -2.180  0.00  0.00    -0.012 C 
ATOM     31  C   UNL     1      -0.381  -3.285  -3.046  0.00  0.00    +0.003 C 
ATOM     32  C   UNL     1      -0.796  -3.569  -4.491  0.00  0.00    +0.000 C 
ATOM     33  C   UNL     1      -0.008  -4.768  -5.021  0.00  0.00    +0.000 C 
ATOM     34  C   UNL     1      -0.302  -5.995  -4.155  0.00  0.00    +0.000 C 
ATOM     35  C   UNL     1       0.113  -5.711  -2.710  0.00  0.00    +0.003 C 
ENDBRANCH  29  30
ENDBRANCH   9  29
TORSDOF 5
