REMARK  Name = ZINC63809062
REMARK  1 active torsions:
REMARK  status: ('A' for Active; 'I' for Inactive)
REMARK    1  A    between atoms: C_8  and  C_10
REMARK                            x       y       z     vdW  Elec       q    Type
REMARK                         _______ _______ _______ _____ _____    ______ ____
ROOT
ATOM      1  C   UNL     1      -4.613  -3.034  -0.205  0.00  0.00    +0.039 A 
ATOM      2  C   UNL     1      -5.866  -2.400  -0.200  0.00  0.00    +0.014 A 
ATOM      3  C   UNL     1      -7.014  -3.126  -0.299  0.00  0.00    +0.016 A 
ATOM      4  C   UNL     1      -6.951  -4.522  -0.408  0.00  0.00    +0.065 A 
ATOM      5  C   UNL     1      -5.691  -5.176  -0.415  0.00  0.00    +0.080 A 
ATOM      6  C   UNL     1      -4.519  -4.411  -0.317  0.00  0.00    +0.041 A 
ATOM      7  N   UNL     1      -5.648  -6.512  -0.520  0.00  0.00    -0.223 NA
ATOM      8  C   UNL     1      -6.763  -7.219  -0.617  0.00  0.00    +0.180 A 
ATOM      9  N   UNL     1      -7.980  -6.648  -0.616  0.00  0.00    -0.301 N 
ATOM     10  H   UNL     1      -8.770  -7.206  -0.690  0.00  0.00    +0.171 HD
ATOM     11  C   UNL     1      -8.118  -5.309  -0.513  0.00  0.00    +0.260 A 
ATOM     12  O   UNL     1      -9.335  -4.739  -0.512  0.00  0.00    -0.267 OA
ATOM     13  S   UNL     1      -6.652  -8.922  -0.750  0.00  0.00    -0.011 S 
ENDROOT
BRANCH   1  21
ATOM     14  C   UNL     1      -0.017   1.376   0.010  0.00  0.00    +0.021 A 
ATOM     15  C   UNL     1      -1.236   2.040  -0.021  0.00  0.00    +0.056 A 
ATOM     16  C   UNL     1      -2.400   1.285  -0.020  0.00  0.00    +0.217 A 
ATOM     17  C   UNL     1      -2.303  -0.107   0.012  0.00  0.00    +0.151 A 
ATOM     18  N   UNL     1      -1.121  -0.698   0.041  0.00  0.00    -0.346 N 
ATOM     19  C   UNL     1       0.002  -0.004   0.040  0.00  0.00    +0.084 A 
ATOM     20  N   UNL     1      -3.464  -0.880   0.014  0.00  0.00    -0.265 N 
ATOM     21  C   UNL     1      -3.380  -2.221  -0.095  0.00  0.00    +0.249 C 
ATOM     22  O   UNL     1      -2.292  -2.763  -0.104  0.00  0.00    -0.270 OA
ATOM     23  O   UNL     1      -3.616   1.892  -0.049  0.00  0.00    -0.284 OA
ATOM     24  H   UNL     1      -4.331  -0.454   0.094  0.00  0.00    +0.157 HD
ATOM     25  H   UNL     1      -1.077  -1.667   0.063  0.00  0.00    +0.167 HD
ENDBRANCH   1  21
TORSDOF 1
