REMARK  Name = ZINC39598076
REMARK  7 active torsions:
REMARK  status: ('A' for Active; 'I' for Inactive)
REMARK    1  A    between atoms: C_1  and  C_2
REMARK    2  A    between atoms: C_2  and  C_3
REMARK    3  A    between atoms: C_6  and  C_9
REMARK    4  A    between atoms: C_13  and  C_22
REMARK    5  A    between atoms: N_24  and  C_25
REMARK    6  A    between atoms: N_28  and  C_31
REMARK    7  A    between atoms: C_31  and  C_32
REMARK                            x       y       z     vdW  Elec       q    Type
REMARK                         _______ _______ _______ _____ _____    ______ ____
ROOT
ATOM      1  C   UNL     1       2.783  -1.911   4.662  0.00  0.00    +0.247 C 
ATOM      2  O   UNL     1       3.963  -2.195   4.591  0.00  0.00    -0.270 OA
ATOM      3  N   UNL     1       2.123  -2.060   5.828  0.00  0.00    -0.296 N 
ATOM      4  C   UNL     1       0.672  -1.892   6.078  0.00  0.00    +0.121 C 
ATOM      5  C   UNL     1       0.312  -3.027   7.062  0.00  0.00    +0.100 C 
ATOM      6  C   UNL     1       1.636  -3.373   7.763  0.00  0.00    -0.004 C 
ATOM      7  C   UNL     1       2.684  -2.435   7.148  0.00  0.00    +0.115 C 
ATOM      8  C   UNL     1       2.014  -4.826   7.491  0.00  0.00    -0.010 C 
ATOM      9  C   UNL     1       3.303  -5.163   8.245  0.00  0.00    -0.082 C 
ATOM     10  N   UNL     1       3.101  -4.950   9.684  0.00  0.00    +0.379 N 
ATOM     11  C   UNL     1       2.829  -3.532   9.946  0.00  0.00    -0.082 C 
ATOM     12  C   UNL     1       1.520  -3.126   9.264  0.00  0.00    -0.010 C 
ATOM     13  H   UNL     1       2.319  -5.505   9.998  0.00  0.00    -0.086 HD
ATOM     14  H   UNL     1       3.931  -5.231  10.184  0.00  0.00    -0.086 HD
ENDROOT
BRANCH   1  18
ATOM     15  C   UNL     1       0.740  -0.451   1.236  0.00  0.00    -0.048 A 
ATOM     16  C   UNL     1       1.872  -1.232   1.082  0.00  0.00    +0.004 A 
ATOM     17  C   UNL     1       2.540  -1.709   2.191  0.00  0.00    +0.013 A 
ATOM     18  C   UNL     1       2.072  -1.402   3.470  0.00  0.00    +0.037 A 
ATOM     19  C   UNL     1       0.930  -0.614   3.618  0.00  0.00    +0.013 A 
ATOM     20  C   UNL     1       0.275  -0.139   2.501  0.00  0.00    +0.004 A 
BRANCH  15  22
ATOM     21  C   UNL     1       0.595   1.425  -0.379  0.00  0.00    +0.009 C 
ATOM     22  C   UNL     1       0.015   0.067   0.021  0.00  0.00    +0.032 C 
ENDBRANCH  15  22
ENDBRANCH   1  18
BRANCH   5  23
ATOM     23  C   UNL     1      -0.706  -2.548   8.065  0.00  0.00    +0.218 C 
ATOM     24  O   UNL     1      -0.789  -1.367   8.328  0.00  0.00    -0.275 OA
ATOM     25  N   UNL     1      -1.524  -3.433   8.670  0.00  0.00    -0.312 N 
ATOM     26  H   UNL     1      -1.457  -4.377   8.459  0.00  0.00    +0.149 HD
BRANCH  25  27
ATOM     27  C   UNL     1      -2.513  -2.967   9.645  0.00  0.00    +0.069 C 
ATOM     28  C   UNL     1      -1.861  -2.863  11.026  0.00  0.00    +0.003 C 
ATOM     29  C   UNL     1      -2.919  -2.453  12.054  0.00  0.00    -0.077 C 
ATOM     30  N   UNL     1      -3.987  -3.459  12.090  0.00  0.00    +0.382 N 
ATOM     31  C   UNL     1      -4.664  -3.514  10.789  0.00  0.00    -0.077 C 
ATOM     32  C   UNL     1      -3.674  -3.965   9.713  0.00  0.00    +0.003 C 
ATOM     33  H   UNL     1      -3.589  -4.363  12.299  0.00  0.00    -0.081 HD
BRANCH  30  34
ATOM     34  C   UNL     1      -4.959  -3.102  13.132  0.00  0.00    -0.043 C 
BRANCH  34  35
ATOM     35  C   UNL     1      -5.989  -4.196  13.254  0.00  0.00    -0.064 A 
ATOM     36  C   UNL     1      -7.137  -4.153  12.485  0.00  0.00    +0.002 A 
ATOM     37  C   UNL     1      -8.081  -5.157  12.597  0.00  0.00    +0.000 A 
ATOM     38  C   UNL     1      -7.877  -6.202  13.478  0.00  0.00    +0.000 A 
ATOM     39  C   UNL     1      -6.729  -6.245  14.246  0.00  0.00    +0.000 A 
ATOM     40  C   UNL     1      -5.782  -5.245  14.131  0.00  0.00    +0.002 A 
ENDBRANCH  34  35
ENDBRANCH  30  34
ENDBRANCH  25  27
ENDBRANCH   5  23
TORSDOF 6
