REMARK  Name = ZINC00630898
REMARK  4 active torsions:
REMARK  status: ('A' for Active; 'I' for Inactive)
REMARK    1  A    between atoms: C_1  and  O_2
REMARK    2  A    between atoms: O_2  and  C_3
REMARK    3  A    between atoms: C_6  and  C_9
REMARK    4  A    between atoms: C_14  and  C_24
REMARK                            x       y       z     vdW  Elec       q    Type
REMARK                         _______ _______ _______ _____ _____    ______ ____
ROOT
ATOM      1  C   UNL     1       2.412   3.989  -0.172  0.00  0.00    +0.032 C 
ATOM      2  C   UNL     1       2.527   4.922  -1.377  0.00  0.00    +0.059 C 
ATOM      3  C   UNL     1       3.841   5.684  -1.315  0.00  0.00    +0.017 C 
ATOM      4  C   UNL     1       4.368   6.033  -0.131  0.00  0.00    +0.036 C 
ATOM      5  C   UNL     1       5.641   6.819   0.075  0.00  0.00    +0.137 C 
ATOM      6  N   UNL     1       6.448   6.976  -1.117  0.00  0.00    -0.331 N 
ATOM      7  C   UNL     1       5.980   7.699  -2.213  0.00  0.00    +0.049 A 
ATOM      8  C   UNL     1       6.554   8.905  -2.582  0.00  0.00    +0.025 A 
ATOM      9  C   UNL     1       5.990   9.640  -3.610  0.00  0.00    +0.002 A 
ATOM     10  C   UNL     1       4.864   9.177  -4.266  0.00  0.00    +0.002 A 
ATOM     11  C   UNL     1       4.301   7.962  -3.914  0.00  0.00    +0.025 A 
ATOM     12  C   UNL     1       4.874   7.218  -2.898  0.00  0.00    +0.052 A 
ATOM     13  N   UNL     1       4.387   5.970  -2.525  0.00  0.00    -0.316 N 
ATOM     14  C   UNL     1       3.726   5.660   1.073  0.00  0.00    +0.163 C 
ATOM     15  O   UNL     1       4.216   6.006   2.130  0.00  0.00    -0.292 OA
ATOM     16  C   UNL     1       2.463   4.853   1.094  0.00  0.00    +0.088 C 
ATOM     17  H   UNL     1       7.328   6.571  -1.153  0.00  0.00    +0.147 HD
ATOM     18  H   UNL     1       4.440   5.253  -3.175  0.00  0.00    +0.152 HD
ENDROOT
BRANCH   5  19
ATOM     19  C   UNL     1       5.279   8.188   0.591  0.00  0.00    -0.005 A 
ATOM     20  C   UNL     1       3.985   8.655   0.459  0.00  0.00    +0.056 A 
ATOM     21  C   UNL     1       3.648   9.911   0.937  0.00  0.00    +0.167 A 
ATOM     22  C   UNL     1       4.620  10.706   1.541  0.00  0.00    +0.167 A 
ATOM     23  C   UNL     1       5.916  10.235   1.665  0.00  0.00    +0.065 A 
ATOM     24  C   UNL     1       6.244   8.977   1.190  0.00  0.00    +0.027 A 
ATOM     25 BR   UNL     1       8.015   8.337   1.361  0.00  0.00    -0.050 Br
ATOM     26  O   UNL     1       4.046  11.886   1.917  0.00  0.00    -0.453 OA
ATOM     27  C   UNL     1       2.627  11.643   1.907  0.00  0.00    +0.466 C 
ATOM     28  O   UNL     1       2.466  10.593   0.935  0.00  0.00    -0.453 OA
ENDBRANCH   5  19
BRANCH   1  32
ATOM     29  C   UNL     1      -1.294   1.868  -0.337  0.00  0.00    +0.120 A 
ATOM     30  C   UNL     1      -0.096   1.171  -0.302  0.00  0.00    +0.046 A 
ATOM     31  C   UNL     1       1.101   1.859  -0.251  0.00  0.00    +0.007 A 
ATOM     32  C   UNL     1       1.105   3.241  -0.228  0.00  0.00    -0.043 A 
ATOM     33  C   UNL     1      -0.088   3.939  -0.257  0.00  0.00    +0.007 A 
ATOM     34  C   UNL     1      -1.288   3.255  -0.309  0.00  0.00    +0.046 A 
BRANCH  29  36
ATOM     35  C   UNL     1      -3.667   1.977  -0.426  0.00  0.00    +0.277 C 
ATOM     36  O   UNL     1      -2.473   1.194  -0.393  0.00  0.00    -0.495 OA
ENDBRANCH  29  36
ENDBRANCH   1  32
TORSDOF 3
