REMARK  Name = ZINC01785260
REMARK  12 active torsions:
REMARK  status: ('A' for Active; 'I' for Inactive)
REMARK    1  A    between atoms: C_1  and  C_2
REMARK    2  A    between atoms: C_2  and  O_3
REMARK    3  A    between atoms: O_3  and  C_4
REMARK    4  A    between atoms: C_7  and  N_10
REMARK    5  A    between atoms: C_11  and  C_13
REMARK    6  A    between atoms: C_13  and  C_15
REMARK    7  A    between atoms: C_13  and  O_16
REMARK    8  A    between atoms: O_16  and  C_17
REMARK    9  A    between atoms: C_20  and  C_23
REMARK   10  A    between atoms: N_25  and  C_26
REMARK   11  A    between atoms: C_27  and  C_37
REMARK   12  A    between atoms: C_32  and  C_36
REMARK                            x       y       z     vdW  Elec       q    Type
REMARK                         _______ _______ _______ _____ _____    ______ ____
ROOT
ATOM      1  C   UNL     1       1.221   6.212  -0.297  0.00  0.00    +0.122 A 
ATOM      2  C   UNL     1       2.407   5.587   0.073  0.00  0.00    +0.046 A 
ATOM      3  C   UNL     1       2.494   4.213   0.071  0.00  0.00    +0.016 A 
ATOM      4  C   UNL     1       1.387   3.446  -0.304  0.00  0.00    +0.037 A 
ATOM      5  C   UNL     1       0.199   4.077  -0.681  0.00  0.00    +0.016 A 
ATOM      6  C   UNL     1       0.119   5.452  -0.671  0.00  0.00    +0.046 A 
ENDROOT
BRANCH   4   7
ATOM      7  C   UNL     1       1.476   1.973  -0.309  0.00  0.00    +0.249 C 
ATOM      8  O   UNL     1       2.512   1.425   0.015  0.00  0.00    -0.270 OA
ATOM      9  N   UNL     1       0.408   1.235  -0.671  0.00  0.00    -0.275 N 
ATOM     10  H   UNL     1      -0.417   1.672  -0.933  0.00  0.00    +0.156 HD
BRANCH   9  11
ATOM     11  C   UNL     1       0.491  -0.148  -0.675  0.00  0.00    +0.085 A 
ATOM     12  C   UNL     1      -0.491  -1.070  -1.007  0.00  0.00    +0.068 A 
ATOM     13  C   UNL     1      -0.144  -2.479  -0.931  0.00  0.00    -0.023 A 
ATOM     14  C   UNL     1       1.119  -2.739  -0.528  0.00  0.00    -0.004 A 
ATOM     15  S   UNL     1       1.845  -1.147  -0.258  0.00  0.00    -0.077 S 
ATOM     16  C   UNL     1       1.752  -4.085  -0.353  0.00  0.00    +0.046 C 
ATOM     17  C   UNL     1       0.874  -5.128  -1.058  0.00  0.00    -0.009 C 
ATOM     18  C   UNL     1      -0.584  -4.905  -0.646  0.00  0.00    +0.008 C 
ATOM     19  C   UNL     1      -1.108  -3.610  -1.267  0.00  0.00    +0.037 C 
ATOM     20  C   UNL     1       1.317  -6.534  -0.647  0.00  0.00    +0.008 C 
BRANCH  12  21
ATOM     21  C   UNL     1      -1.829  -0.639  -1.424  0.00  0.00    +0.244 C 
ATOM     22  O   UNL     1      -2.065  -0.439  -2.601  0.00  0.00    -0.270 OA
ATOM     23  N   UNL     1      -2.798  -0.464  -0.503  0.00  0.00    -0.325 N 
ATOM     24  H   UNL     1      -2.610  -0.624   0.435  0.00  0.00    +0.145 HD
ATOM     25  H   UNL     1      -3.683  -0.179  -0.779  0.00  0.00    +0.145 HD
ENDBRANCH  12  21
ENDBRANCH   9  11
ENDBRANCH   4   7
BRANCH   1  26
ATOM     26  O   UNL     1       1.140   7.566  -0.292  0.00  0.00    -0.480 OA
BRANCH  26  27
ATOM     27  C   UNL     1       2.342   8.287  -0.016  0.00  0.00    +0.256 C 
ATOM     28  C   UNL     1       2.530   8.404   1.498  0.00  0.00    +0.062 C 
BRANCH  27  30
ATOM     29  N   UNL     1       3.313  10.494  -0.571  0.00  0.00    -0.282 N 
ATOM     30  C   UNL     1       2.251   9.666  -0.619  0.00  0.00    +0.258 C 
ATOM     31  O   UNL     1       1.221  10.030  -1.146  0.00  0.00    -0.271 OA
ATOM     32  H   UNL     1       4.159  10.177  -0.218  0.00  0.00    +0.155 HD
BRANCH  29  36
ATOM     33  C   UNL     1       2.963  14.416  -1.944  0.00  0.00    +0.121 A 
ATOM     34  C   UNL     1       1.878  13.791  -1.346  0.00  0.00    +0.047 A 
ATOM     35  C   UNL     1       1.994  12.492  -0.891  0.00  0.00    +0.027 A 
ATOM     36  C   UNL     1       3.196  11.811  -1.032  0.00  0.00    +0.034 A 
ATOM     37  C   UNL     1       4.283  12.439  -1.625  0.00  0.00    +0.027 A 
ATOM     38  C   UNL     1       4.165  13.736  -2.085  0.00  0.00    +0.047 A 
BRANCH  33  39
ATOM     39  O   UNL     1       2.849  15.694  -2.391  0.00  0.00    -0.492 OA
BRANCH  39  41
ATOM     40  C   UNL     1       3.688  17.707  -3.433  0.00  0.00    +0.048 C 
ATOM     41  C   UNL     1       4.006  16.276  -2.996  0.00  0.00    +0.225 C 
ENDBRANCH  39  41
ENDBRANCH  33  39
ENDBRANCH  29  36
ENDBRANCH  27  30
ENDBRANCH  26  27
ENDBRANCH   1  26
TORSDOF 9
