REMARK  Name = ZINC35318559
REMARK  9 active torsions:
REMARK  status: ('A' for Active; 'I' for Inactive)
REMARK    1  A    between atoms: C_1  and  C_2
REMARK    2  A    between atoms: C_3  and  C_29
REMARK    3  A    between atoms: C_4  and  N_15
REMARK    4  A    between atoms: N_5  and  C_7
REMARK    5  A    between atoms: C_16  and  C_18
REMARK    6  A    between atoms: C_18  and  C_19
REMARK    7  A    between atoms: C_19  and  C_20
REMARK    8  A    between atoms: N_22  and  C_23
REMARK    9  A    between atoms: C_23  and  C_24
REMARK                            x       y       z     vdW  Elec       q    Type
REMARK                         _______ _______ _______ _____ _____    ______ ____
ROOT
ATOM      1  C   UNL     1      -1.440   1.030   0.321  0.00  0.00    +0.068 C 
ATOM      2  C   UNL     1      -0.619  -0.219   0.129  0.00  0.00    +0.070 A 
ATOM      3  C   UNL     1      -0.769  -1.151  -0.916  0.00  0.00    +0.045 A 
ATOM      4  C   UNL     1       0.176  -2.143  -0.723  0.00  0.00    +0.137 A 
ATOM      5  N   UNL     1       0.872  -1.819   0.400  0.00  0.00    -0.217 N 
ATOM      6  N   UNL     1       0.357  -0.618   0.900  0.00  0.00    -0.169 NA
ENDROOT
BRANCH   5   7
ATOM      7  C   UNL     1       1.925  -2.558   0.957  0.00  0.00    +0.069 A 
ATOM      8  C   UNL     1       1.884  -3.946   0.941  0.00  0.00    +0.029 A 
ATOM      9  C   UNL     1       2.923  -4.673   1.490  0.00  0.00    +0.023 A 
ATOM     10  C   UNL     1       4.003  -4.019   2.056  0.00  0.00    +0.059 A 
ATOM     11  C   UNL     1       4.046  -2.635   2.074  0.00  0.00    +0.061 A 
ATOM     12  C   UNL     1       3.011  -1.904   1.520  0.00  0.00    +0.049 A 
ATOM     13 CL   UNL     1       5.402  -1.818   2.786  0.00  0.00    -0.082 Cl
ATOM     14 CL   UNL     1       5.306  -4.936   2.746  0.00  0.00    -0.082 Cl
ENDBRANCH   5   7
BRANCH   3  15
ATOM     15  C   UNL     1      -1.757  -1.083  -2.020  0.00  0.00    -0.013 A 
ATOM     16  C   UNL     1      -2.760  -2.046  -2.122  0.00  0.00    +0.008 A 
ATOM     17  C   UNL     1      -3.676  -1.977  -3.151  0.00  0.00    +0.001 A 
ATOM     18  C   UNL     1      -3.602  -0.955  -4.080  0.00  0.00    +0.000 A 
ATOM     19  C   UNL     1      -2.609   0.004  -3.984  0.00  0.00    +0.001 A 
ATOM     20  C   UNL     1      -1.691  -0.051  -2.955  0.00  0.00    +0.008 A 
ENDBRANCH   3  15
BRANCH   4  21
ATOM     21  N   UNL     1       0.377  -3.261  -1.526  0.00  0.00    -0.270 N 
ATOM     22  C   UNL     1       0.898  -3.119  -2.761  0.00  0.00    +0.219 C 
ATOM     23  O   UNL     1       1.284  -2.031  -3.135  0.00  0.00    -0.275 OA
ATOM     24  H   UNL     1       0.143  -4.143  -1.197  0.00  0.00    +0.156 HD
BRANCH  22  25
ATOM     25  C   UNL     1       1.001  -4.311  -3.677  0.00  0.00    +0.105 C 
BRANCH  25  26
ATOM     26  C   UNL     1       1.623  -3.880  -5.007  0.00  0.00    +0.105 C 
BRANCH  26  27
ATOM     27  C   UNL     1       1.725  -5.072  -5.923  0.00  0.00    +0.214 C 
ATOM     28  O   UNL     1       1.339  -6.159  -5.549  0.00  0.00    -0.276 OA
ATOM     29  N   UNL     1       2.246  -4.930  -7.158  0.00  0.00    -0.308 N 
ATOM     30  H   UNL     1       2.555  -4.060  -7.457  0.00  0.00    +0.149 HD
BRANCH  29  31
ATOM     31  C   UNL     1       2.346  -6.088  -8.049  0.00  0.00    +0.178 C 
BRANCH  31  32
ATOM     32  C   UNL     1       2.958  -5.664  -9.359  0.00  0.00    +0.122 A 
ATOM     33  C   UNL     1       4.271  -5.665  -9.650  0.00  0.00    +0.046 A 
ATOM     34  C   UNL     1       4.397  -5.194 -10.977  0.00  0.00    +0.041 A 
ATOM     35  C   UNL     1       3.153  -4.934 -11.418  0.00  0.00    +0.195 A 
ATOM     36  O   UNL     1       2.285  -5.226 -10.435  0.00  0.00    -0.466 OA
ENDBRANCH  31  32
ENDBRANCH  29  31
ENDBRANCH  26  27
ENDBRANCH  25  26
ENDBRANCH  22  25
ENDBRANCH   4  21
TORSDOF 8
