REMARK  Name = ZINC09846419
REMARK  12 active torsions:
REMARK  status: ('A' for Active; 'I' for Inactive)
REMARK    1  A    between atoms: C_1  and  C_2
REMARK    2  A    between atoms: C_2  and  C_3
REMARK    3  A    between atoms: C_3  and  C_4
REMARK    4  A    between atoms: C_4  and  N_5
REMARK    5  A    between atoms: C_8  and  C_22
REMARK    6  A    between atoms: N_12  and  C_13
REMARK    7  A    between atoms: C_16  and  O_20
REMARK    8  A    between atoms: C_22  and  C_23
REMARK    9  A    between atoms: N_25  and  C_26
REMARK   10  A    between atoms: C_29  and  O_32
REMARK   11  A    between atoms: O_32  and  C_33
REMARK   12  A    between atoms: C_33  and  C_34
REMARK                            x       y       z     vdW  Elec       q    Type
REMARK                         _______ _______ _______ _____ _____    ______ ____
ROOT
ATOM      1  N   UNL     1      -3.711  -5.850  -1.390  0.00  0.00    -0.250 N 
ATOM      2  C   UNL     1      -3.467  -5.141  -0.301  0.00  0.00    +0.235 C 
ATOM      3  O   UNL     1      -4.218  -5.144   0.651  0.00  0.00    -0.274 OA
ATOM      4  C   UNL     1      -2.185  -4.324  -0.316  0.00  0.00    +0.149 C 
ATOM      5  S   UNL     1      -1.541  -4.751  -1.982  0.00  0.00    -0.077 S 
ATOM      6  C   UNL     1      -2.859  -5.850  -2.476  0.00  0.00    +0.164 C 
ATOM      7  N   UNL     1      -2.988  -6.505  -3.606  0.00  0.00    -0.226 NA
ENDROOT
BRANCH   7   8
ATOM      8  C   UNL     1      -2.032  -6.382  -4.581  0.00  0.00    +0.069 A 
ATOM      9  C   UNL     1      -1.534  -5.123  -4.919  0.00  0.00    +0.051 A 
ATOM     10  C   UNL     1      -0.568  -5.005  -5.898  0.00  0.00    +0.086 A 
ATOM     11  C   UNL     1      -0.100  -6.135  -6.554  0.00  0.00    +0.153 A 
ATOM     12  C   UNL     1      -0.597  -7.389  -6.225  0.00  0.00    +0.086 A 
ATOM     13  C   UNL     1      -1.559  -7.516  -5.243  0.00  0.00    +0.051 A 
ATOM     14 CL   UNL     1      -0.007  -8.799  -7.049  0.00  0.00    -0.080 Cl
ATOM     15 CL   UNL     1       0.056  -3.439  -6.315  0.00  0.00    -0.080 Cl
BRANCH  11  16
ATOM     16  O   UNL     1       0.848  -6.014  -7.522  0.00  0.00    -0.504 OA
ATOM     17  H   UNL     1       0.489  -5.887  -8.411  0.00  0.00    +0.292 HD
ENDBRANCH  11  16
ENDBRANCH   7   8
BRANCH   1  18
ATOM     18  C   UNL     1      -4.928  -6.662  -1.447  0.00  0.00    +0.115 C 
BRANCH  18  19
ATOM     19  C   UNL     1      -6.071  -5.829  -2.031  0.00  0.00    +0.019 C 
BRANCH  19  21
ATOM     20  C   UNL     1      -8.485  -5.844  -2.674  0.00  0.00    +0.004 C 
ATOM     21  C   UNL     1      -7.343  -6.677  -2.090  0.00  0.00    -0.002 C 
ENDBRANCH  19  21
ENDBRANCH  18  19
ENDBRANCH   1  18
BRANCH   4  22
ATOM     22  C   UNL     1      -2.482  -2.827  -0.204  0.00  0.00    +0.120 C 
BRANCH  22  23
ATOM     23  C   UNL     1      -1.186  -2.065  -0.099  0.00  0.00    +0.219 C 
ATOM     24  O   UNL     1      -0.129  -2.660  -0.113  0.00  0.00    -0.275 OA
ATOM     25  N   UNL     1      -1.202  -0.721   0.010  0.00  0.00    -0.285 N 
ATOM     26  H   UNL     1      -2.046  -0.252   0.098  0.00  0.00    +0.155 HD
BRANCH  25  27
ATOM     27  C   UNL     1       0.002  -0.004  -0.004  0.00  0.00    +0.034 A 
ATOM     28  C   UNL     1       1.070  -0.454  -0.768  0.00  0.00    +0.027 A 
ATOM     29  C   UNL     1       2.256   0.255  -0.781  0.00  0.00    +0.047 A 
ATOM     30  C   UNL     1       2.379   1.415  -0.032  0.00  0.00    +0.121 A 
ATOM     31  C   UNL     1       1.312   1.865   0.732  0.00  0.00    +0.047 A 
ATOM     32  C   UNL     1       0.126   1.158   0.746  0.00  0.00    +0.027 A 
BRANCH  30  33
ATOM     33  O   UNL     1       3.547   2.112  -0.046  0.00  0.00    -0.492 OA
BRANCH  33  34
ATOM     34  C   UNL     1       4.604   1.591  -0.854  0.00  0.00    +0.225 C 
ATOM     35  C   UNL     1       5.827   2.503  -0.743  0.00  0.00    +0.048 C 
ENDBRANCH  33  34
ENDBRANCH  30  33
ENDBRANCH  25  27
ENDBRANCH  22  23
ENDBRANCH   4  22
TORSDOF 10
