REMARK  Name = ZINC01818290
REMARK  9 active torsions:
REMARK  status: ('A' for Active; 'I' for Inactive)
REMARK    1  A    between atoms: C_2  and  C_3
REMARK    2  A    between atoms: C_2  and  N_12
REMARK    3  A    between atoms: C_6  and  N_9
REMARK    4  A    between atoms: N_12  and  N_13
REMARK    5  A    between atoms: C_14  and  C_16
REMARK    6  A    between atoms: C_16  and  S_17
REMARK    7  A    between atoms: S_17  and  C_18
REMARK    8  A    between atoms: C_21  and  C_30
REMARK    9  A    between atoms: N_22  and  C_23
REMARK                            x       y       z     vdW  Elec       q    Type
REMARK                         _______ _______ _______ _____ _____    ______ ____
ROOT
ATOM      1  S   UNL     1       6.289  -1.015  -0.063  0.00  0.00    -0.076 S 
ENDROOT
BRANCH   1   2
ATOM      2  C   UNL     1       7.710   0.027  -0.071  0.00  0.00    +0.197 A 
ATOM      3  N   UNL     1       7.713   1.341  -0.059  0.00  0.00    -0.122 NA
ATOM      4  N   UNL     1       8.921   1.781  -0.070  0.00  0.00    -0.128 NA
ATOM      5  C   UNL     1       9.765   0.775  -0.090  0.00  0.00    +0.169 A 
ATOM      6  N   UNL     1       9.016  -0.381  -0.086  0.00  0.00    -0.270 N 
BRANCH   6   7
ATOM      7  C   UNL     1       9.492  -1.700  -0.098  0.00  0.00    +0.051 A 
ATOM      8  C   UNL     1      10.210  -2.189   0.985  0.00  0.00    +0.028 A 
ATOM      9  C   UNL     1      10.678  -3.489   0.971  0.00  0.00    +0.022 A 
ATOM     10  C   UNL     1      10.431  -4.303  -0.120  0.00  0.00    +0.041 A 
ATOM     11  C   UNL     1       9.715  -3.817  -1.200  0.00  0.00    +0.022 A 
ATOM     12  C   UNL     1       9.240  -2.520  -1.189  0.00  0.00    +0.028 A 
ATOM     13 CL   UNL     1      11.019  -5.936  -0.134  0.00  0.00    -0.084 Cl
ENDBRANCH   6   7
BRANCH   5  14
ATOM     14  C   UNL     1      11.240   0.867  -0.109  0.00  0.00    +0.020 A 
ATOM     15  C   UNL     1      12.007  -0.249  -0.448  0.00  0.00    +0.013 A 
ATOM     16  C   UNL     1      13.383  -0.158  -0.464  0.00  0.00    +0.021 A 
ATOM     17  C   UNL     1      14.004   1.038  -0.144  0.00  0.00    +0.041 A 
ATOM     18  C   UNL     1      13.249   2.148   0.194  0.00  0.00    +0.021 A 
ATOM     19  C   UNL     1      11.871   2.071   0.207  0.00  0.00    +0.013 A 
ATOM     20 CL   UNL     1      15.737   1.145  -0.165  0.00  0.00    -0.084 Cl
ENDBRANCH   5  14
ENDBRANCH   1   2
BRANCH   1  21
ATOM     21  C   UNL     1       4.894   0.145  -0.044  0.00  0.00    +0.174 C 
BRANCH  21  23
ATOM     22  N   UNL     1       2.423   0.032  -0.021  0.00  0.00    -0.236 N 
ATOM     23  C   UNL     1       3.600  -0.626  -0.036  0.00  0.00    +0.239 C 
ATOM     24  O   UNL     1       3.616  -1.839  -0.042  0.00  0.00    -0.273 OA
ATOM     25  H   UNL     1       2.410   1.002  -0.016  0.00  0.00    +0.173 HD
BRANCH  22  26
ATOM     26  N   UNL     1       1.220  -0.685  -0.013  0.00  0.00    -0.264 N 
ATOM     27  H   UNL     1       1.233  -1.655  -0.019  0.00  0.00    +0.170 HD
BRANCH  26  29
ATOM     28  C   UNL     1      -0.016   1.329   0.009  0.00  0.00    +0.035 C 
ATOM     29  C   UNL     1       0.002  -0.004   0.002  0.00  0.00    +0.044 C 
BRANCH  29  30
ATOM     30  C   UNL     1      -1.270  -0.762   0.010  0.00  0.00    -0.003 A 
ATOM     31  C   UNL     1      -1.255  -2.156   0.008  0.00  0.00    +0.012 A 
ATOM     32  C   UNL     1      -2.443  -2.857   0.016  0.00  0.00    +0.033 A 
ATOM     33  C   UNL     1      -3.649  -2.179   0.026  0.00  0.00    +0.126 A 
ATOM     34  C   UNL     1      -3.671  -0.796   0.028  0.00  0.00    +0.033 A 
ATOM     35  C   UNL     1      -2.489  -0.084   0.025  0.00  0.00    +0.012 A 
BRANCH  33  36
ATOM     36  N   UNL     1      -4.921  -2.936   0.034  0.00  0.00    +0.056 N 
ATOM     37  O   UNL     1      -4.904  -4.145   0.032  0.00  0.00    -0.126 OA
ATOM     38  O   UNL     1      -5.976  -2.346   0.043  0.00  0.00    -0.126 OA
ENDBRANCH  33  36
ENDBRANCH  29  30
ENDBRANCH  26  29
ENDBRANCH  22  26
ENDBRANCH  21  23
ENDBRANCH   1  21
TORSDOF 9
