REMARK  Name = ZINC24951975
REMARK  6 active torsions:
REMARK  status: ('A' for Active; 'I' for Inactive)
REMARK    1  A    between atoms: C_4  and  C_7
REMARK    2  A    between atoms: C_7  and  C_8
REMARK    3  A    between atoms: C_7  and  N_14
REMARK    4  A    between atoms: N_14  and  C_15
REMARK    5  A    between atoms: C_15  and  C_16
REMARK    6  A    between atoms: C_29  and  C_31
REMARK                            x       y       z     vdW  Elec       q    Type
REMARK                         _______ _______ _______ _____ _____    ______ ____
ROOT
ATOM      1  C   UNL     1      -1.152   1.190   3.575  0.00  0.00    +0.203 C 
ATOM      2  O   UNL     1      -1.823   2.198   3.502  0.00  0.00    -0.277 OA
ATOM      3  N   UNL     1      -1.050   0.532   4.748  0.00  0.00    -0.259 N 
ATOM      4  C   UNL     1      -0.283  -0.636   4.848  0.00  0.00    +0.058 A 
ATOM      5  C   UNL     1       1.105  -0.568   4.829  0.00  0.00    +0.025 A 
ATOM      6  C   UNL     1       1.851  -1.725   4.965  0.00  0.00    +0.002 A 
ATOM      7  C   UNL     1       1.222  -2.946   5.121  0.00  0.00    +0.002 A 
ATOM      8  C   UNL     1      -0.159  -3.022   5.128  0.00  0.00    +0.025 A 
ATOM      9  C   UNL     1      -0.913  -1.870   4.980  0.00  0.00    +0.055 A 
ATOM     10  N   UNL     1      -2.311  -1.923   4.952  0.00  0.00    -0.284 N 
ATOM     11  C   UNL     1      -3.046  -1.088   5.721  0.00  0.00    +0.219 C 
ATOM     12  O   UNL     1      -4.255  -1.093   5.629  0.00  0.00    -0.275 OA
ATOM     13  C   UNL     1      -2.374  -0.153   6.691  0.00  0.00    +0.128 C 
ATOM     14  C   UNL     1      -1.743   1.021   5.940  0.00  0.00    +0.194 C 
ATOM     15  H   UNL     1      -2.821  -2.647   4.300  0.00  0.00    +0.155 HD
ENDROOT
BRANCH  14  16
ATOM     16  C   UNL     1      -0.742   1.729   6.856  0.00  0.00    +0.409 C 
ATOM     17  F   UNL     1      -0.169   2.808   6.174  0.00  0.00    -0.169 F 
ATOM     18  F   UNL     1      -1.404   2.197   7.997  0.00  0.00    -0.169 F 
ATOM     19  F   UNL     1       0.261   0.830   7.234  0.00  0.00    -0.169 F 
ENDBRANCH  14  16
BRANCH   1  20
ATOM     20  C   UNL     1      -0.432   0.673   2.357  0.00  0.00    +0.017 C 
BRANCH  20  21
ATOM     21  N   UNL     1      -0.700   1.560   1.217  0.00  0.00    +0.392 N 
ATOM     22  H   UNL     1      -0.348   2.571   1.466  0.00  0.00    -0.084 HD
ATOM     23  H   UNL     1      -1.785   1.583   1.036  0.00  0.00    -0.084 HD
BRANCH  21  24
ATOM     24  C   UNL     1      -0.013   1.086   0.008  0.00  0.00    -0.009 C 
BRANCH  24  28
ATOM     25  C   UNL     1       3.995   2.565  -0.023  0.00  0.00    +0.000 A 
ATOM     26  C   UNL     1       3.732   1.272  -0.437  0.00  0.00    +0.000 A 
ATOM     27  C   UNL     1       2.435   0.793  -0.426  0.00  0.00    +0.002 A 
ATOM     28  C   UNL     1       1.401   1.607  -0.003  0.00  0.00    -0.057 A 
ATOM     29  C   UNL     1       1.663   2.902   0.406  0.00  0.00    +0.002 A 
ATOM     30  C   UNL     1       2.961   3.379   0.401  0.00  0.00    +0.000 A 
ENDBRANCH  24  28
BRANCH  24  31
ATOM     31  C   UNL     1      -0.742   1.585  -1.213  0.00  0.00    -0.057 A 
ATOM     32  C   UNL     1      -1.257   2.868  -1.234  0.00  0.00    +0.002 A 
ATOM     33  C   UNL     1      -1.922   3.327  -2.356  0.00  0.00    +0.000 A 
ATOM     34  C   UNL     1      -2.079   2.501  -3.452  0.00  0.00    +0.000 A 
ATOM     35  C   UNL     1      -1.568   1.216  -3.429  0.00  0.00    +0.000 A 
ATOM     36  C   UNL     1      -0.899   0.759  -2.310  0.00  0.00    +0.002 A 
ENDBRANCH  24  31
ENDBRANCH  21  24
ENDBRANCH  20  21
ENDBRANCH   1  20
TORSDOF 6
