REMARK  Name = ZINC35375188
REMARK  6 active torsions:
REMARK  status: ('A' for Active; 'I' for Inactive)
REMARK    1  A    between atoms: C_1  and  C_2
REMARK    2  A    between atoms: C_2  and  C_3
REMARK    3  A    between atoms: C_3  and  C_5
REMARK    4  A    between atoms: C_3  and  N_6
REMARK    5  A    between atoms: C_11  and  C_29
REMARK    6  A    between atoms: C_29  and  C_30
REMARK                            x       y       z     vdW  Elec       q    Type
REMARK                         _______ _______ _______ _____ _____    ______ ____
ROOT
ATOM      1  N   UNL     1      -2.082  -0.162   1.273  0.00  0.00    -0.239 N 
ATOM      2  C   UNL     1      -1.623  -0.545   2.502  0.00  0.00    +0.227 C 
ATOM      3  O   UNL     1      -0.523  -0.980   2.769  0.00  0.00    -0.275 OA
ATOM      4  C   UNL     1      -2.765  -0.316   3.453  0.00  0.00    +0.107 C 
ATOM      5  C   UNL     1      -2.484   0.316   4.822  0.00  0.00    +0.072 C 
ATOM      6  N   UNL     1      -3.713   1.143   5.063  0.00  0.00    -0.295 NA
ATOM      7  C   UNL     1      -4.266   1.518   3.725  0.00  0.00    +0.136 C 
ATOM      8  C   UNL     1      -3.311   0.986   2.739  0.00  0.00    +0.122 C 
ATOM      9  C   UNL     1      -3.212   0.614   1.346  0.00  0.00    +0.228 C 
ATOM     10  O   UNL     1      -3.962   0.918   0.444  0.00  0.00    -0.275 OA
ATOM     11  C   UNL     1      -5.653   0.950   3.578  0.00  0.00    +0.005 A 
ATOM     12  C   UNL     1      -6.147  -0.336   3.549  0.00  0.00    +0.008 A 
ATOM     13  C   UNL     1      -7.505  -0.552   3.397  0.00  0.00    +0.002 A 
ATOM     14  C   UNL     1      -8.364   0.524   3.274  0.00  0.00    +0.022 A 
ATOM     15  C   UNL     1      -7.874   1.814   3.304  0.00  0.00    +0.062 A 
ATOM     16  C   UNL     1      -6.506   2.040   3.457  0.00  0.00    +0.057 A 
ATOM     17  N   UNL     1      -5.780   3.231   3.517  0.00  0.00    -0.282 N 
ATOM     18  C   UNL     1      -4.461   3.014   3.673  0.00  0.00    +0.243 C 
ATOM     19  O   UNL     1      -3.595   3.860   3.757  0.00  0.00    -0.273 OA
ATOM     20 CL   UNL     1      -8.961   3.158   3.149  0.00  0.00    -0.082 Cl
ATOM     21  H   UNL     1      -4.393   0.631   5.605  0.00  0.00    +0.124 HD
ATOM     22  H   UNL     1      -6.179   4.113   3.453  0.00  0.00    +0.155 HD
ENDROOT
BRANCH   1  23
ATOM     23  C   UNL     1      -1.433  -0.534   0.013  0.00  0.00    +0.081 C 
ATOM     24  C   UNL     1      -1.416  -2.058  -0.121  0.00  0.00    +0.028 C 
BRANCH  23  26
ATOM     25  C   UNL     1      -0.019   1.526   0.010  0.00  0.00    +0.006 C 
ATOM     26  C   UNL     1       0.002  -0.004   0.002  0.00  0.00    +0.019 C 
ENDBRANCH  23  26
ENDBRANCH   1  23
BRANCH   5  27
ATOM     27  C   UNL     1      -2.333  -0.764   5.896  0.00  0.00    +0.054 C 
BRANCH  27  28
ATOM     28  C   UNL     1      -1.937  -0.122   7.201  0.00  0.00    -0.046 A 
ATOM     29  C   UNL     1      -0.601   0.052   7.508  0.00  0.00    +0.004 A 
ATOM     30  C   UNL     1      -0.237   0.641   8.705  0.00  0.00    +0.000 A 
ATOM     31  C   UNL     1      -1.211   1.056   9.595  0.00  0.00    +0.000 A 
ATOM     32  C   UNL     1      -2.547   0.883   9.287  0.00  0.00    +0.000 A 
ATOM     33  C   UNL     1      -2.910   0.298   8.088  0.00  0.00    +0.004 A 
ENDBRANCH  27  28
ENDBRANCH   5  27
TORSDOF 4
