REMARK  Name = ZINC02448413
REMARK  13 active torsions:
REMARK  status: ('A' for Active; 'I' for Inactive)
REMARK    1  A    between atoms: C_1  and  C_2
REMARK    2  A    between atoms: C_2  and  O_3
REMARK    3  A    between atoms: O_3  and  C_4
REMARK    4  A    between atoms: C_7  and  N_10
REMARK    5  A    between atoms: C_11  and  C_30
REMARK    6  A    between atoms: C_14  and  S_15
REMARK    7  A    between atoms: S_15  and  C_16
REMARK    8  A    between atoms: C_16  and  C_17
REMARK    9  A    between atoms: N_19  and  C_20
REMARK   10  A    between atoms: C_22  and  O_28
REMARK   11  A    between atoms: C_24  and  O_26
REMARK   12  A    between atoms: O_26  and  C_27
REMARK   13  A    between atoms: O_28  and  C_29
REMARK                            x       y       z     vdW  Elec       q    Type
REMARK                         _______ _______ _______ _____ _____    ______ ____
ROOT
ATOM      1  N   UNL     1      -6.546   1.014   0.308  0.00  0.00    -0.270 N 
ATOM      2  C   UNL     1      -7.176  -0.206   0.420  0.00  0.00    +0.169 A 
ATOM      3  N   UNL     1      -6.237  -1.124   0.443  0.00  0.00    -0.128 NA
ATOM      4  N   UNL     1      -5.080  -0.572   0.349  0.00  0.00    -0.122 NA
ATOM      5  C   UNL     1      -5.208   0.734   0.261  0.00  0.00    +0.197 A 
ENDROOT
BRANCH   2   6
ATOM      6  C   UNL     1      -8.633  -0.438   0.503  0.00  0.00    +0.020 A 
ATOM      7  C   UNL     1      -9.526   0.580   0.163  0.00  0.00    +0.013 A 
ATOM      8  C   UNL     1     -10.885   0.356   0.238  0.00  0.00    +0.021 A 
ATOM      9  C   UNL     1     -11.364  -0.872   0.661  0.00  0.00    +0.041 A 
ATOM     10  C   UNL     1     -10.484  -1.884   1.006  0.00  0.00    +0.021 A 
ATOM     11  C   UNL     1      -9.123  -1.674   0.929  0.00  0.00    +0.013 A 
ATOM     12 CL   UNL     1     -13.076  -1.144   0.761  0.00  0.00    -0.084 Cl
ENDBRANCH   2   6
BRANCH   1  16
ATOM     13  C   UNL     1      -8.343   4.775   0.140  0.00  0.00    +0.121 A 
ATOM     14  C   UNL     1      -7.641   4.292  -0.955  0.00  0.00    +0.047 A 
ATOM     15  C   UNL     1      -7.045   3.048  -0.899  0.00  0.00    +0.030 A 
ATOM     16  C   UNL     1      -7.150   2.279   0.252  0.00  0.00    +0.051 A 
ATOM     17  C   UNL     1      -7.858   2.759   1.345  0.00  0.00    +0.030 A 
ATOM     18  C   UNL     1      -8.449   4.006   1.290  0.00  0.00    +0.047 A 
BRANCH  13  19
ATOM     19  O   UNL     1      -8.929   6.000   0.085  0.00  0.00    -0.492 OA
BRANCH  19  21
ATOM     20  C   UNL     1     -10.223   7.825   1.000  0.00  0.00    +0.048 C 
ATOM     21  C   UNL     1      -9.636   6.434   1.249  0.00  0.00    +0.225 C 
ENDBRANCH  19  21
ENDBRANCH  13  19
ENDBRANCH   1  16
BRANCH   5  22
ATOM     22  S   UNL     1      -3.899   1.904   0.118  0.00  0.00    -0.076 S 
BRANCH  22  23
ATOM     23  C   UNL     1      -2.475   0.787   0.133  0.00  0.00    +0.173 C 
BRANCH  23  24
ATOM     24  C   UNL     1      -1.205   1.591   0.017  0.00  0.00    +0.227 C 
ATOM     25  O   UNL     1      -1.258   2.799  -0.067  0.00  0.00    -0.275 OA
ATOM     26  N   UNL     1      -0.011   0.966   0.007  0.00  0.00    -0.285 N 
ATOM     27  H   UNL     1       0.029  -0.003   0.007  0.00  0.00    +0.155 HD
BRANCH  26  28
ATOM     28  C   UNL     1       1.170   1.715  -0.008  0.00  0.00    +0.040 A 
ATOM     29  C   UNL     1       1.224   2.912  -0.709  0.00  0.00    +0.069 A 
ATOM     30  C   UNL     1       2.394   3.657  -0.719  0.00  0.00    +0.125 A 
ATOM     31  C   UNL     1       3.513   3.200  -0.039  0.00  0.00    +0.091 A 
ATOM     32  C   UNL     1       3.461   2.002   0.657  0.00  0.00    +0.125 A 
ATOM     33  C   UNL     1       2.291   1.259   0.673  0.00  0.00    +0.069 A 
BRANCH  32  34
ATOM     34  O   UNL     1       4.558   1.555   1.323  0.00  0.00    -0.495 OA
ATOM     35  C   UNL     1       5.730   2.371   1.264  0.00  0.00    +0.277 C 
ENDBRANCH  32  34
BRANCH  30  36
ATOM     36  O   UNL     1       2.445   4.832  -1.400  0.00  0.00    -0.495 OA
ATOM     37  C   UNL     1       3.684   5.544  -1.373  0.00  0.00    +0.277 C 
ENDBRANCH  30  36
ENDBRANCH  26  28
ENDBRANCH  23  24
ENDBRANCH  22  23
ENDBRANCH   5  22
TORSDOF 10
