REMARK  Name = ZINC39667948
REMARK  16 active torsions:
REMARK  status: ('A' for Active; 'I' for Inactive)
REMARK    1  A    between atoms: C_1  and  C_2
REMARK    2  A    between atoms: C_2  and  O_3
REMARK    3  A    between atoms: O_3  and  C_4
REMARK    4  A    between atoms: C_4  and  C_6
REMARK    5  A    between atoms: C_8  and  C_37
REMARK    6  A    between atoms: C_10  and  C_33
REMARK    7  A    between atoms: C_13  and  N_15
REMARK    8  A    between atoms: C_16  and  C_18
REMARK    9  A    between atoms: C_18  and  S_19
REMARK   10  A    between atoms: S_19  and  C_20
REMARK   11  A    between atoms: C_24  and  C_28
REMARK   12  A    between atoms: C_25  and  C_27
REMARK   13  A    between atoms: C_28  and  C_29
REMARK   14  A    between atoms: C_29  and  C_30
REMARK   15  A    between atoms: C_30  and  O_32
REMARK   16  A    between atoms: N_35  and  C_36
REMARK                            x       y       z     vdW  Elec       q    Type
REMARK                         _______ _______ _______ _____ _____    ______ ____
ROOT
ATOM      1  N   UNL     1       1.570  -1.262  -4.771  0.00  0.00    -0.302 N 
ATOM      2  C   UNL     1       1.500  -1.584  -6.077  0.00  0.00    +0.224 C 
ATOM      3  O   UNL     1       0.716  -2.430  -6.452  0.00  0.00    -0.275 OA
ATOM      4  H   UNL     1       2.197  -0.585  -4.471  0.00  0.00    +0.150 HD
ENDROOT
BRANCH   1   9
ATOM      5  C   UNL     1       1.498  -2.351  -2.552  0.00  0.00    +0.132 C 
ATOM      6  C   UNL     1       1.608  -3.866  -2.381  0.00  0.00    +0.024 C 
ATOM      7  C   UNL     1       0.351  -4.567  -2.967  0.00  0.00    +0.138 C 
ATOM      8  S   UNL     1       0.099  -3.534  -4.477  0.00  0.00    -0.125 S 
ATOM      9  C   UNL     1       0.700  -1.934  -3.803  0.00  0.00    +0.146 C 
ATOM     10  C   UNL     1       1.724  -4.200  -0.892  0.00  0.00    +0.010 C 
BRANCH   7  11
ATOM     11  C   UNL     1       0.639  -6.002  -3.324  0.00  0.00    +0.226 C 
ATOM     12  O   UNL     1       1.756  -6.330  -3.666  0.00  0.00    -0.275 OA
ATOM     13  N   UNL     1      -0.344  -6.922  -3.262  0.00  0.00    -0.317 N 
ATOM     14  C   UNL     1      -0.064  -8.318  -3.609  0.00  0.00    +0.128 C 
ATOM     15  H   UNL     1      -1.237  -6.660  -2.988  0.00  0.00    +0.148 HD
ENDBRANCH   7  11
BRANCH   5  16
ATOM     16  C   UNL     1       0.823  -1.775  -1.334  0.00  0.00    +0.313 C 
ATOM     17  O   UNL     1      -0.383  -1.736  -1.273  0.00  0.00    -0.250 OA
BRANCH  16  18
ATOM     18  O   UNL     1       1.561  -1.306  -0.316  0.00  0.00    -0.465 OA
BRANCH  18  20
ATOM     19  C   UNL     1       1.857  -0.291   1.858  0.00  0.00    +0.048 C 
ATOM     20  C   UNL     1       0.855  -0.774   0.807  0.00  0.00    +0.229 C 
ENDBRANCH  18  20
ENDBRANCH  16  18
ENDBRANCH   5  16
ENDBRANCH   1   9
BRANCH   2  21
ATOM     21  C   UNL     1       2.395  -0.892  -7.073  0.00  0.00    +0.173 C 
BRANCH  21  22
ATOM     22  S   UNL     1       2.064  -1.540  -8.735  0.00  0.00    -0.078 S 
BRANCH  22  23
ATOM     23  C   UNL     1       3.174  -0.644  -9.770  0.00  0.00    +0.170 A 
ATOM     24  N   UNL     1       3.182  -0.886 -11.110  0.00  0.00    -0.302 N 
ATOM     25  C   UNL     1       4.030  -0.203 -11.909  0.00  0.00    +0.256 A 
ATOM     26  O   UNL     1       4.050  -0.407 -13.112  0.00  0.00    -0.267 OA
ATOM     27  C   UNL     1       4.887   0.748 -11.329  0.00  0.00    +0.038 A 
ATOM     28  C   UNL     1       4.835   0.948  -9.980  0.00  0.00    +0.049 A 
ATOM     29  N   UNL     1       3.978   0.254  -9.235  0.00  0.00    -0.228 NA
ATOM     30  C   UNL     1       5.744   1.961  -9.334  0.00  0.00    +0.066 C 
ATOM     31  H   UNL     1       2.582  -1.547 -11.489  0.00  0.00    +0.171 HD
BRANCH  27  32
ATOM     32  C   UNL     1       5.850   1.532 -12.183  0.00  0.00    +0.053 C 
BRANCH  32  33
ATOM     33  C   UNL     1       7.132   0.722 -12.383  0.00  0.00    +0.125 C 
BRANCH  33  34
ATOM     34  C   UNL     1       8.094   1.507 -13.237  0.00  0.00    +0.305 C 
ATOM     35  O   UNL     1       7.786   2.602 -13.643  0.00  0.00    -0.251 OA
BRANCH  34  36
ATOM     36  O   UNL     1       9.293   0.989 -13.546  0.00  0.00    -0.481 OA
ATOM     37  H   UNL     1       9.840   1.565 -14.097  0.00  0.00    +0.295 HD
ENDBRANCH  34  36
ENDBRANCH  33  34
ENDBRANCH  32  33
ENDBRANCH  27  32
ENDBRANCH  22  23
ENDBRANCH  21  22
ENDBRANCH   2  21
TORSDOF 12
