REMARK  Name = ZINC49208650
REMARK  7 active torsions:
REMARK  status: ('A' for Active; 'I' for Inactive)
REMARK    1  A    between atoms: C_9  and  N_11
REMARK    2  A    between atoms: C_12  and  C_14
REMARK    3  A    between atoms: N_16  and  C_17
REMARK    4  A    between atoms: C_17  and  C_18
REMARK    5  A    between atoms: C_18  and  N_19
REMARK    6  A    between atoms: N_19  and  C_20
REMARK    7  A    between atoms: C_23  and  N_26
REMARK                            x       y       z     vdW  Elec       q    Type
REMARK                         _______ _______ _______ _____ _____    ______ ____
ROOT
ATOM      1  C   UNL     1       0.055  -4.257   0.191  0.00  0.00    +0.299 C 
ATOM      2  O   UNL     1       1.110  -4.856   0.178  0.00  0.00    -0.265 OA
ATOM      3  N   UNL     1      -1.104  -4.936   0.300  0.00  0.00    -0.306 N 
ATOM      4  H   UNL     1      -1.948  -4.457   0.311  0.00  0.00    +0.149 HD
ENDROOT
BRANCH   1   6
ATOM      5  N   UNL     1       1.200  -2.089  -0.021  0.00  0.00    -0.276 N 
ATOM      6  C   UNL     1       0.041  -2.767   0.087  0.00  0.00    +0.303 C 
ATOM      7  O   UNL     1      -1.014  -2.168   0.101  0.00  0.00    -0.265 OA
ATOM      8  H   UNL     1       2.039  -2.570  -0.098  0.00  0.00    +0.155 HD
BRANCH   5  17
ATOM      9  C   UNL     1       0.137   1.386  -0.620  0.00  0.00    +0.003 A 
ATOM     10  C   UNL     1       1.144   2.104  -0.050  0.00  0.00    +0.010 A 
ATOM     11  C   UNL     1       2.221   1.439   0.558  0.00  0.00    +0.002 A 
ATOM     12  C   UNL     1       3.277   2.152   1.156  0.00  0.00    +0.011 A 
ATOM     13  C   UNL     1       4.292   1.440   1.730  0.00  0.00    +0.020 A 
ATOM     14  C   UNL     1       4.261   0.048   1.712  0.00  0.00    +0.111 A 
ATOM     15  N   UNL     1       3.276  -0.613   1.153  0.00  0.00    -0.253 NA
ATOM     16  C   UNL     1       2.253   0.023   0.576  0.00  0.00    +0.092 A 
ATOM     17  C   UNL     1       1.194  -0.694  -0.024  0.00  0.00    +0.060 A 
ATOM     18  C   UNL     1       0.155  -0.005  -0.611  0.00  0.00    +0.025 A 
ENDBRANCH   5  17
ENDBRANCH   1   6
BRANCH   3  19
ATOM     19  C   UNL     1      -1.091  -6.397   0.402  0.00  0.00    +0.123 C 
BRANCH  19  20
ATOM     20  C   UNL     1      -2.526  -6.914   0.514  0.00  0.00    +0.120 C 
BRANCH  20  21
ATOM     21  N   UNL     1      -2.513  -8.375   0.616  0.00  0.00    -0.342 N 
ATOM     22  H   UNL     1      -1.669  -8.854   0.605  0.00  0.00    +0.146 HD
BRANCH  21  23
ATOM     23  C   UNL     1      -3.714  -9.079   0.729  0.00  0.00    +0.027 A 
ATOM     24  C   UNL     1      -4.923  -8.395   0.738  0.00  0.00    +0.025 A 
ATOM     25  C   UNL     1      -6.109  -9.093   0.850  0.00  0.00    +0.034 A 
ATOM     26  C   UNL     1      -6.094 -10.472   0.951  0.00  0.00    +0.126 A 
ATOM     27  C   UNL     1      -4.893 -11.156   0.941  0.00  0.00    +0.034 A 
ATOM     28  C   UNL     1      -3.703 -10.464   0.825  0.00  0.00    +0.025 A 
BRANCH  26  29
ATOM     29  N   UNL     1      -7.367 -11.218   1.070  0.00  0.00    +0.056 N 
ATOM     30  O   UNL     1      -8.419 -10.621   1.079  0.00  0.00    -0.126 OA
ATOM     31  O   UNL     1      -7.356 -12.423   1.159  0.00  0.00    -0.126 OA
ENDBRANCH  26  29
ENDBRANCH  21  23
ENDBRANCH  20  21
ENDBRANCH  19  20
ENDBRANCH   3  19
TORSDOF 7
