REMARK  Name = ZINC11612124
REMARK  8 active torsions:
REMARK  status: ('A' for Active; 'I' for Inactive)
REMARK    1  A    between atoms: C_6  and  C_7
REMARK    2  A    between atoms: C_12  and  O_18
REMARK    3  A    between atoms: O_18  and  C_19
REMARK    4  A    between atoms: C_21  and  O_34
REMARK    5  A    between atoms: C_23  and  O_33
REMARK    6  A    between atoms: C_25  and  O_32
REMARK    7  A    between atoms: C_27  and  C_30
REMARK    8  A    between atoms: C_30  and  O_31
REMARK                            x       y       z     vdW  Elec       q    Type
REMARK                         _______ _______ _______ _____ _____    ______ ____
ROOT
ATOM      1  C   UNL     1       5.945   9.151   1.408  0.00  0.00    +0.064 A 
ATOM      2  C   UNL     1       4.768   9.825   1.337  0.00  0.00    +0.208 A 
ATOM      3  O   UNL     1       3.586   9.206   1.290  0.00  0.00    -0.462 OA
ATOM      4  C   UNL     1       3.453   7.865   1.308  0.00  0.00    +0.142 A 
ATOM      5  C   UNL     1       2.194   7.280   1.256  0.00  0.00    +0.092 A 
ATOM      6  C   UNL     1       2.075   5.901   1.276  0.00  0.00    +0.128 A 
ATOM      7  C   UNL     1       3.207   5.092   1.352  0.00  0.00    +0.047 A 
ATOM      8  C   UNL     1       4.452   5.651   1.397  0.00  0.00    +0.019 A 
ATOM      9  C   UNL     1       4.588   7.040   1.379  0.00  0.00    +0.065 A 
ATOM     10  C   UNL     1       5.916   7.678   1.433  0.00  0.00    +0.200 A 
ATOM     11  O   UNL     1       6.940   7.020   1.496  0.00  0.00    -0.286 OA
ENDROOT
BRANCH   1  17
ATOM     12  C   UNL     1       8.175   9.574   2.438  0.00  0.00    +0.010 A 
ATOM     13  C   UNL     1       9.376  10.254   2.477  0.00  0.00    +0.016 A 
ATOM     14  C   UNL     1       9.641  11.248   1.551  0.00  0.00    +0.018 A 
ATOM     15  C   UNL     1       8.707  11.562   0.579  0.00  0.00    +0.016 A 
ATOM     16  C   UNL     1       7.506  10.885   0.528  0.00  0.00    +0.010 A 
ATOM     17  C   UNL     1       7.234   9.883   1.458  0.00  0.00    -0.011 A 
ATOM     18 BR   UNL     1      11.284  12.181   1.615  0.00  0.00    -0.050 Br
ENDBRANCH   1  17
BRANCH   6  19
ATOM     19  O   UNL     1       0.844   5.331   1.225  0.00  0.00    -0.461 OA
BRANCH  19  20
ATOM     20  C   UNL     1       0.788   3.904   1.249  0.00  0.00    +0.339 C 
ATOM     21  C   UNL     1      -0.673   3.450   1.310  0.00  0.00    +0.214 C 
ATOM     22  C   UNL     1      -0.727   1.920   1.274  0.00  0.00    +0.180 C 
ATOM     23  C   UNL     1      -0.017   1.425   0.010  0.00  0.00    +0.177 C 
ATOM     24  C   UNL     1       1.419   1.956  -0.001  0.00  0.00    +0.179 C 
ATOM     25  O   UNL     1       1.397   3.383   0.065  0.00  0.00    -0.331 OA
BRANCH  23  26
ATOM     26  O   UNL     1       0.002  -0.004   0.002  0.00  0.00    -0.386 OA
ATOM     27  H   UNL     1      -0.876  -0.409   0.008  0.00  0.00    +0.210 HD
ENDBRANCH  23  26
BRANCH  22  28
ATOM     28  O   UNL     1      -2.090   1.490   1.256  0.00  0.00    -0.386 OA
ATOM     29  H   UNL     1      -2.600   1.769   2.029  0.00  0.00    +0.210 HD
ENDBRANCH  22  28
BRANCH  21  30
ATOM     30  O   UNL     1      -1.385   3.980   0.189  0.00  0.00    -0.383 OA
ATOM     31  H   UNL     1      -1.387   4.946   0.145  0.00  0.00    +0.210 HD
ENDBRANCH  21  30
BRANCH  24  32
ATOM     32  C   UNL     1       2.116   1.515  -1.290  0.00  0.00    +0.190 C 
BRANCH  32  33
ATOM     33  O   UNL     1       3.488   1.911  -1.248  0.00  0.00    -0.392 OA
ATOM     34  H   UNL     1       3.993   1.663  -2.034  0.00  0.00    +0.210 HD
ENDBRANCH  32  33
ENDBRANCH  24  32
ENDBRANCH  19  20
ENDBRANCH   6  19
TORSDOF 8
