REMARK  Name = ZINC38547850
REMARK  9 active torsions:
REMARK  status: ('A' for Active; 'I' for Inactive)
REMARK    1  A    between atoms: C_1  and  C_2
REMARK    2  A    between atoms: C_2  and  C_3
REMARK    3  A    between atoms: C_5  and  C_16
REMARK    4  A    between atoms: C_6  and  N_8
REMARK    5  A    between atoms: C_9  and  C_11
REMARK    6  A    between atoms: C_16  and  C_18
REMARK    7  A    between atoms: C_16  and  N_25
REMARK    8  A    between atoms: C_21  and  C_24
REMARK    9  A    between atoms: C_30  and  C_32
REMARK                            x       y       z     vdW  Elec       q    Type
REMARK                         _______ _______ _______ _____ _____    ______ ____
ROOT
ATOM      1  C   UNL     1       3.909  -1.511  -2.896  0.00  0.00    +0.135 C 
ENDROOT
BRANCH   1   2
ATOM      2  N   UNL     1       4.810  -0.918  -1.905  0.00  0.00    -0.320 N 
ATOM      3  C   UNL     1       5.195   0.413  -2.024  0.00  0.00    +0.097 A 
ATOM      4  C   UNL     1       4.802   1.147  -3.139  0.00  0.00    +0.041 A 
ATOM      5  C   UNL     1       5.193   2.470  -3.244  0.00  0.00    +0.005 A 
ATOM      6  C   UNL     1       5.966   3.016  -2.228  0.00  0.00    +0.021 A 
ATOM      7  C   UNL     1       6.320   2.229  -1.151  0.00  0.00    +0.014 A 
ATOM      8  N   UNL     1       5.928   0.971  -1.074  0.00  0.00    -0.347 N 
ATOM      9  C   UNL     1       7.159   2.816  -0.045  0.00  0.00    +0.063 C 
ATOM     10  H   UNL     1       5.138  -1.453  -1.166  0.00  0.00    +0.148 HD
ATOM     11  H   UNL     1       6.188   0.441  -0.303  0.00  0.00    +0.167 HD
ENDBRANCH   1   2
BRANCH   1  12
ATOM     12  C   UNL     1       4.052  -3.011  -2.871  0.00  0.00    -0.023 A 
ATOM     13  C   UNL     1       4.058  -3.685  -1.664  0.00  0.00    +0.006 A 
ATOM     14  C   UNL     1       4.190  -5.061  -1.641  0.00  0.00    +0.004 A 
ATOM     15  C   UNL     1       4.315  -5.763  -2.825  0.00  0.00    -0.050 A 
ATOM     16  C   UNL     1       4.309  -5.089  -4.032  0.00  0.00    +0.004 A 
ATOM     17  C   UNL     1       4.173  -3.713  -4.056  0.00  0.00    +0.006 A 
ATOM     18  C   UNL     1       4.460  -7.263  -2.800  0.00  0.00    +0.044 C 
ENDBRANCH   1  12
BRANCH   1  21
ATOM     19  C   UNL     1       0.829  -0.510  -1.010  0.00  0.00    -0.008 A 
ATOM     20  C   UNL     1       2.116  -0.843  -1.270  0.00  0.00    +0.019 A 
ATOM     21  C   UNL     1       2.486  -1.137  -2.569  0.00  0.00    +0.006 A 
ATOM     22  C   UNL     1       1.541  -1.081  -3.549  0.00  0.00    +0.078 A 
ATOM     23  S   UNL     1       0.084  -0.612  -2.630  0.00  0.00    -0.078 S 
BRANCH  22  24
ATOM     24  N   UNL     1       1.675  -1.332  -4.916  0.00  0.00    -0.273 N 
ATOM     25  C   UNL     1       0.606  -1.222  -5.729  0.00  0.00    +0.284 C 
ATOM     26  O   UNL     1      -0.476  -0.903  -5.273  0.00  0.00    -0.266 OA
ATOM     27  H   UNL     1       2.538  -1.586  -5.280  0.00  0.00    +0.156 HD
BRANCH  25  28
ATOM     28  C   UNL     1       0.747  -1.485  -7.165  0.00  0.00    +0.189 A 
ATOM     29  C   UNL     1      -0.248  -1.405  -8.097  0.00  0.00    +0.054 A 
ATOM     30  C   UNL     1       0.329  -1.737  -9.333  0.00  0.00    +0.042 A 
ATOM     31  C   UNL     1       1.635  -2.002  -9.104  0.00  0.00    +0.196 A 
ATOM     32  O   UNL     1       1.884  -1.844  -7.797  0.00  0.00    -0.458 OA
ENDBRANCH  25  28
ENDBRANCH  22  24
BRANCH  19  34
ATOM     33  C   UNL     1       0.281   1.359   0.524  0.00  0.00    +0.009 C 
ATOM     34  C   UNL     1       0.189  -0.153   0.306  0.00  0.00    +0.039 C 
ENDBRANCH  19  34
ENDBRANCH   1  21
TORSDOF 6
