REMARK  Name = ZINC43730081
REMARK  4 active torsions:
REMARK  status: ('A' for Active; 'I' for Inactive)
REMARK    1  A    between atoms: C_1  and  O_2
REMARK    2  A    between atoms: O_2  and  C_3
REMARK    3  A    between atoms: C_7  and  C_9
REMARK    4  A    between atoms: C_9  and  C_11
REMARK                            x       y       z     vdW  Elec       q    Type
REMARK                         _______ _______ _______ _____ _____    ______ ____
ROOT
ATOM      1  C   UNL     1       1.985  -4.638  -3.541  0.00  0.00    +0.066 C 
ATOM      2  C   UNL     1       0.967  -4.738  -4.691  0.00  0.00    -0.055 C 
ATOM      3  C   UNL     1       1.080  -3.514  -5.609  0.00  0.00    -0.016 C 
ATOM      4  C   UNL     1       1.450  -4.086  -6.997  0.00  0.00    -0.020 C 
ATOM      5  C   UNL     1       2.115  -5.438  -6.646  0.00  0.00    -0.076 C 
ATOM      6  N   UNL     1       1.321  -5.945  -5.472  0.00  0.00    +0.395 N 
ATOM      7  C   UNL     1       2.191  -6.795  -4.645  0.00  0.00    +0.060 C 
ATOM      8  C   UNL     1       2.413  -6.095  -3.309  0.00  0.00    +0.085 C 
ATOM      9  C   UNL     1       1.617  -6.726  -2.201  0.00  0.00    -0.011 A 
ATOM     10  C   UNL     1       0.272  -6.955  -2.014  0.00  0.00    +0.006 A 
ATOM     11  C   UNL     1      -0.170  -7.574  -0.858  0.00  0.00    +0.000 A 
ATOM     12  C   UNL     1       0.742  -7.962   0.107  0.00  0.00    +0.002 A 
ATOM     13  C   UNL     1       2.090  -7.734  -0.077  0.00  0.00    +0.023 A 
ATOM     14  C   UNL     1       2.543  -7.112  -1.238  0.00  0.00    +0.038 A 
ATOM     15  N   UNL     1       3.835  -6.777  -1.649  0.00  0.00    -0.285 N 
ATOM     16  C   UNL     1       3.845  -6.176  -2.855  0.00  0.00    +0.228 C 
ATOM     17  O   UNL     1       4.819  -5.779  -3.458  0.00  0.00    -0.275 OA
ATOM     18  C   UNL     1       3.499  -7.060  -5.344  0.00  0.00    -0.024 A 
ATOM     19  C   UNL     1       4.511  -6.240  -5.791  0.00  0.00    +0.043 A 
ATOM     20  C   UNL     1       5.621  -6.788  -6.414  0.00  0.00    +0.124 A 
ATOM     21  C   UNL     1       5.707  -8.159  -6.584  0.00  0.00    +0.040 A 
ATOM     22  C   UNL     1       4.695  -8.982  -6.136  0.00  0.00    +0.026 A 
ATOM     23  C   UNL     1       3.576  -8.439  -5.509  0.00  0.00    +0.036 A 
ATOM     24  N   UNL     1       2.439  -9.052  -4.979  0.00  0.00    -0.286 N 
ATOM     25  C   UNL     1       1.579  -8.161  -4.453  0.00  0.00    +0.212 C 
ATOM     26  O   UNL     1       0.515  -8.407  -3.926  0.00  0.00    -0.277 OA
ATOM     27  F   UNL     1       6.615  -5.986  -6.854  0.00  0.00    -0.205 F 
ATOM     28  H   UNL     1       4.633  -6.956  -1.127  0.00  0.00    +0.155 HD
ATOM     29  H   UNL     1       2.286 -10.010  -4.988  0.00  0.00    +0.155 HD
ATOM     30  H   UNL     1       0.492  -6.437  -5.773  0.00  0.00    -0.079 HD
ENDROOT
BRANCH   1  31
ATOM     31  C   UNL     1       1.334  -4.072  -2.305  0.00  0.00    +0.166 C 
ATOM     32  O   UNL     1       0.130  -4.128  -2.174  0.00  0.00    -0.292 OA
BRANCH  31  37
ATOM     33  C   UNL     1       2.359  -2.454   0.924  0.00  0.00    +0.121 A 
ATOM     34  C   UNL     1       3.722  -2.285   0.716  0.00  0.00    +0.045 A 
ATOM     35  C   UNL     1       4.303  -2.697  -0.469  0.00  0.00    +0.004 A 
ATOM     36  C   UNL     1       3.533  -3.279  -1.455  0.00  0.00    +0.011 A 
ATOM     37  C   UNL     1       2.160  -3.453  -1.256  0.00  0.00    +0.021 A 
ATOM     38  C   UNL     1       1.576  -3.041  -0.054  0.00  0.00    +0.057 A 
BRANCH  33  40
ATOM     39  C   UNL     1       2.662  -1.448   3.057  0.00  0.00    +0.277 C 
ATOM     40  O   UNL     1       1.795  -2.046   2.092  0.00  0.00    -0.495 OA
ENDBRANCH  33  40
ENDBRANCH  31  37
ENDBRANCH   1  31
TORSDOF 3
