REMARK  Name = ZINC59850174
REMARK  7 active torsions:
REMARK  status: ('A' for Active; 'I' for Inactive)
REMARK    1  A    between atoms: C_4  and  C_7
REMARK    2  A    between atoms: C_7  and  N_8
REMARK    3  A    between atoms: N_11  and  C_12
REMARK    4  A    between atoms: C_12  and  C_17
REMARK    5  A    between atoms: N_19  and  C_20
REMARK    6  A    between atoms: N_25  and  C_27
REMARK    7  A    between atoms: C_27  and  C_28
REMARK                            x       y       z     vdW  Elec       q    Type
REMARK                         _______ _______ _______ _____ _____    ______ ____
ROOT
ATOM      1  C   UNL     1       6.947  -2.615   3.151  0.00  0.00    +0.112 C 
ATOM      2  C   UNL     1       7.471  -3.863   3.882  0.00  0.00    +0.035 C 
ATOM      3  C   UNL     1       7.000  -3.747   5.346  0.00  0.00    +0.003 C 
ATOM      4  C   UNL     1       5.763  -2.816   5.275  0.00  0.00    +0.003 C 
ATOM      5  C   UNL     1       6.175  -1.783   4.197  0.00  0.00    +0.035 C 
ENDROOT
BRANCH   1   9
ATOM      6  N   UNL     1       5.644  -4.269   0.139  0.00  0.00    -0.295 N 
ATOM      7  C   UNL     1       6.495  -3.823   1.084  0.00  0.00    +0.301 C 
ATOM      8  O   UNL     1       7.665  -4.154   1.054  0.00  0.00    -0.253 OA
ATOM      9  N   UNL     1       6.050  -3.010   2.063  0.00  0.00    -0.285 N 
ATOM     10  H   UNL     1       4.711  -4.004   0.163  0.00  0.00    +0.151 HD
ATOM     11  H   UNL     1       5.136  -2.687   2.046  0.00  0.00    +0.151 HD
BRANCH   6  12
ATOM     12  C   UNL     1       6.128  -5.152  -0.925  0.00  0.00    +0.141 C 
BRANCH  12  16
ATOM     13  C   UNL     1       2.894  -6.147  -3.533  0.00  0.00    +0.000 A 
ATOM     14  C   UNL     1       3.670  -5.032  -3.788  0.00  0.00    +0.000 A 
ATOM     15  C   UNL     1       4.716  -4.710  -2.944  0.00  0.00    +0.005 A 
ATOM     16  C   UNL     1       4.987  -5.503  -1.844  0.00  0.00    -0.030 A 
ATOM     17  C   UNL     1       4.211  -6.618  -1.589  0.00  0.00    +0.005 A 
ATOM     18  C   UNL     1       3.165  -6.941  -2.434  0.00  0.00    +0.000 A 
ENDBRANCH  12  16
ENDBRANCH   6  12
ENDBRANCH   1   9
BRANCH   1  19
ATOM     19  C   UNL     1       8.100  -1.813   2.604  0.00  0.00    +0.237 C 
ATOM     20  O   UNL     1       9.200  -1.912   3.107  0.00  0.00    -0.273 OA
ATOM     21  N   UNL     1       7.910  -0.988   1.556  0.00  0.00    -0.312 N 
ATOM     22  H   UNL     1       7.050  -0.963   1.108  0.00  0.00    +0.149 HD
BRANCH  21  23
ATOM     23  C   UNL     1       9.002  -0.128   1.093  0.00  0.00    +0.056 C 
ATOM     24  C   UNL     1       9.019   1.164   1.916  0.00  0.00    +0.018 C 
ATOM     25  C   UNL     1      10.113   2.088   1.374  0.00  0.00    -0.017 C 
ATOM     26  C   UNL     1       9.860   2.351  -0.113  0.00  0.00    -0.078 C 
ATOM     27  N   UNL     1       9.882   1.081  -0.848  0.00  0.00    +0.384 N 
ATOM     28  C   UNL     1       8.791   0.216  -0.383  0.00  0.00    -0.056 C 
ATOM     29  H   UNL     1      10.765   0.619  -0.693  0.00  0.00    -0.081 HD
BRANCH  27  30
ATOM     30  C   UNL     1       9.717   1.346  -2.284  0.00  0.00    -0.043 C 
BRANCH  30  31
ATOM     31  C   UNL     1      10.905   2.122  -2.791  0.00  0.00    -0.064 A 
ATOM     32  C   UNL     1      10.890   3.504  -2.765  0.00  0.00    +0.002 A 
ATOM     33  C   UNL     1      11.979   4.215  -3.231  0.00  0.00    +0.000 A 
ATOM     34  C   UNL     1      13.084   3.545  -3.722  0.00  0.00    +0.000 A 
ATOM     35  C   UNL     1      13.100   2.163  -3.748  0.00  0.00    +0.000 A 
ATOM     36  C   UNL     1      12.012   1.451  -3.278  0.00  0.00    +0.002 A 
ENDBRANCH  30  31
ENDBRANCH  27  30
ENDBRANCH  21  23
ENDBRANCH   1  19
TORSDOF 7
