REMARK  Name = ZINC09127212
REMARK  12 active torsions:
REMARK  status: ('A' for Active; 'I' for Inactive)
REMARK    1  A    between atoms: C_1  and  C_2
REMARK    2  A    between atoms: C_2  and  C_4
REMARK    3  A    between atoms: C_2  and  N_60
REMARK    4  A    between atoms: C_7  and  S_16
REMARK    5  A    between atoms: N_8  and  C_9
REMARK    6  A    between atoms: S_16  and  C_17
REMARK    7  A    between atoms: C_17  and  C_19
REMARK    8  A    between atoms: C_17  and  C_20
REMARK    9  A    between atoms: N_22  and  C_23
REMARK   10  A    between atoms: C_23  and  C_29
REMARK   11  A    between atoms: C_31  and  N_60
REMARK   12  A    between atoms: C_32  and  N_60
REMARK                            x       y       z     vdW  Elec       q    Type
REMARK                         _______ _______ _______ _____ _____    ______ ____
ROOT
ATOM      1  C   UNL     1      -1.232   0.449  -4.623  0.00  0.00    +0.125 A 
ATOM      2  N   UNL     1      -1.944   0.924  -3.641  0.00  0.00    -0.135 NA
ATOM      3  N   UNL     1      -1.379   0.658  -2.517  0.00  0.00    -0.122 NA
ATOM      4  C   UNL     1      -0.266  -0.007  -2.721  0.00  0.00    +0.197 A 
ATOM      5  N   UNL     1      -0.133  -0.158  -4.074  0.00  0.00    -0.275 N 
ENDROOT
BRANCH   5   6
ATOM      6  C   UNL     1       0.910  -0.801  -4.757  0.00  0.00    +0.050 A 
ATOM      7  C   UNL     1       1.746  -0.075  -5.593  0.00  0.00    +0.028 A 
ATOM      8  C   UNL     1       2.775  -0.710  -6.261  0.00  0.00    +0.022 A 
ATOM      9  C   UNL     1       2.966  -2.072  -6.104  0.00  0.00    +0.041 A 
ATOM     10  C   UNL     1       2.130  -2.799  -5.275  0.00  0.00    +0.022 A 
ATOM     11  C   UNL     1       1.103  -2.167  -4.602  0.00  0.00    +0.028 A 
ATOM     12 CL   UNL     1       4.256  -2.869  -6.949  0.00  0.00    -0.084 Cl
ENDBRANCH   5   6
BRANCH   1  14
ATOM     13  C   UNL     1      -1.271   1.976  -6.577  0.00  0.00    -0.005 C 
ATOM     14  C   UNL     1      -1.554   0.553  -6.092  0.00  0.00    -0.003 C 
BRANCH  14  17
ATOM     15  C   UNL     1      -3.837   1.248  -5.685  0.00  0.00    -0.096 C 
ATOM     16  C   UNL     1      -3.270   0.094  -7.737  0.00  0.00    -0.096 C 
ATOM     17  N   UNL     1      -2.977   0.210  -6.293  0.00  0.00    +0.382 N 
ATOM     18  H   UNL     1      -3.171  -0.691  -5.840  0.00  0.00    -0.082 HD
ENDBRANCH  14  17
ENDBRANCH   1  14
BRANCH   4  19
ATOM     19  S   UNL     1       0.849  -0.588  -1.487  0.00  0.00    -0.073 S 
BRANCH  19  20
ATOM     20  C   UNL     1       0.002  -0.004   0.002  0.00  0.00    +0.137 C 
ATOM     21  C   UNL     1      -0.019   1.526   0.010  0.00  0.00    +0.029 C 
BRANCH  20  22
ATOM     22  C   UNL     1       0.731  -0.503   1.223  0.00  0.00    +0.227 C 
ATOM     23  O   UNL     1       1.911  -0.775   1.156  0.00  0.00    -0.275 OA
ATOM     24  N   UNL     1       0.071  -0.647   2.389  0.00  0.00    -0.296 N 
ATOM     25  H   UNL     1      -0.872  -0.430   2.443  0.00  0.00    +0.150 HD
BRANCH  24  26
ATOM     26  C   UNL     1       0.780  -1.133   3.576  0.00  0.00    +0.121 C 
ATOM     27  C   UNL     1       1.347  -2.526   3.298  0.00  0.00    +0.041 C 
ATOM     28  C   UNL     1       2.087  -3.033   4.537  0.00  0.00    +0.003 C 
ATOM     29  C   UNL     1       1.116  -3.104   5.717  0.00  0.00    +0.000 C 
ATOM     30  C   UNL     1       0.549  -1.711   5.996  0.00  0.00    +0.003 C 
ATOM     31  C   UNL     1      -0.191  -1.204   4.756  0.00  0.00    +0.041 C 
BRANCH  26  32
ATOM     32  C   UNL     1       1.881  -0.211   3.902  0.00  0.00    +0.088 C 
ATOM     33  N   UNL     1       2.731   0.500   4.153  0.00  0.00    -0.194 NA
ENDBRANCH  26  32
ENDBRANCH  24  26
ENDBRANCH  20  22
ENDBRANCH  19  20
ENDBRANCH   4  19
TORSDOF 8
