REMARK  Name = ZINC17188831
REMARK  12 active torsions:
REMARK  status: ('A' for Active; 'I' for Inactive)
REMARK    1  A    between atoms: C_1  and  C_2
REMARK    2  A    between atoms: C_2  and  C_3
REMARK    3  A    between atoms: C_3  and  C_5
REMARK    4  A    between atoms: C_3  and  C_6
REMARK    5  A    between atoms: C_6  and  C_7
REMARK    6  A    between atoms: C_8  and  C_33
REMARK    7  A    between atoms: C_16  and  S_18
REMARK    8  A    between atoms: S_18  and  C_19
REMARK    9  A    between atoms: C_19  and  C_20
REMARK   10  A    between atoms: N_22  and  N_23
REMARK   11  A    between atoms: C_24  and  C_26
REMARK   12  A    between atoms: C_29  and  C_32
REMARK                            x       y       z     vdW  Elec       q    Type
REMARK                         _______ _______ _______ _____ _____    ______ ____
ROOT
ATOM      1  C   UNL     1      10.709  -1.521  -0.108  0.00  0.00    -0.023 A 
ATOM      2  C   UNL     1      10.297  -2.798  -0.110  0.00  0.00    -0.007 A 
ATOM      3  S   UNL     1       8.519  -2.659  -0.093  0.00  0.00    -0.073 S 
ATOM      4  C   UNL     1       8.381  -0.890  -0.083  0.00  0.00    +0.117 A 
ATOM      5  C   UNL     1       9.720  -0.457  -0.093  0.00  0.00    +0.075 A 
ATOM      6  C   UNL     1       9.916   0.960  -0.088  0.00  0.00    +0.261 A 
ATOM      7  O   UNL     1      11.042   1.428  -0.096  0.00  0.00    -0.267 OA
ATOM      8  N   UNL     1       8.841   1.770  -0.079  0.00  0.00    -0.301 N 
ATOM      9  H   UNL     1       8.970   2.732  -0.079  0.00  0.00    +0.171 HD
ATOM     10  C   UNL     1       7.574   1.264  -0.064  0.00  0.00    +0.170 A 
ATOM     11  N   UNL     1       7.365  -0.036  -0.069  0.00  0.00    -0.216 NA
ATOM     12  C   UNL     1      11.136  -4.050  -0.124  0.00  0.00    +0.052 C 
ENDROOT
BRANCH   1  13
ATOM     13  C   UNL     1      12.180  -1.196  -0.119  0.00  0.00    +0.040 C 
BRANCH  13  14
ATOM     14  C   UNL     1      12.665  -1.078  -1.566  0.00  0.00    -0.010 C 
ATOM     15  C   UNL     1      12.546  -2.438  -2.256  0.00  0.00    +0.008 C 
BRANCH  14  17
ATOM     16  C   UNL     1      14.574  -0.388  -3.022  0.00  0.00    +0.004 C 
ATOM     17  C   UNL     1      14.126  -0.625  -1.578  0.00  0.00    +0.000 C 
ENDBRANCH  14  17
ENDBRANCH  13  14
ENDBRANCH   1  13
BRANCH  10  18
ATOM     18  S   UNL     1       6.199   2.366  -0.044  0.00  0.00    -0.078 S 
BRANCH  18  19
ATOM     19  C   UNL     1       4.839   1.171  -0.038  0.00  0.00    +0.174 C 
BRANCH  19  20
ATOM     20  C   UNL     1       3.524   1.907  -0.021  0.00  0.00    +0.239 C 
ATOM     21  O   UNL     1       3.508   3.119  -0.015  0.00  0.00    -0.273 OA
ATOM     22  N   UNL     1       2.366   1.217  -0.014  0.00  0.00    -0.233 N 
ATOM     23  H   UNL     1       2.379   0.247  -0.019  0.00  0.00    +0.173 HD
BRANCH  22  24
ATOM     24  N   UNL     1       1.143   1.901   0.001  0.00  0.00    -0.230 N 
ATOM     25  C   UNL     1      -0.014   1.211   0.009  0.00  0.00    +0.260 C 
ATOM     26  O   UNL     1       0.002  -0.004   0.002  0.00  0.00    -0.269 OA
ATOM     27  H   UNL     1       1.130   2.871   0.007  0.00  0.00    +0.173 HD
BRANCH  25  28
ATOM     28  C   UNL     1      -1.305   1.933   0.019  0.00  0.00    +0.038 A 
ATOM     29  C   UNL     1      -1.327   3.329   0.032  0.00  0.00    +0.013 A 
ATOM     30  C   UNL     1      -2.534   3.996   0.035  0.00  0.00    +0.004 A 
ATOM     31  C   UNL     1      -3.721   3.285   0.037  0.00  0.00    -0.050 A 
ATOM     32  C   UNL     1      -3.706   1.901   0.030  0.00  0.00    +0.004 A 
ATOM     33  C   UNL     1      -2.506   1.222   0.021  0.00  0.00    +0.013 A 
ATOM     34  C   UNL     1      -5.037   4.021   0.048  0.00  0.00    +0.044 C 
ENDBRANCH  25  28
ENDBRANCH  22  24
ENDBRANCH  19  20
ENDBRANCH  18  19
ENDBRANCH  10  18
TORSDOF 8
