REMARK  Name = ZINC12041102
REMARK  12 active torsions:
REMARK  status: ('A' for Active; 'I' for Inactive)
REMARK    1  A    between atoms: C_1  and  O_2
REMARK    2  A    between atoms: O_2  and  C_3
REMARK    3  A    between atoms: C_7  and  C_11
REMARK    4  A    between atoms: C_8  and  O_9
REMARK    5  A    between atoms: O_9  and  C_10
REMARK    6  A    between atoms: N_13  and  C_14
REMARK    7  A    between atoms: N_13  and  C_31
REMARK    8  A    between atoms: C_14  and  C_15
REMARK    9  A    between atoms: C_20  and  S_29
REMARK   10  A    between atoms: C_23  and  N_24
REMARK   11  A    between atoms: S_29  and  C_30
REMARK   12  A    between atoms: C_31  and  C_32
REMARK                            x       y       z     vdW  Elec       q    Type
REMARK                         _______ _______ _______ _____ _____    ______ ____
ROOT
ATOM      1  C   UNL     1       3.759   2.346   0.178  0.00  0.00    +0.251 C 
ATOM      2  O   UNL     1       2.664   1.833   0.309  0.00  0.00    -0.270 OA
ATOM      3  N   UNL     1       4.856   1.572   0.059  0.00  0.00    -0.291 N 
ENDROOT
BRANCH   1   8
ATOM      4  C   UNL     1       3.506   5.972   1.165  0.00  0.00    +0.162 A 
ATOM      5  C   UNL     1       4.129   6.581   0.089  0.00  0.00    +0.049 A 
ATOM      6  C   UNL     1       4.630   5.818  -0.954  0.00  0.00    +0.005 A 
ATOM      7  C   UNL     1       4.513   4.446  -0.930  0.00  0.00    +0.017 A 
ATOM      8  C   UNL     1       3.886   3.816   0.149  0.00  0.00    +0.082 A 
ATOM      9  C   UNL     1       3.380   4.587   1.202  0.00  0.00    +0.174 A 
BRANCH   4  11
ATOM     10  C   UNL     1       3.191   8.142   2.085  0.00  0.00    +0.277 C 
ATOM     11  O   UNL     1       3.022   6.727   2.187  0.00  0.00    -0.491 OA
ENDBRANCH   4  11
BRANCH   9  12
ATOM     12  O   UNL     1       2.770   3.986   2.256  0.00  0.00    -0.491 OA
ATOM     13  C   UNL     1       1.358   3.784   2.159  0.00  0.00    +0.277 C 
ENDBRANCH   9  12
ENDBRANCH   1   8
BRANCH   3  14
ATOM     14  C   UNL     1       6.186   2.187   0.023  0.00  0.00    +0.146 C 
BRANCH  14  15
ATOM     15  C   UNL     1       6.725   2.299   1.426  0.00  0.00    +0.008 A 
ATOM     16  C   UNL     1       6.617   3.475   2.107  0.00  0.00    +0.018 A 
ATOM     17  C   UNL     1       7.133   3.539   3.416  0.00  0.00    -0.001 A 
ATOM     18  C   UNL     1       7.053   4.721   4.170  0.00  0.00    +0.011 A 
ATOM     19  C   UNL     1       7.559   4.756   5.431  0.00  0.00    +0.015 A 
ATOM     20  C   UNL     1       8.163   3.624   5.993  0.00  0.00    +0.010 A 
ATOM     21  C   UNL     1       8.257   2.449   5.277  0.00  0.00    +0.041 A 
ATOM     22  C   UNL     1       7.742   2.387   3.974  0.00  0.00    +0.049 A 
ATOM     23  C   UNL     1       7.334   1.193   2.034  0.00  0.00    +0.104 A 
ATOM     24  N   UNL     1       7.853   1.198   3.287  0.00  0.00    -0.343 N 
ATOM     25  H   UNL     1       8.300   0.369   3.697  0.00  0.00    +0.167 HD
BRANCH  23  26
ATOM     26  N   UNL     1       7.432   0.002   1.330  0.00  0.00    -0.316 N 
ATOM     27  C   UNL     1       8.782  -0.153   0.731  0.00  0.00    +0.106 C 
ATOM     28  C   UNL     1       8.882  -1.677   0.471  0.00  0.00    +0.020 C 
ATOM     29  C   UNL     1       8.162  -2.285   1.696  0.00  0.00    +0.020 C 
ATOM     30  C   UNL     1       7.253  -1.161   2.227  0.00  0.00    +0.106 C 
ENDBRANCH  23  26
BRANCH  20  31
ATOM     31  S   UNL     1       8.809   3.702   7.630  0.00  0.00    -0.129 S 
ATOM     32  C   UNL     1       8.464   5.403   8.157  0.00  0.00    +0.090 C 
ENDBRANCH  20  31
ENDBRANCH  14  15
ENDBRANCH   3  14
BRANCH   3  33
ATOM     33  C   UNL     1       4.719   0.117  -0.035  0.00  0.00    +0.140 C 
BRANCH  33  34
ATOM     34  C   UNL     1       4.721  -0.302  -1.506  0.00  0.00    +0.136 C 
ATOM     35  C   UNL     1       4.578  -1.833  -1.616  0.00  0.00    +0.035 C 
ATOM     36  C   UNL     1       3.296  -2.034  -2.460  0.00  0.00    +0.031 C 
ATOM     37  C   UNL     1       3.163  -0.668  -3.180  0.00  0.00    +0.160 C 
ATOM     38  O   UNL     1       3.595   0.282  -2.182  0.00  0.00    -0.375 OA
ENDBRANCH  33  34
ENDBRANCH   3  33
TORSDOF 9
