REMARK  Name = ZINC05790107
REMARK  10 active torsions:
REMARK  status: ('A' for Active; 'I' for Inactive)
REMARK    1  A    between atoms: C_1  and  C_2
REMARK    2  A    between atoms: C_2  and  C_3
REMARK    3  A    between atoms: C_6  and  C_9
REMARK    4  A    between atoms: C_12  and  C_23
REMARK    5  A    between atoms: N_19  and  C_20
REMARK    6  A    between atoms: C_20  and  C_21
REMARK    7  A    between atoms: C_21  and  O_22
REMARK    8  A    between atoms: C_25  and  C_31
REMARK    9  A    between atoms: C_27  and  C_30
REMARK   10  A    between atoms: C_28  and  O_29
REMARK                            x       y       z     vdW  Elec       q    Type
REMARK                         _______ _______ _______ _____ _____    ______ ____
ROOT
ATOM      1  C   UNL     1      -5.454  -1.847   0.134  0.00  0.00    +0.141 C 
ATOM      2  C   UNL     1      -5.355  -3.333  -0.084  0.00  0.00    +0.035 A 
ATOM      3  C   UNL     1      -4.894  -4.566   0.388  0.00  0.00    +0.102 A 
ATOM      4  N   UNL     1      -5.260  -5.484  -0.484  0.00  0.00    -0.173 NA
ATOM      5  N   UNL     1      -5.906  -4.953  -1.461  0.00  0.00    -0.272 N 
ATOM      6  H   UNL     1      -6.271  -5.439  -2.217  0.00  0.00    +0.189 HD
ATOM      7  C   UNL     1      -6.003  -3.603  -1.274  0.00  0.00    +0.126 A 
ATOM      8  C   UNL     1      -6.513  -2.343  -1.825  0.00  0.00    +0.266 C 
ATOM      9  O   UNL     1      -7.131  -2.240  -2.868  0.00  0.00    -0.268 OA
ATOM     10  N   UNL     1      -6.199  -1.315  -1.014  0.00  0.00    -0.283 N 
ENDROOT
BRANCH   3  11
ATOM     11  C   UNL     1      -4.133  -4.798   1.641  0.00  0.00    +0.044 A 
ATOM     12  C   UNL     1      -3.925  -3.753   2.537  0.00  0.00    +0.017 A 
ATOM     13  C   UNL     1      -3.217  -3.974   3.701  0.00  0.00    -0.049 A 
ATOM     14  C   UNL     1      -2.712  -5.231   3.981  0.00  0.00    +0.010 A 
ATOM     15  C   UNL     1      -2.913  -6.275   3.099  0.00  0.00    -0.008 A 
ATOM     16  C   UNL     1      -3.627  -6.069   1.930  0.00  0.00    +0.129 A 
ATOM     17  C   UNL     1      -2.360  -7.642   3.411  0.00  0.00    +0.047 C 
ATOM     18  C   UNL     1      -2.992  -2.841   4.669  0.00  0.00    +0.044 C 
BRANCH  16  19
ATOM     19  O   UNL     1      -3.831  -7.096   1.064  0.00  0.00    -0.506 OA
ATOM     20  H   UNL     1      -3.139  -7.190   0.395  0.00  0.00    +0.292 HD
ENDBRANCH  16  19
ENDBRANCH   3  11
BRANCH   1  24
ATOM     21  C   UNL     1      -1.550  -0.118   0.279  0.00  0.00    -0.048 A 
ATOM     22  C   UNL     1      -2.025  -0.655  -0.903  0.00  0.00    +0.004 A 
ATOM     23  C   UNL     1      -3.288  -1.215  -0.950  0.00  0.00    +0.006 A 
ATOM     24  C   UNL     1      -4.076  -1.238   0.185  0.00  0.00    -0.022 A 
ATOM     25  C   UNL     1      -3.601  -0.702   1.368  0.00  0.00    +0.006 A 
ATOM     26  C   UNL     1      -2.336  -0.146   1.416  0.00  0.00    +0.004 A 
BRANCH  21  28
ATOM     27  C   UNL     1       0.849  -0.585   0.700  0.00  0.00    +0.009 C 
ATOM     28  C   UNL     1      -0.173   0.492   0.330  0.00  0.00    +0.032 C 
ENDBRANCH  21  28
ENDBRANCH   1  24
BRANCH  10  29
ATOM     29  C   UNL     1      -6.543   0.092  -1.236  0.00  0.00    +0.137 C 
BRANCH  29  30
ATOM     30  C   UNL     1      -5.494   0.735  -2.146  0.00  0.00    +0.175 C 
BRANCH  30  31
ATOM     31  O   UNL     1      -5.551   0.131  -3.440  0.00  0.00    -0.393 OA
ATOM     32  H   UNL     1      -4.912   0.490  -4.070  0.00  0.00    +0.209 HD
ENDBRANCH  30  31
ENDBRANCH  29  30
ENDBRANCH  10  29
TORSDOF 7
