REMARK  Name = ZINC21319211
REMARK  8 active torsions:
REMARK  status: ('A' for Active; 'I' for Inactive)
REMARK    1  A    between atoms: C_10  and  N_11
REMARK    2  A    between atoms: C_12  and  C_14
REMARK    3  A    between atoms: C_14  and  S_15
REMARK    4  A    between atoms: S_15  and  C_16
REMARK    5  A    between atoms: N_20  and  N_21
REMARK    6  A    between atoms: N_22  and  N_23
REMARK    7  A    between atoms: C_24  and  C_25
REMARK    8  A    between atoms: C_30  and  O_31
REMARK                            x       y       z     vdW  Elec       q    Type
REMARK                         _______ _______ _______ _____ _____    ______ ____
ROOT
ATOM      1  C   UNL     1      -0.262   1.766  -2.290  0.00  0.00    +0.210 A 
ATOM      2  N   UNL     1      -1.263   2.195  -3.021  0.00  0.00    -0.119 NA
ATOM      3  N   UNL     1      -2.420   2.165  -2.230  0.00  0.00    -0.109 NA
ATOM      4  C   UNL     1      -2.088   1.715  -1.044  0.00  0.00    +0.254 A 
ATOM      5  N   UNL     1      -0.746   1.454  -1.052  0.00  0.00    -0.211 N 
ATOM      6  N   UNL     1      -2.948   1.536   0.030  0.00  0.00    -0.204 N 
ATOM      7  H   UNL     1      -2.562   1.150   0.985  0.00  0.00    +0.177 HD
ENDROOT
BRANCH   5   8
ATOM      8  N   UNL     1      -0.016   0.971  -0.003  0.00  0.00    -0.294 N 
ATOM      9  H   UNL     1      -0.510   0.751   0.956  0.00  0.00    +0.163 HD
ATOM     10  H   UNL     1       1.064   0.801  -0.117  0.00  0.00    +0.163 HD
ENDBRANCH   5   8
BRANCH   6  11
ATOM     11  N   UNL     1      -4.308   1.845  -0.102  0.00  0.00    -0.187 NA
ATOM     12  C   UNL     1      -5.113   1.678   0.903  0.00  0.00    +0.142 C 
BRANCH  12  13
ATOM     13  C   UNL     1      -6.543   2.004   0.764  0.00  0.00    +0.037 A 
ATOM     14  C   UNL     1      -7.412   1.825   1.843  0.00  0.00    +0.028 A 
ATOM     15  C   UNL     1      -8.751   2.132   1.706  0.00  0.00    +0.019 A 
ATOM     16  C   UNL     1      -9.236   2.616   0.503  0.00  0.00    +0.019 A 
ATOM     17  C   UNL     1      -8.385   2.798  -0.572  0.00  0.00    +0.047 A 
ATOM     18  C   UNL     1      -7.038   2.500  -0.449  0.00  0.00    +0.126 A 
ATOM     19 BR   UNL     1      -9.927   1.889   3.167  0.00  0.00    -0.050 Br
BRANCH  18  20
ATOM     20  O   UNL     1      -6.201   2.684  -1.503  0.00  0.00    -0.506 OA
ATOM     21  H   UNL     1      -6.591   3.074  -2.455  0.00  0.00    +0.292 HD
ENDBRANCH  18  20
ENDBRANCH  12  13
ENDBRANCH   6  11
BRANCH   1  22
ATOM     22  S   UNL     1       1.413   1.617  -2.815  0.00  0.00    -0.075 S 
BRANCH  22  23
ATOM     23  C   UNL     1       1.386   2.186  -4.537  0.00  0.00    +0.173 C 
BRANCH  23  25
ATOM     24  N   UNL     1       2.998   2.484  -6.389  0.00  0.00    -0.284 N 
ATOM     25  C   UNL     1       2.776   2.108  -5.114  0.00  0.00    +0.228 C 
ATOM     26  O   UNL     1       3.695   1.708  -4.431  0.00  0.00    -0.275 OA
ATOM     27  H   UNL     1       2.155   2.776  -7.032  0.00  0.00    +0.155 HD
BRANCH  24  37
ATOM     28  C   UNL     1       5.493   5.394  -9.672  0.00  0.00    +0.001 A 
ATOM     29  C   UNL     1       4.189   5.394  -9.181  0.00  0.00    +0.001 A 
ATOM     30  C   UNL     1       3.782   4.461  -8.277  0.00  0.00    +0.010 A 
ATOM     31  C   UNL     1       4.684   3.481  -7.835  0.00  0.00    +0.003 A 
ATOM     32  C   UNL     1       6.012   3.483  -8.331  0.00  0.00    -0.016 A 
ATOM     33  C   UNL     1       6.396   4.462  -9.264  0.00  0.00    +0.008 A 
ATOM     34  C   UNL     1       6.917   2.505  -7.887  0.00  0.00    +0.008 A 
ATOM     35  C   UNL     1       6.517   1.568  -6.983  0.00  0.00    +0.002 A 
ATOM     36  C   UNL     1       5.218   1.559  -6.485  0.00  0.00    +0.024 A 
ATOM     37  C   UNL     1       4.300   2.502  -6.895  0.00  0.00    +0.041 A 
ENDBRANCH  24  37
ENDBRANCH  23  25
ENDBRANCH  22  23
ENDBRANCH   1  22
TORSDOF 8
