REMARK  Name = ZINC59334232
REMARK  10 active torsions:
REMARK  status: ('A' for Active; 'I' for Inactive)
REMARK    1  A    between atoms: C_1  and  C_2
REMARK    2  A    between atoms: C_2  and  C_4
REMARK    3  A    between atoms: C_2  and  N_11
REMARK    4  A    between atoms: N_11  and  C_12
REMARK    5  A    between atoms: N_11  and  C_27
REMARK    6  A    between atoms: C_12  and  C_13
REMARK    7  A    between atoms: N_15  and  C_16
REMARK    8  A    between atoms: C_16  and  C_17
REMARK    9  A    between atoms: C_20  and  S_23
REMARK   10  A    between atoms: S_23  and  N_26
REMARK                            x       y       z     vdW  Elec       q    Type
REMARK                         _______ _______ _______ _____ _____    ______ ____
ROOT
ATOM      1  C   UNL     1       3.059   0.163  -2.135  0.00  0.00    +0.197 C 
ATOM      2  O   UNL     1       2.605  -0.348  -3.138  0.00  0.00    -0.278 OA
ATOM      3  N   UNL     1       4.317   0.646  -2.136  0.00  0.00    -0.313 N 
ATOM      4  H   UNL     1       4.680   1.054  -1.334  0.00  0.00    +0.149 HD
ENDROOT
BRANCH   1   5
ATOM      5  C   UNL     1       2.216   0.257  -0.890  0.00  0.00    +0.020 C 
BRANCH   5   6
ATOM      6  N   UNL     1       0.897  -0.336  -1.146  0.00  0.00    +0.392 N 
ATOM      7  H   UNL     1       0.497   0.078  -1.974  0.00  0.00    -0.080 HD
BRANCH   6   8
ATOM      8  C   UNL     1       1.040  -1.785  -1.343  0.00  0.00    -0.067 C 
ATOM      9  C   UNL     1       0.675  -2.351  -2.716  0.00  0.00    -0.017 C 
ATOM     10  C   UNL     1      -0.240  -2.605  -1.516  0.00  0.00    -0.017 C 
ENDBRANCH   6   8
BRANCH   6  12
ATOM     11  C   UNL     1       0.795  -0.296   1.301  0.00  0.00    -0.008 C 
ATOM     12  C   UNL     1       0.015  -0.083   0.002  0.00  0.00    -0.038 C 
BRANCH  12  13
ATOM     13  C   UNL     1      -0.488   1.336  -0.055  0.00  0.00    -0.043 A 
ATOM     14  C   UNL     1       0.127   2.256  -0.884  0.00  0.00    +0.003 A 
ATOM     15  C   UNL     1      -0.335   3.557  -0.936  0.00  0.00    +0.000 A 
ATOM     16  C   UNL     1      -1.412   3.941  -0.159  0.00  0.00    +0.001 A 
ATOM     17  C   UNL     1      -2.028   3.023   0.670  0.00  0.00    +0.020 A 
ATOM     18  C   UNL     1      -1.569   1.718   0.719  0.00  0.00    +0.043 A 
ATOM     19 CL   UNL     1      -2.347   0.563   1.756  0.00  0.00    -0.083 Cl
ENDBRANCH  12  13
ENDBRANCH   6  12
ENDBRANCH   5   6
ENDBRANCH   1   5
BRANCH   3  20
ATOM     20  C   UNL     1       5.137   0.555  -3.347  0.00  0.00    +0.139 C 
BRANCH  20  21
ATOM     21  C   UNL     1       6.490   1.163  -3.084  0.00  0.00    -0.030 A 
ATOM     22  C   UNL     1       6.700   2.509  -3.316  0.00  0.00    +0.007 A 
ATOM     23  C   UNL     1       7.941   3.067  -3.076  0.00  0.00    +0.029 A 
ATOM     24  C   UNL     1       8.973   2.279  -2.603  0.00  0.00    +0.105 A 
ATOM     25  C   UNL     1       8.764   0.932  -2.369  0.00  0.00    +0.029 A 
ATOM     26  C   UNL     1       7.521   0.375  -2.606  0.00  0.00    +0.007 A 
BRANCH  24  27
ATOM     27  S   UNL     1      10.556   2.990  -2.297  0.00  0.00    +0.056 S 
ATOM     28  O   UNL     1      11.500   1.930  -2.376  0.00  0.00    -0.153 OA
ATOM     29  O   UNL     1      10.645   4.151  -3.111  0.00  0.00    -0.153 OA
BRANCH  27  30
ATOM     30  N   UNL     1      10.563   3.512  -0.725  0.00  0.00    -0.204 NA
ATOM     31  H   UNL     1      11.393   3.527  -0.223  0.00  0.00    +0.144 HD
ATOM     32  H   UNL     1       9.738   3.804  -0.308  0.00  0.00    +0.144 HD
ENDBRANCH  27  30
ENDBRANCH  24  27
ENDBRANCH  20  21
ENDBRANCH   3  20
TORSDOF 9
