REMARK  Name = ZINC22624465
REMARK  4 active torsions:
REMARK  status: ('A' for Active; 'I' for Inactive)
REMARK    1  A    between atoms: C_3  and  C_20
REMARK    2  A    between atoms: C_6  and  C_7
REMARK    3  A    between atoms: C_10  and  C_12
REMARK    4  A    between atoms: N_14  and  C_15
REMARK                            x       y       z     vdW  Elec       q    Type
REMARK                         _______ _______ _______ _____ _____    ______ ____
ROOT
ATOM      1  C   UNL     1      -2.521   3.870   0.044  0.00  0.00    +0.020 A 
ATOM      2  C   UNL     1      -3.809   3.359   0.047  0.00  0.00    +0.017 A 
ATOM      3  C   UNL     1      -4.862   4.230   0.067  0.00  0.00    +0.021 A 
ATOM      4  C   UNL     1      -4.600   5.592   0.070  0.00  0.00    +0.074 A 
ATOM      5  S   UNL     1      -2.815   5.631   0.054  0.00  0.00    -0.084 S 
ENDROOT
BRANCH   1  11
ATOM      6  C   UNL     1      -1.217   1.748   0.017  0.00  0.00    +0.009 A 
ATOM      7  C   UNL     1      -0.013   1.076   0.008  0.00  0.00    +0.004 A 
ATOM      8  C   UNL     1       1.177   1.782   0.000  0.00  0.00    -0.044 A 
ATOM      9  C   UNL     1       1.167   3.166   0.008  0.00  0.00    +0.004 A 
ATOM     10  C   UNL     1      -0.031   3.850   0.022  0.00  0.00    +0.009 A 
ATOM     11  C   UNL     1      -1.234   3.143   0.029  0.00  0.00    -0.011 A 
BRANCH   8  12
ATOM     12  C   UNL     1       2.489   1.042  -0.016  0.00  0.00    +0.019 C 
ATOM     13  C   UNL     1       3.300   1.413   1.228  0.00  0.00    +0.008 C 
ATOM     14  C   UNL     1       4.632   0.661   1.212  0.00  0.00    +0.001 C 
ATOM     15  C   UNL     1       5.419   1.044  -0.043  0.00  0.00    +0.000 C 
ATOM     16  C   UNL     1       4.609   0.673  -1.287  0.00  0.00    +0.001 C 
ATOM     17  C   UNL     1       3.276   1.425  -1.270  0.00  0.00    +0.008 C 
ENDBRANCH   8  12
ENDBRANCH   1  11
BRANCH   4  18
ATOM     18  C   UNL     1      -5.545   6.712   0.084  0.00  0.00    +0.251 C 
ATOM     19  O   UNL     1      -6.743   6.497   0.094  0.00  0.00    -0.270 OA
ATOM     20  N   UNL     1      -5.088   7.979   0.086  0.00  0.00    -0.308 N 
ATOM     21  H   UNL     1      -4.005   8.174   0.077  0.00  0.00    +0.149 HD
BRANCH  20  22
ATOM     22  C   UNL     1      -6.032   9.099   0.100  0.00  0.00    +0.073 C 
ATOM     23  C   UNL     1      -6.429   9.474  -1.343  0.00  0.00    +0.022 C 
ATOM     24  C   UNL     1      -6.545  11.018  -1.316  0.00  0.00    +0.002 C 
ATOM     25  C   UNL     1      -5.380  11.432  -0.383  0.00  0.00    +0.002 C 
ATOM     26  C   UNL     1      -5.366  10.344   0.710  0.00  0.00    +0.022 C 
ENDBRANCH  20  22
ENDBRANCH   4  18
TORSDOF 4
