REMARK  Name = ZINC22012974
REMARK  8 active torsions:
REMARK  status: ('A' for Active; 'I' for Inactive)
REMARK    1  A    between atoms: C_3  and  C_21
REMARK    2  A    between atoms: C_6  and  C_7
REMARK    3  A    between atoms: C_7  and  N_8
REMARK    4  A    between atoms: C_15  and  S_17
REMARK    5  A    between atoms: S_17  and  N_20
REMARK    6  A    between atoms: C_21  and  N_22
REMARK    7  A    between atoms: C_29  and  S_31
REMARK    8  A    between atoms: S_31  and  N_34
REMARK                            x       y       z     vdW  Elec       q    Type
REMARK                         _______ _______ _______ _____ _____    ______ ____
ROOT
ATOM      1  C   UNL     1       2.043  -3.739   3.297  0.00  0.00    +0.005 A 
ATOM      2  C   UNL     1       2.198  -3.260   4.585  0.00  0.00    +0.005 A 
ATOM      3  C   UNL     1       1.597  -2.073   4.958  0.00  0.00    -0.030 A 
ATOM      4  C   UNL     1       0.842  -1.363   4.043  0.00  0.00    +0.005 A 
ATOM      5  C   UNL     1       0.689  -1.840   2.754  0.00  0.00    +0.005 A 
ATOM      6  C   UNL     1       1.292  -3.027   2.381  0.00  0.00    -0.030 A 
ENDROOT
BRANCH   6   7
ATOM      7  C   UNL     1       1.126  -3.547   0.976  0.00  0.00    +0.140 C 
BRANCH   7   8
ATOM      8  N   UNL     1       2.202  -3.019   0.128  0.00  0.00    -0.325 N 
ATOM      9  C   UNL     1       3.524  -3.230   0.755  0.00  0.00    +0.110 C 
ATOM     10  C   UNL     1       4.340  -2.022   0.242  0.00  0.00    +0.056 C 
ATOM     11  C   UNL     1       3.268  -0.989  -0.043  0.00  0.00    -0.023 A 
ATOM     12  C   UNL     1       2.042  -1.644  -0.087  0.00  0.00    +0.033 A 
ATOM     13  C   UNL     1       0.886  -0.904  -0.328  0.00  0.00    +0.025 A 
ATOM     14  C   UNL     1       0.964   0.460  -0.523  0.00  0.00    +0.030 A 
ATOM     15  C   UNL     1       2.188   1.101  -0.482  0.00  0.00    +0.105 A 
ATOM     16  C   UNL     1       3.340   0.374  -0.241  0.00  0.00    +0.034 A 
BRANCH  15  17
ATOM     17  S   UNL     1       2.280   2.842  -0.735  0.00  0.00    +0.056 S 
ATOM     18  O   UNL     1       3.599   3.118  -1.188  0.00  0.00    -0.153 OA
ATOM     19  O   UNL     1       1.127   3.206  -1.481  0.00  0.00    -0.153 OA
BRANCH  17  20
ATOM     20  N   UNL     1       2.130   3.562   0.749  0.00  0.00    -0.204 NA
ATOM     21  H   UNL     1       2.182   4.654   0.634  0.00  0.00    +0.144 HD
ATOM     22  H   UNL     1       2.945   3.222   1.405  0.00  0.00    +0.144 HD
ENDBRANCH  17  20
ENDBRANCH  15  17
ENDBRANCH   7   8
ENDBRANCH   6   7
BRANCH   3  23
ATOM     23  C   UNL     1       1.764  -1.552   6.362  0.00  0.00    +0.140 C 
BRANCH  23  24
ATOM     24  N   UNL     1       0.761  -2.175   7.237  0.00  0.00    -0.325 N 
ATOM     25  C   UNL     1      -0.607  -1.765   6.851  0.00  0.00    +0.110 C 
ATOM     26  C   UNL     1      -1.360  -1.789   8.201  0.00  0.00    +0.056 C 
ATOM     27  C   UNL     1      -0.251  -1.565   9.210  0.00  0.00    -0.023 A 
ATOM     28  C   UNL     1       0.961  -1.804   8.572  0.00  0.00    +0.033 A 
ATOM     29  C   UNL     1       2.145  -1.653   9.292  0.00  0.00    +0.025 A 
ATOM     30  C   UNL     1       2.108  -1.280  10.619  0.00  0.00    +0.030 A 
ATOM     31  C   UNL     1       0.897  -1.051  11.245  0.00  0.00    +0.105 A 
ATOM     32  C   UNL     1      -0.283  -1.194  10.537  0.00  0.00    +0.034 A 
BRANCH  31  33
ATOM     33  S   UNL     1       0.856  -0.576  12.941  0.00  0.00    +0.056 S 
ATOM     34  O   UNL     1       2.114   0.019  13.227  0.00  0.00    -0.153 OA
ATOM     35  O   UNL     1      -0.373   0.109  13.142  0.00  0.00    -0.153 OA
BRANCH  33  36
ATOM     36  N   UNL     1       0.775  -1.966  13.837  0.00  0.00    -0.204 NA
ATOM     37  H   UNL     1       0.747  -1.712  14.907  0.00  0.00    +0.144 HD
ATOM     38  H   UNL     1       1.659  -2.588  13.631  0.00  0.00    +0.144 HD
ENDBRANCH  33  36
ENDBRANCH  31  33
ENDBRANCH  23  24
ENDBRANCH   3  23
TORSDOF 8
