REMARK  Name = ZINC33810359
REMARK  9 active torsions:
REMARK  status: ('A' for Active; 'I' for Inactive)
REMARK    1  A    between atoms: C_1  and  C_2
REMARK    2  A    between atoms: C_2  and  C_32
REMARK    3  A    between atoms: C_6  and  C_20
REMARK    4  A    between atoms: C_11  and  S_15
REMARK    5  A    between atoms: S_15  and  C_16
REMARK    6  A    between atoms: C_16  and  C_17
REMARK    7  A    between atoms: C_23  and  O_27
REMARK    8  A    between atoms: C_24  and  O_26
REMARK    9  A    between atoms: O_27  and  C_28
REMARK                            x       y       z     vdW  Elec       q    Type
REMARK                         _______ _______ _______ _____ _____    ______ ____
ROOT
ATOM      1  C   UNL     1       3.735  -4.879  -1.088  0.00  0.00    +0.011 C 
ATOM      2  C   UNL     1       3.506  -4.923   0.424  0.00  0.00    -0.023 C 
ATOM      3  C   UNL     1       2.221  -4.169   0.773  0.00  0.00    +0.058 C 
ATOM      4  C   UNL     1       2.354  -2.724   0.358  0.00  0.00    +0.017 C 
ATOM      5  C   UNL     1       3.555  -2.108   0.361  0.00  0.00    +0.024 C 
ATOM      6  C   UNL     1       3.687  -0.664  -0.051  0.00  0.00    +0.093 C 
ATOM      7  C   UNL     1       2.358   0.034  -0.025  0.00  0.00    +0.069 A 
ATOM      8  C   UNL     1       1.197  -0.674  -0.015  0.00  0.00    +0.135 A 
ATOM      9  N   UNL     1       0.002  -0.004   0.002  0.00  0.00    -0.208 NA
ATOM     10  C   UNL     1      -0.016   1.358   0.009  0.00  0.00    +0.171 A 
ATOM     11  N   UNL     1       1.101   2.055   0.003  0.00  0.00    -0.302 N 
ATOM     12  C   UNL     1       2.296   1.444  -0.012  0.00  0.00    +0.258 A 
ATOM     13  O   UNL     1       3.324   2.105  -0.015  0.00  0.00    -0.267 OA
ATOM     14  N   UNL     1       1.225  -2.050  -0.019  0.00  0.00    -0.302 N 
ATOM     15  C   UNL     1       4.721  -2.794   0.744  0.00  0.00    +0.162 C 
ATOM     16  O   UNL     1       5.783  -2.205   0.754  0.00  0.00    -0.292 OA
ATOM     17  C   UNL     1       4.677  -4.244   1.142  0.00  0.00    +0.086 C 
ATOM     18  C   UNL     1       3.395  -6.378   0.885  0.00  0.00    +0.011 C 
ATOM     19  H   UNL     1       0.329  -2.607  -0.329  0.00  0.00    +0.153 HD
ATOM     20  H   UNL     1       1.064   3.154   0.009  0.00  0.00    +0.171 HD
ENDROOT
BRANCH   6  21
ATOM     21  C   UNL     1       4.251  -0.598  -1.447  0.00  0.00    -0.032 A 
ATOM     22  C   UNL     1       3.571  -1.191  -2.495  0.00  0.00    +0.008 A 
ATOM     23  C   UNL     1       4.085  -1.133  -3.777  0.00  0.00    +0.050 A 
ATOM     24  C   UNL     1       5.284  -0.480  -4.014  0.00  0.00    +0.161 A 
ATOM     25  C   UNL     1       5.969   0.116  -2.959  0.00  0.00    +0.159 A 
ATOM     26  C   UNL     1       5.446   0.059  -1.677  0.00  0.00    +0.053 A 
BRANCH  25  27
ATOM     27  O   UNL     1       7.146   0.757  -3.187  0.00  0.00    -0.503 OA
ATOM     28  H   UNL     1       7.686   1.228  -2.353  0.00  0.00    +0.292 HD
ENDBRANCH  25  27
BRANCH  24  29
ATOM     29  O   UNL     1       5.791  -0.423  -5.275  0.00  0.00    -0.491 OA
ATOM     30  C   UNL     1       5.034  -1.057  -6.308  0.00  0.00    +0.277 C 
ENDBRANCH  24  29
ENDBRANCH   6  21
BRANCH  10  31
ATOM     31  S   UNL     1      -1.563   2.203   0.021  0.00  0.00    -0.084 S 
BRANCH  31  32
ATOM     32  C   UNL     1      -0.984   3.918   0.028  0.00  0.00    +0.104 C 
BRANCH  32  33
ATOM     33  C   UNL     1      -2.170   4.848   0.039  0.00  0.00    -0.023 C 
ATOM     34  C   UNL     1      -2.384   5.624   1.072  0.00  0.00    +0.005 C 
ENDBRANCH  32  33
ENDBRANCH  31  32
ENDBRANCH  10  31
TORSDOF 6
