REMARK  Name = ZINC63503278
REMARK  9 active torsions:
REMARK  status: ('A' for Active; 'I' for Inactive)
REMARK    1  A    between atoms: C_1  and  C_2
REMARK    2  A    between atoms: C_9  and  N_12
REMARK    3  A    between atoms: C_13  and  C_15
REMARK    4  A    between atoms: C_15  and  C_17
REMARK    5  A    between atoms: C_15  and  N_27
REMARK    6  A    between atoms: C_17  and  C_18
REMARK    7  A    between atoms: C_28  and  O_30
REMARK    8  A    between atoms: O_30  and  C_31
REMARK    9  A    between atoms: C_31  and  C_32
REMARK                            x       y       z     vdW  Elec       q    Type
REMARK                         _______ _______ _______ _____ _____    ______ ____
ROOT
ATOM      1  C   UNL     1       2.668  -7.165   2.945  0.00  0.00    +0.166 C 
ENDROOT
BRANCH   1   3
ATOM      2  N   UNL     1       1.291  -5.596   1.619  0.00  0.00    -0.287 N 
ATOM      3  C   UNL     1       1.415  -6.358   2.724  0.00  0.00    +0.236 C 
ATOM      4  O   UNL     1       0.518  -6.394   3.539  0.00  0.00    -0.274 OA
ATOM      5  H   UNL     1       2.008  -5.567   0.967  0.00  0.00    +0.151 HD
BRANCH   2  14
ATOM      6  C   UNL     1      -0.018   1.503   0.010  0.00  0.00    +0.044 C 
ATOM      7  C   UNL     1       0.002  -0.004   0.002  0.00  0.00    -0.049 A 
ATOM      8  C   UNL     1       0.006  -0.700  -1.193  0.00  0.00    +0.005 A 
ATOM      9  C   UNL     1       0.025  -2.075  -1.215  0.00  0.00    +0.024 A 
ATOM     10  C   UNL     1       0.040  -2.822  -0.023  0.00  0.00    +0.043 A 
ATOM     11  C   UNL     1       0.035  -2.090   1.168  0.00  0.00    +0.032 A 
ATOM     12  C   UNL     1       0.023  -0.714   1.191  0.00  0.00    +0.020 A 
ATOM     13  S   UNL     1       0.057  -3.310   2.462  0.00  0.00    -0.082 S 
ATOM     14  C   UNL     1       0.072  -4.811   1.404  0.00  0.00    +0.224 C 
ATOM     15  N   UNL     1       0.059  -4.213   0.062  0.00  0.00    -0.316 N 
ATOM     16  H   UNL     1       0.062  -4.766  -0.735  0.00  0.00    +0.149 HD
ENDBRANCH   2  14
ENDBRANCH   1   3
BRANCH   1  17
ATOM     17  N   UNL     1       2.558  -7.902   4.207  0.00  0.00    -0.270 N 
ATOM     18  C   UNL     1       3.671  -8.273   4.870  0.00  0.00    +0.401 C 
ATOM     19  O   UNL     1       4.766  -7.997   4.422  0.00  0.00    -0.226 OA
ATOM     20  H   UNL     1       1.683  -8.122   4.565  0.00  0.00    +0.153 HD
BRANCH  18  21
ATOM     21  O   UNL     1       3.569  -8.950   6.030  0.00  0.00    -0.446 OA
BRANCH  21  22
ATOM     22  C   UNL     1       4.790  -9.311   6.679  0.00  0.00    +0.269 C 
BRANCH  22  23
ATOM     23  C   UNL     1       4.481 -10.056   7.951  0.00  0.00    -0.010 A 
ATOM     24  C   UNL     1       4.319  -9.363   9.137  0.00  0.00    +0.007 A 
ATOM     25  C   UNL     1       4.036 -10.047  10.304  0.00  0.00    +0.000 A 
ATOM     26  C   UNL     1       3.913 -11.424  10.286  0.00  0.00    +0.000 A 
ATOM     27  C   UNL     1       4.074 -12.117   9.101  0.00  0.00    +0.000 A 
ATOM     28  C   UNL     1       4.353 -11.433   7.933  0.00  0.00    +0.007 A 
ENDBRANCH  22  23
ENDBRANCH  21  22
ENDBRANCH  18  21
ENDBRANCH   1  17
BRANCH   1  29
ATOM     29  C   UNL     1       2.848  -8.154   1.792  0.00  0.00    +0.065 C 
BRANCH  29  30
ATOM     30  C   UNL     1       4.162  -8.875   1.949  0.00  0.00    -0.039 C 
ATOM     31  C   UNL     1       4.365 -10.080   2.529  0.00  0.00    -0.001 A 
ATOM     32  C   UNL     1       3.457 -11.042   3.165  0.00  0.00    +0.010 A 
ATOM     33  C   UNL     1       3.966 -12.190   3.668  0.00  0.00    +0.001 A 
ATOM     34  C   UNL     1       5.335 -12.482   3.598  0.00  0.00    +0.002 A 
ATOM     35  C   UNL     1       6.231 -11.648   3.030  0.00  0.00    +0.026 A 
ATOM     36  C   UNL     1       5.806 -10.412   2.468  0.00  0.00    +0.043 A 
ATOM     37  N   UNL     1       6.469  -9.450   1.873  0.00  0.00    -0.380 N 
ATOM     38  C   UNL     1       5.521  -8.400   1.484  0.00  0.00    +0.144 C 
ATOM     39  H   UNL     1       7.426  -9.437   1.714  0.00  0.00    +0.160 HD
ENDBRANCH  29  30
ENDBRANCH   1  29
TORSDOF 8
