REMARK  Name = ZINC39597714
REMARK  9 active torsions:
REMARK  status: ('A' for Active; 'I' for Inactive)
REMARK    1  A    between atoms: C_1  and  C_2
REMARK    2  A    between atoms: C_2  and  C_3
REMARK    3  A    between atoms: C_3  and  C_4
REMARK    4  A    between atoms: C_3  and  C_6
REMARK    5  A    between atoms: C_4  and  C_5
REMARK    6  A    between atoms: C_10  and  C_19
REMARK    7  A    between atoms: N_21  and  C_22
REMARK    8  A    between atoms: C_22  and  C_23
REMARK    9  A    between atoms: C_23  and  C_24
REMARK                            x       y       z     vdW  Elec       q    Type
REMARK                         _______ _______ _______ _____ _____    ______ ____
ROOT
ATOM      1  C   UNL     1       0.177  -2.353  -1.284  0.00  0.00    +0.219 C 
ATOM      2  O   UNL     1       1.089  -3.142  -1.416  0.00  0.00    -0.275 OA
ATOM      3  N   UNL     1      -1.098  -2.768  -1.428  0.00  0.00    -0.300 N 
ATOM      4  C   UNL     1      -2.334  -1.959  -1.313  0.00  0.00    +0.121 C 
ATOM      5  C   UNL     1      -3.254  -2.490  -2.435  0.00  0.00    +0.100 C 
ATOM      6  C   UNL     1      -2.755  -3.919  -2.708  0.00  0.00    -0.004 C 
ATOM      7  C   UNL     1      -1.579  -4.134  -1.744  0.00  0.00    +0.115 C 
ATOM      8  C   UNL     1      -3.863  -4.929  -2.425  0.00  0.00    -0.010 C 
ATOM      9  C   UNL     1      -3.362  -6.336  -2.759  0.00  0.00    -0.082 C 
ATOM     10  N   UNL     1      -2.968  -6.395  -4.172  0.00  0.00    +0.379 N 
ATOM     11  C   UNL     1      -1.840  -5.488  -4.416  0.00  0.00    -0.082 C 
ATOM     12  C   UNL     1      -2.277  -4.045  -4.152  0.00  0.00    -0.010 C 
ATOM     13  H   UNL     1      -2.696  -7.338  -4.405  0.00  0.00    -0.086 HD
ATOM     14  H   UNL     1      -3.749  -6.121  -4.749  0.00  0.00    -0.086 HD
ENDROOT
BRANCH   5  15
ATOM     15  C   UNL     1      -3.119  -1.639  -3.671  0.00  0.00    +0.218 C 
ATOM     16  O   UNL     1      -2.047  -1.145  -3.954  0.00  0.00    -0.275 OA
ATOM     17  N   UNL     1      -4.188  -1.427  -4.464  0.00  0.00    -0.315 N 
ATOM     18  H   UNL     1      -5.045  -1.822  -4.238  0.00  0.00    +0.149 HD
BRANCH  17  19
ATOM     19  C   UNL     1      -4.056  -0.600  -5.666  0.00  0.00    +0.109 C 
BRANCH  19  20
ATOM     20  C   UNL     1      -5.407  -0.520  -6.380  0.00  0.00    +0.056 C 
BRANCH  20  21
ATOM     21  C   UNL     1      -5.271   0.331  -7.617  0.00  0.00    -0.021 A 
ATOM     22  C   UNL     1      -4.819  -0.115  -8.937  0.00  0.00    +0.003 A 
ATOM     23  C   UNL     1      -4.403  -1.342  -9.456  0.00  0.00    +0.010 A 
ATOM     24  C   UNL     1      -4.034  -1.434 -10.768  0.00  0.00    +0.001 A 
ATOM     25  C   UNL     1      -4.069  -0.316 -11.590  0.00  0.00    +0.002 A 
ATOM     26  C   UNL     1      -4.476   0.905 -11.098  0.00  0.00    +0.026 A 
ATOM     27  C   UNL     1      -4.857   1.021  -9.765  0.00  0.00    +0.047 A 
ATOM     28  N   UNL     1      -5.301   2.072  -8.994  0.00  0.00    -0.360 N 
ATOM     29  C   UNL     1      -5.548   1.641  -7.719  0.00  0.00    +0.087 A 
ATOM     30  H   UNL     1      -5.423   2.981  -9.309  0.00  0.00    +0.165 HD
ENDBRANCH  20  21
ENDBRANCH  19  20
ENDBRANCH  17  19
ENDBRANCH   5  15
BRANCH   1  31
ATOM     31  C   UNL     1       0.468  -0.911  -0.960  0.00  0.00    +0.075 C 
BRANCH  31  33
ATOM     32  C   UNL     1      -0.015   0.953   0.632  0.00  0.00    +0.004 C 
ATOM     33  C   UNL     1      -0.192  -0.544   0.370  0.00  0.00    +0.009 C 
ENDBRANCH  31  33
BRANCH  31  34
ATOM     34  C   UNL     1       1.981  -0.708  -0.852  0.00  0.00    +0.009 C 
ATOM     35  C   UNL     1       2.623  -0.914  -2.225  0.00  0.00    +0.004 C 
ENDBRANCH  31  34
ENDBRANCH   1  31
TORSDOF 7
