REMARK  Name = ZINC24978411
REMARK  6 active torsions:
REMARK  status: ('A' for Active; 'I' for Inactive)
REMARK    1  A    between atoms: C_4  and  C_7
REMARK    2  A    between atoms: C_7  and  C_9
REMARK    3  A    between atoms: C_7  and  N_18
REMARK    4  A    between atoms: N_18  and  C_19
REMARK    5  A    between atoms: C_19  and  C_20
REMARK    6  A    between atoms: N_22  and  N_23
REMARK                            x       y       z     vdW  Elec       q    Type
REMARK                         _______ _______ _______ _____ _____    ______ ____
ROOT
ATOM      1  N   UNL     1       4.019   1.976  -0.916  0.00  0.00    +0.394 N 
ATOM      2  H   UNL     1       3.326   2.033  -1.769  0.00  0.00    -0.084 HD
ATOM      3  H   UNL     1       3.994   2.926  -0.361  0.00  0.00    -0.084 HD
ENDROOT
BRANCH   1   4
ATOM      4  C   UNL     1       3.613   0.879  -0.028  0.00  0.00    +0.027 C 
BRANCH   4   5
ATOM      5  C   UNL     1       2.110   0.773  -0.014  0.00  0.00    +0.097 A 
ATOM      6  C   UNL     1       1.422  -0.377  -0.013  0.00  0.00    +0.051 A 
ATOM      7  C   UNL     1       0.002  -0.004   0.002  0.00  0.00    +0.020 A 
ATOM      8  C   UNL     1      -1.194  -0.720   0.010  0.00  0.00    +0.011 A 
ATOM      9  C   UNL     1      -2.385  -0.050   0.025  0.00  0.00    +0.001 A 
ATOM     10  C   UNL     1      -2.411   1.337   0.034  0.00  0.00    +0.004 A 
ATOM     11  C   UNL     1      -1.238   2.062   0.030  0.00  0.00    +0.047 A 
ATOM     12  C   UNL     1      -0.017   1.401   0.010  0.00  0.00    +0.135 A 
ATOM     13  O   UNL     1       1.265   1.819  -0.000  0.00  0.00    -0.461 OA
ENDBRANCH   4   5
BRANCH   4  17
ATOM     14  C   UNL     1       5.022   1.655   3.929  0.00  0.00    +0.000 A 
ATOM     15  C   UNL     1       5.073   0.372   3.417  0.00  0.00    +0.000 A 
ATOM     16  C   UNL     1       4.617   0.121   2.136  0.00  0.00    +0.002 A 
ATOM     17  C   UNL     1       4.110   1.153   1.368  0.00  0.00    -0.054 A 
ATOM     18  C   UNL     1       4.064   2.437   1.879  0.00  0.00    +0.002 A 
ATOM     19  C   UNL     1       4.516   2.687   3.161  0.00  0.00    +0.000 A 
ENDBRANCH   4  17
ENDBRANCH   1   4
BRANCH   1  20
ATOM     20  C   UNL     1       5.379   1.765  -1.427  0.00  0.00    +0.018 C 
BRANCH  20  21
ATOM     21  C   UNL     1       5.760   2.908  -2.332  0.00  0.00    +0.213 C 
ATOM     22  O   UNL     1       4.974   3.810  -2.532  0.00  0.00    -0.276 OA
ATOM     23  N   UNL     1       6.973   2.928  -2.920  0.00  0.00    -0.225 N 
ATOM     24  H   UNL     1       7.685   2.110  -2.738  0.00  0.00    +0.173 HD
BRANCH  23  25
ATOM     25  N   UNL     1       7.326   3.990  -3.761  0.00  0.00    -0.137 N 
ATOM     26  C   UNL     1       8.176   4.980  -3.417  0.00  0.00    +0.263 C 
ATOM     27  O   UNL     1       8.757   5.114  -2.361  0.00  0.00    -0.271 OA
ATOM     28  C   UNL     1       8.251   5.886  -4.624  0.00  0.00    +0.114 C 
ATOM     29  C   UNL     1       9.677   5.940  -5.160  0.00  0.00    +0.035 C 
ATOM     30  C   UNL     1       9.727   6.839  -6.398  0.00  0.00    +0.003 C 
ATOM     31  C   UNL     1       9.251   8.245  -6.025  0.00  0.00    +0.000 C 
ATOM     32  C   UNL     1       7.811   8.177  -5.513  0.00  0.00    +0.003 C 
ATOM     33  C   UNL     1       7.753   7.284  -4.272  0.00  0.00    +0.035 C 
ATOM     34  N   UNL     1       7.357   5.252  -5.602  0.00  0.00    -0.284 N 
ATOM     35  C   UNL     1       6.867   4.147  -5.009  0.00  0.00    +0.326 C 
ATOM     36  O   UNL     1       6.092   3.380  -5.545  0.00  0.00    -0.251 OA
ATOM     37  H   UNL     1       7.213   5.709  -6.592  0.00  0.00    +0.151 HD
ENDBRANCH  23  25
ENDBRANCH  20  21
ENDBRANCH   1  20
TORSDOF 6
