REMARK  Name = ZINC18408544
REMARK  13 active torsions:
REMARK  status: ('A' for Active; 'I' for Inactive)
REMARK    1  A    between atoms: C_1  and  C_2
REMARK    2  A    between atoms: C_5  and  S_8
REMARK    3  A    between atoms: S_8  and  N_11
REMARK    4  A    between atoms: N_11  and  C_12
REMARK    5  A    between atoms: C_12  and  C_14
REMARK    6  A    between atoms: C_12  and  C_17
REMARK    7  A    between atoms: C_14  and  C_15
REMARK    8  A    between atoms: C_14  and  C_16
REMARK    9  A    between atoms: C_17  and  O_19
REMARK   10  A    between atoms: O_19  and  C_20
REMARK   11  A    between atoms: C_20  and  C_21
REMARK   12  A    between atoms: N_23  and  C_24
REMARK   13  A    between atoms: C_25  and  C_32
REMARK                            x       y       z     vdW  Elec       q    Type
REMARK                         _______ _______ _______ _____ _____    ______ ____
ROOT
ATOM      1  O   UNL     1       1.836  -2.813   1.527  0.00  0.00    -0.454 OA
ENDROOT
BRANCH   1   2
ATOM      2  C   UNL     1       1.248  -1.983   0.652  0.00  0.00    +0.327 C 
ATOM      3  O   UNL     1       1.271  -2.235  -0.530  0.00  0.00    -0.249 OA
BRANCH   2   4
ATOM      4  C   UNL     1       0.559  -0.735   1.143  0.00  0.00    +0.187 C 
BRANCH   4   5
ATOM      5  C   UNL     1      -0.569  -1.120   2.102  0.00  0.00    +0.012 C 
ATOM      6  C   UNL     1      -1.512  -2.106   1.411  0.00  0.00    +0.009 C 
ATOM      7  C   UNL     1       0.025  -1.773   3.352  0.00  0.00    +0.009 C 
ENDBRANCH   4   5
BRANCH   4   8
ATOM      8  N   UNL     1       0.002  -0.004   0.002  0.00  0.00    -0.176 NA
ATOM      9  H   UNL     1      -0.354  -0.490  -0.759  0.00  0.00    +0.149 HD
BRANCH   8  10
ATOM     10  S   UNL     1      -0.020   1.652   0.011  0.00  0.00    +0.059 S 
ATOM     11  O   UNL     1      -0.589   2.057  -1.227  0.00  0.00    -0.153 OA
ATOM     12  O   UNL     1      -0.565   2.044   1.264  0.00  0.00    -0.153 OA
BRANCH  10  17
ATOM     13  C   UNL     1       5.718   3.515  -0.034  0.00  0.00    +0.044 C 
ATOM     14  C   UNL     1       4.285   3.050  -0.022  0.00  0.00    -0.050 A 
ATOM     15  C   UNL     1       3.616   2.842  -1.214  0.00  0.00    +0.005 A 
ATOM     16  C   UNL     1       2.301   2.415  -1.204  0.00  0.00    +0.029 A 
ATOM     17  C   UNL     1       1.655   2.196  -0.002  0.00  0.00    +0.105 A 
ATOM     18  C   UNL     1       2.323   2.408   1.190  0.00  0.00    +0.029 A 
ATOM     19  C   UNL     1       3.639   2.830   1.180  0.00  0.00    +0.005 A 
ENDBRANCH  10  17
ENDBRANCH   8  10
ENDBRANCH   4   8
ENDBRANCH   2   4
ENDBRANCH   1   2
BRANCH   1  20
ATOM     20  C   UNL     1       2.480  -3.995   0.983  0.00  0.00    +0.328 C 
BRANCH  20  21
ATOM     21  C   UNL     1       3.080  -4.802   2.106  0.00  0.00    +0.255 C 
ATOM     22  O   UNL     1       2.975  -4.418   3.252  0.00  0.00    -0.272 OA
ATOM     23  N   UNL     1       3.734  -5.949   1.837  0.00  0.00    -0.277 N 
ATOM     24  H   UNL     1       3.818  -6.256   0.921  0.00  0.00    +0.155 HD
BRANCH  23  25
ATOM     25  C   UNL     1       4.286  -6.692   2.870  0.00  0.00    +0.084 A 
ATOM     26  C   UNL     1       4.981  -7.886   2.795  0.00  0.00    +0.068 A 
ATOM     27  C   UNL     1       5.467  -8.467   4.047  0.00  0.00    -0.023 A 
ATOM     28  C   UNL     1       5.169  -7.765   5.155  0.00  0.00    -0.004 A 
ATOM     29  S   UNL     1       4.266  -6.353   4.567  0.00  0.00    -0.077 S 
ATOM     30  C   UNL     1       5.698  -8.425   6.399  0.00  0.00    +0.043 C 
ATOM     31  C   UNL     1       6.753  -9.431   5.888  0.00  0.00    +0.010 C 
ATOM     32  C   UNL     1       6.250  -9.714   4.458  0.00  0.00    +0.037 C 
BRANCH  26  33
ATOM     33  C   UNL     1       5.226  -8.543   1.508  0.00  0.00    +0.244 C 
ATOM     34  O   UNL     1       6.231  -8.284   0.873  0.00  0.00    -0.270 OA
ATOM     35  N   UNL     1       4.337  -9.435   1.026  0.00  0.00    -0.325 N 
ATOM     36  H   UNL     1       3.535  -9.642   1.532  0.00  0.00    +0.145 HD
ATOM     37  H   UNL     1       4.498  -9.870   0.175  0.00  0.00    +0.145 HD
ENDBRANCH  26  33
ENDBRANCH  23  25
ENDBRANCH  20  21
ENDBRANCH   1  20
TORSDOF 10
