REMARK  Name = ZINC16372075
REMARK  9 active torsions:
REMARK  status: ('A' for Active; 'I' for Inactive)
REMARK    1  A    between atoms: C_1  and  C_2
REMARK    2  A    between atoms: C_2  and  N_54
REMARK    3  A    between atoms: C_3  and  C_4
REMARK    4  A    between atoms: C_3  and  N_54
REMARK    5  A    between atoms: N_6  and  C_7
REMARK    6  A    between atoms: C_7  and  C_8
REMARK    7  A    between atoms: C_15  and  C_16
REMARK    8  A    between atoms: C_15  and  N_54
REMARK    9  A    between atoms: N_21  and  C_22
REMARK                            x       y       z     vdW  Elec       q    Type
REMARK                         _______ _______ _______ _____ _____    ______ ____
ROOT
ATOM      1  N   UNL     1      -7.981   6.927  -2.421  0.00  0.00    +0.391 N 
ATOM      2  H   UNL     1      -8.647   6.147  -2.462  0.00  0.00    -0.080 HD
ENDROOT
BRANCH   1   4
ATOM      3  C   UNL     1      -6.761   8.448  -0.901  0.00  0.00    -0.017 C 
ATOM      4  C   UNL     1      -7.803   7.333  -1.011  0.00  0.00    -0.081 C 
ENDBRANCH   1   4
BRANCH   1   5
ATOM      5  C   UNL     1      -8.516   8.057  -3.209  0.00  0.00    +0.019 C 
BRANCH   5   6
ATOM      6  C   UNL     1      -9.967   8.252  -2.853  0.00  0.00    +0.197 C 
ATOM      7  O   UNL     1     -10.517   7.474  -2.102  0.00  0.00    -0.278 OA
ATOM      8  N   UNL     1     -10.654   9.290  -3.369  0.00  0.00    -0.313 N 
ATOM      9  H   UNL     1     -10.215   9.912  -3.970  0.00  0.00    +0.149 HD
BRANCH   8  10
ATOM     10  C   UNL     1     -12.065   9.479  -3.023  0.00  0.00    +0.139 C 
BRANCH  10  11
ATOM     11  C   UNL     1     -12.595  10.702  -3.727  0.00  0.00    -0.030 A 
ATOM     12  C   UNL     1     -12.523  11.938  -3.112  0.00  0.00    +0.008 A 
ATOM     13  C   UNL     1     -13.005  13.060  -3.759  0.00  0.00    +0.038 A 
ATOM     14  C   UNL     1     -13.569  12.945  -5.018  0.00  0.00    +0.123 A 
ATOM     15  C   UNL     1     -13.646  11.706  -5.630  0.00  0.00    +0.038 A 
ATOM     16  C   UNL     1     -13.159  10.585  -4.984  0.00  0.00    +0.008 A 
ATOM     17  F   UNL     1     -14.045  14.041  -5.649  0.00  0.00    -0.205 F 
ENDBRANCH  10  11
ENDBRANCH   8  10
ENDBRANCH   5   6
ENDBRANCH   1   5
BRANCH   1  18
ATOM     18  C   UNL     1      -6.689   6.484  -2.986  0.00  0.00    +0.020 C 
BRANCH  18  19
ATOM     19  C   UNL     1      -6.276   5.202  -2.309  0.00  0.00    +0.204 C 
ATOM     20  O   UNL     1      -6.974   4.724  -1.441  0.00  0.00    -0.277 OA
ATOM     21  N   UNL     1      -5.131   4.589  -2.668  0.00  0.00    -0.242 N 
ATOM     22  C   UNL     1      -4.762   3.443  -2.062  0.00  0.00    +0.306 C 
ATOM     23  O   UNL     1      -5.461   2.963  -1.192  0.00  0.00    -0.252 OA
ATOM     24  N   UNL     1      -3.617   2.829  -2.422  0.00  0.00    -0.295 N 
ATOM     25  H   UNL     1      -4.573   4.972  -3.363  0.00  0.00    +0.159 HD
ATOM     26  H   UNL     1      -3.059   3.212  -3.117  0.00  0.00    +0.151 HD
BRANCH  24  27
ATOM     27  C   UNL     1      -3.216   1.583  -1.764  0.00  0.00    +0.097 C 
ATOM     28  C   UNL     1      -2.470   1.912  -0.460  0.00  0.00    +0.046 C 
ATOM     29  C   UNL     1      -1.788   0.610   0.051  0.00  0.00    +0.168 C 
ATOM     30  S   UNL     1      -1.175  -0.094  -1.537  0.00  0.00    -0.029 S 
ATOM     31  O   UNL     1      -1.464  -1.485  -1.569  0.00  0.00    -0.174 OA
ATOM     32  O   UNL     1       0.158   0.349  -1.755  0.00  0.00    -0.174 OA
ATOM     33  C   UNL     1      -2.294   0.776  -2.709  0.00  0.00    +0.188 C 
ENDBRANCH  24  27
ENDBRANCH  18  19
ENDBRANCH   1  18
TORSDOF 8
