REMARK  Name = ZINC39991259
REMARK  8 active torsions:
REMARK  status: ('A' for Active; 'I' for Inactive)
REMARK    1  A    between atoms: C_1  and  C_2
REMARK    2  A    between atoms: C_2  and  C_3
REMARK    3  A    between atoms: C_2  and  N_4
REMARK    4  A    between atoms: C_5  and  C_7
REMARK    5  A    between atoms: C_7  and  S_8
REMARK    6  A    between atoms: S_8  and  C_9
REMARK    7  A    between atoms: C_13  and  C_22
REMARK    8  A    between atoms: N_14  and  C_15
REMARK                            x       y       z     vdW  Elec       q    Type
REMARK                         _______ _______ _______ _____ _____    ______ ____
ROOT
ATOM      1  C   UNL     1      -4.603  -4.077  -0.928  0.00  0.00    +0.241 C 
ATOM      2  N   UNL     1      -5.290  -4.111   0.374  0.00  0.00    -0.237 N 
ATOM      3  N   UNL     1      -6.560  -3.561   0.169  0.00  0.00    -0.169 NA
ATOM      4  C   UNL     1      -6.726  -3.202  -1.077  0.00  0.00    +0.151 C 
ATOM      5  N   UNL     1      -5.586  -3.475  -1.844  0.00  0.00    -0.254 N 
ATOM      6  H   UNL     1      -4.932  -4.449   1.210  0.00  0.00    +0.171 HD
ENDROOT
BRANCH   4   7
ATOM      7  C   UNL     1      -7.898  -2.620  -1.584  0.00  0.00    +0.022 C 
ATOM      8  C   UNL     1      -9.100  -2.414  -0.905  0.00  0.00    +0.006 A 
ATOM      9  C   UNL     1      -9.509  -2.700   0.415  0.00  0.00    +0.010 A 
ATOM     10  C   UNL     1     -10.768  -2.382   0.813  0.00  0.00    +0.001 A 
ATOM     11  C   UNL     1     -11.678  -1.774  -0.054  0.00  0.00    +0.002 A 
ATOM     12  C   UNL     1     -11.352  -1.472  -1.335  0.00  0.00    +0.026 A 
ATOM     13  C   UNL     1     -10.055  -1.774  -1.823  0.00  0.00    +0.043 A 
ATOM     14  N   UNL     1      -9.501  -1.584  -3.005  0.00  0.00    -0.380 N 
ATOM     15  C   UNL     1      -8.121  -2.077  -2.978  0.00  0.00    +0.152 C 
ATOM     16  H   UNL     1      -9.938  -1.178  -3.771  0.00  0.00    +0.160 HD
ENDBRANCH   4   7
BRANCH   5  17
ATOM     17  C   UNL     1      -5.413  -3.226  -3.208  0.00  0.00    +0.038 A 
ATOM     18  C   UNL     1      -4.980  -1.978  -3.638  0.00  0.00    +0.025 A 
ATOM     19  C   UNL     1      -4.810  -1.734  -4.986  0.00  0.00    +0.022 A 
ATOM     20  C   UNL     1      -5.072  -2.731  -5.909  0.00  0.00    +0.041 A 
ATOM     21  C   UNL     1      -5.504  -3.975  -5.484  0.00  0.00    +0.022 A 
ATOM     22  C   UNL     1      -5.669  -4.227  -4.136  0.00  0.00    +0.025 A 
ATOM     23 CL   UNL     1      -4.858  -2.421  -7.604  0.00  0.00    -0.084 Cl
ENDBRANCH   5  17
BRANCH   1  24
ATOM     24  S   UNL     1      -3.112  -3.049  -0.832  0.00  0.00    -0.108 S 
BRANCH  24  25
ATOM     25  C   UNL     1      -3.725  -1.438  -0.266  0.00  0.00    +0.168 C 
BRANCH  25  27
ATOM     26  N   UNL     1      -2.790   0.789   0.266  0.00  0.00    -0.312 N 
ATOM     27  C   UNL     1      -2.572  -0.476  -0.142  0.00  0.00    +0.223 C 
ATOM     28  O   UNL     1      -1.447  -0.842  -0.410  0.00  0.00    -0.275 OA
ATOM     29  H   UNL     1      -3.690   1.081   0.480  0.00  0.00    +0.149 HD
BRANCH  26  31
ATOM     30  C   UNL     1      -2.183   3.158   0.243  0.00  0.00    +0.027 C 
ATOM     31  C   UNL     1      -1.669   1.724   0.386  0.00  0.00    +0.067 C 
ATOM     32  C   UNL     1      -1.006   1.553   1.754  0.00  0.00    +0.027 C 
ENDBRANCH  26  31
ENDBRANCH  25  27
ENDBRANCH  24  25
ENDBRANCH   1  24
TORSDOF 6
