REMARK  Name = ZINC34900308
REMARK  5 active torsions:
REMARK  status: ('A' for Active; 'I' for Inactive)
REMARK    1  A    between atoms: C_6  and  C_7
REMARK    2  A    between atoms: N_9  and  C_10
REMARK    3  A    between atoms: C_16  and  N_18
REMARK    4  A    between atoms: C_19  and  C_21
REMARK    5  A    between atoms: C_28  and  C_30
REMARK                            x       y       z     vdW  Elec       q    Type
REMARK                         _______ _______ _______ _____ _____    ______ ____
ROOT
ATOM      1  N   UNL     1      -1.656  -4.205  -1.954  0.00  0.00    -0.310 N 
ATOM      2  C   UNL     1      -1.919  -5.163  -2.865  0.00  0.00    +0.218 C 
ATOM      3  O   UNL     1      -2.539  -6.154  -2.541  0.00  0.00    -0.275 OA
ATOM      4  H   UNL     1      -1.160  -3.413  -2.212  0.00  0.00    +0.149 HD
ENDROOT
BRANCH   2   5
ATOM      5  C   UNL     1      -1.441  -5.003  -4.285  0.00  0.00    +0.092 C 
ATOM      6  C   UNL     1       0.085  -4.889  -4.300  0.00  0.00    +0.016 C 
ATOM      7  C   UNL     1       0.569  -4.694  -5.739  0.00  0.00    +0.020 C 
ATOM      8  C   UNL     1       0.167  -5.911  -6.578  0.00  0.00    +0.108 C 
ATOM      9  N   UNL     1      -1.282  -6.115  -6.451  0.00  0.00    -0.300 N 
ATOM     10  C   UNL     1      -1.866  -6.224  -5.107  0.00  0.00    +0.120 C 
ATOM     11  C   UNL     1      -2.062  -6.200  -7.547  0.00  0.00    +0.222 C 
ATOM     12  O   UNL     1      -3.240  -6.464  -7.434  0.00  0.00    -0.275 OA
BRANCH  11  13
ATOM     13  C   UNL     1      -1.470  -5.967  -8.914  0.00  0.00    +0.048 C 
ATOM     14  C   UNL     1      -0.844  -4.572  -8.967  0.00  0.00    +0.019 C 
ATOM     15  C   UNL     1      -0.243  -4.335 -10.354  0.00  0.00    -0.009 C 
ATOM     16  C   UNL     1      -1.344  -4.442 -11.412  0.00  0.00    +0.007 C 
ATOM     17  C   UNL     1      -1.969  -5.837 -11.358  0.00  0.00    -0.009 C 
ATOM     18  C   UNL     1      -2.570  -6.074  -9.971  0.00  0.00    +0.019 C 
ATOM     19  C   UNL     1      -0.893  -6.889 -11.634  0.00  0.00    +0.007 C 
ATOM     20  C   UNL     1       0.207  -6.783 -10.576  0.00  0.00    -0.009 C 
ATOM     21  C   UNL     1       0.833  -5.388 -10.630  0.00  0.00    +0.007 C 
ATOM     22  C   UNL     1      -0.394  -7.019  -9.189  0.00  0.00    +0.019 C 
ENDBRANCH  11  13
ENDBRANCH   2   5
BRANCH   1  28
ATOM     23  C   UNL     1      -2.271  -2.981   0.073  0.00  0.00    +0.093 C 
ATOM     24  C   UNL     1      -2.756  -3.143   1.514  0.00  0.00    +0.024 C 
ATOM     25  C   UNL     1      -1.739  -3.968   2.305  0.00  0.00    +0.002 C 
ATOM     26  C   UNL     1      -1.589  -5.347   1.660  0.00  0.00    +0.002 C 
ATOM     27  C   UNL     1      -1.103  -5.185   0.218  0.00  0.00    +0.024 C 
ATOM     28  C   UNL     1      -2.121  -4.360  -0.573  0.00  0.00    +0.093 C 
BRANCH  23  31
ATOM     29  C   UNL     1      -0.927  -0.949   0.098  0.00  0.00    +0.244 C 
ATOM     30  O   UNL     1      -1.957  -0.303   0.131  0.00  0.00    -0.270 OA
ATOM     31  N   UNL     1      -0.977  -2.295   0.067  0.00  0.00    -0.307 N 
ATOM     32  H   UNL     1      -0.155  -2.810   0.041  0.00  0.00    +0.149 HD
BRANCH  29  38
ATOM     33  C   UNL     1       0.433   1.138   0.125  0.00  0.00    +0.016 A 
ATOM     34  C   UNL     1       1.653   1.778   0.120  0.00  0.00    +0.039 A 
ATOM     35  C   UNL     1       2.826   1.039   0.083  0.00  0.00    +0.123 A 
ATOM     36  C   UNL     1       2.778  -0.346   0.051  0.00  0.00    +0.039 A 
ATOM     37  C   UNL     1       1.563  -0.997   0.055  0.00  0.00    +0.016 A 
ATOM     38  C   UNL     1       0.378  -0.257   0.093  0.00  0.00    +0.037 A 
ATOM     39  F   UNL     1       4.020   1.671   0.079  0.00  0.00    -0.205 F 
ENDBRANCH  29  38
ENDBRANCH  23  31
ENDBRANCH   1  28
TORSDOF 5
