REMARK  Name = ZINC05185153
REMARK  8 active torsions:
REMARK  status: ('A' for Active; 'I' for Inactive)
REMARK    1  A    between atoms: C_1  and  O_2
REMARK    2  A    between atoms: O_2  and  C_3
REMARK    3  A    between atoms: C_3  and  C_5
REMARK    4  A    between atoms: C_5  and  C_6
REMARK    5  A    between atoms: C_13  and  N_30
REMARK    6  A    between atoms: C_14  and  C_28
REMARK    7  A    between atoms: N_22  and  C_25
REMARK    8  A    between atoms: C_25  and  C_26
REMARK                            x       y       z     vdW  Elec       q    Type
REMARK                         _______ _______ _______ _____ _____    ______ ____
ROOT
ATOM      1  C   UNL     1       1.672  -2.056  -2.490  0.00  0.00    +0.082 A 
ATOM      2  C   UNL     1       1.040  -2.292  -3.703  0.00  0.00    +0.062 A 
ATOM      3  C   UNL     1       2.006  -2.520  -4.646  0.00  0.00    +0.223 A 
ATOM      4  N   UNL     1       3.197  -2.428  -4.036  0.00  0.00    -0.246 N 
ATOM      5  H   UNL     1       4.064  -2.544  -4.456  0.00  0.00    +0.192 HD
ATOM      6  N   UNL     1       2.967  -2.131  -2.683  0.00  0.00    -0.175 NA
ATOM      7  O   UNL     1       1.711  -2.782  -5.944  0.00  0.00    -0.423 OA
ATOM      8  C   UNL     1       0.450  -2.557  -6.364  0.00  0.00    +0.201 C 
ATOM      9  C   UNL     1      -0.591  -2.332  -5.528  0.00  0.00    +0.110 C 
ATOM     10  C   UNL     1      -0.426  -2.318  -4.033  0.00  0.00    +0.145 C 
ATOM     11  C   UNL     1      -1.105  -3.488  -3.398  0.00  0.00    -0.001 A 
ATOM     12  C   UNL     1      -0.914  -4.846  -3.542  0.00  0.00    +0.007 A 
ATOM     13  C   UNL     1      -1.732  -5.681  -2.788  0.00  0.00    +0.000 A 
ATOM     14  C   UNL     1      -2.690  -5.171  -1.936  0.00  0.00    +0.002 A 
ATOM     15  C   UNL     1      -2.889  -3.807  -1.787  0.00  0.00    +0.024 A 
ATOM     16  C   UNL     1      -2.075  -2.958  -2.538  0.00  0.00    +0.041 A 
ATOM     17  N   UNL     1      -2.056  -1.575  -2.587  0.00  0.00    -0.266 N 
ATOM     18  C   UNL     1      -1.119  -1.111  -3.441  0.00  0.00    +0.241 C 
ATOM     19  O   UNL     1      -0.879   0.052  -3.686  0.00  0.00    -0.274 OA
ENDROOT
BRANCH   8  20
ATOM     20  N   UNL     1       0.208  -2.555  -7.715  0.00  0.00    -0.328 N 
ATOM     21  H   UNL     1       0.934  -2.712  -8.338  0.00  0.00    +0.145 HD
ATOM     22  H   UNL     1      -0.690  -2.395  -8.047  0.00  0.00    +0.145 HD
ENDBRANCH   8  20
BRANCH   9  23
ATOM     23  C   UNL     1      -1.890  -2.102  -6.085  0.00  0.00    +0.102 C 
ATOM     24  N   UNL     1      -2.921  -1.919  -6.526  0.00  0.00    -0.191 NA
ENDBRANCH   9  23
BRANCH   1  25
ATOM     25  C   UNL     1       0.989  -1.758  -1.180  0.00  0.00    +0.178 C 
BRANCH  25  26
ATOM     26  C   UNL     1       0.858  -3.030  -0.382  0.00  0.00    +0.313 C 
ATOM     27  O   UNL     1       1.384  -4.045  -0.772  0.00  0.00    -0.250 OA
BRANCH  26  29
ATOM     28  C   UNL     1       0.170  -4.242   1.527  0.00  0.00    +0.280 C 
ATOM     29  O   UNL     1       0.156  -3.034   0.762  0.00  0.00    -0.468 OA
ENDBRANCH  26  29
ENDBRANCH  25  26
ENDBRANCH   1  25
BRANCH  17  30
ATOM     30  C   UNL     1      -2.949  -0.716  -1.805  0.00  0.00    +0.140 C 
BRANCH  30  31
ATOM     31  C   UNL     1      -2.268  -0.323  -0.519  0.00  0.00    -0.015 C 
ATOM     32  C   UNL     1      -2.132   0.943  -0.210  0.00  0.00    +0.005 C 
ENDBRANCH  30  31
ENDBRANCH  17  30
TORSDOF 7
