REMARK  Name = ZINC39681373
REMARK  8 active torsions:
REMARK  status: ('A' for Active; 'I' for Inactive)
REMARK    1  A    between atoms: C_1  and  C_2
REMARK    2  A    between atoms: C_5  and  C_9
REMARK    3  A    between atoms: C_6  and  C_8
REMARK    4  A    between atoms: C_13  and  C_22
REMARK    5  A    between atoms: N_24  and  C_25
REMARK    6  A    between atoms: C_25  and  C_26
REMARK    7  A    between atoms: C_26  and  O_27
REMARK    8  A    between atoms: O_27  and  C_28
REMARK                            x       y       z     vdW  Elec       q    Type
REMARK                         _______ _______ _______ _____ _____    ______ ____
ROOT
ATOM      1  C   UNL     1       0.059  -4.412   0.065  0.00  0.00    +0.247 C 
ATOM      2  O   UNL     1       0.240  -4.977   1.126  0.00  0.00    -0.270 OA
ATOM      3  N   UNL     1      -0.080  -5.132  -1.067  0.00  0.00    -0.296 N 
ATOM      4  C   UNL     1      -0.203  -4.627  -2.454  0.00  0.00    +0.121 C 
ATOM      5  C   UNL     1       0.629  -5.613  -3.304  0.00  0.00    +0.100 C 
ATOM      6  C   UNL     1       0.663  -6.911  -2.479  0.00  0.00    -0.004 C 
ATOM      7  C   UNL     1      -0.138  -6.607  -1.204  0.00  0.00    +0.115 C 
ATOM      8  C   UNL     1       0.009  -8.049  -3.256  0.00  0.00    -0.010 C 
ATOM      9  C   UNL     1       0.106  -9.341  -2.440  0.00  0.00    -0.082 C 
ATOM     10  N   UNL     1       1.516  -9.649  -2.175  0.00  0.00    +0.379 N 
ATOM     11  C   UNL     1       2.113  -8.594  -1.348  0.00  0.00    -0.082 C 
ATOM     12  C   UNL     1       2.101  -7.271  -2.118  0.00  0.00    -0.010 C 
ATOM     13  H   UNL     1       1.581 -10.532  -1.690  0.00  0.00    -0.086 HD
ATOM     14  H   UNL     1       2.015  -9.712  -3.050  0.00  0.00    -0.086 HD
ENDROOT
BRANCH   1  19
ATOM     15  C   UNL     1      -0.201   1.333  -0.130  0.00  0.00    +0.044 C 
ATOM     16  C   UNL     1      -0.133  -0.171  -0.079  0.00  0.00    -0.050 A 
ATOM     17  C   UNL     1       0.719  -0.852  -0.932  0.00  0.00    +0.004 A 
ATOM     18  C   UNL     1       0.786  -2.229  -0.890  0.00  0.00    +0.013 A 
ATOM     19  C   UNL     1      -0.007  -2.936   0.015  0.00  0.00    +0.040 A 
ATOM     20  C   UNL     1      -0.864  -2.244   0.872  0.00  0.00    -0.038 A 
ATOM     21  C   UNL     1      -0.917  -0.866   0.824  0.00  0.00    +0.007 A 
ATOM     22  C   UNL     1      -1.724  -2.999   1.852  0.00  0.00    +0.044 C 
ENDBRANCH   1  19
BRANCH   5  23
ATOM     23  C   UNL     1      -0.037  -5.852  -4.634  0.00  0.00    +0.218 C 
ATOM     24  O   UNL     1      -1.247  -5.841  -4.717  0.00  0.00    -0.275 OA
ATOM     25  N   UNL     1       0.712  -6.077  -5.732  0.00  0.00    -0.312 N 
ATOM     26  H   UNL     1       1.680  -6.086  -5.666  0.00  0.00    +0.149 HD
BRANCH  25  27
ATOM     27  C   UNL     1       0.064  -6.310  -7.026  0.00  0.00    +0.145 C 
BRANCH  27  28
ATOM     28  C   UNL     1       1.133  -6.537  -8.097  0.00  0.00    +0.248 C 
BRANCH  28  29
ATOM     29  O   UNL     1       1.846  -7.741  -7.810  0.00  0.00    -0.489 OA
BRANCH  29  30
ATOM     30  C   UNL     1       2.837  -8.091  -8.672  0.00  0.00    +0.139 A 
ATOM     31  C   UNL     1       3.121  -7.290  -9.768  0.00  0.00    +0.047 A 
ATOM     32  C   UNL     1       4.129  -7.647 -10.642  0.00  0.00    +0.004 A 
ATOM     33  C   UNL     1       4.855  -8.804 -10.426  0.00  0.00    +0.002 A 
ATOM     34  C   UNL     1       4.575  -9.606  -9.336  0.00  0.00    +0.023 A 
ATOM     35  C   UNL     1       3.571  -9.249  -8.454  0.00  0.00    +0.083 A 
ATOM     36 CL   UNL     1       3.224 -10.252  -7.080  0.00  0.00    -0.080 Cl
ENDBRANCH  29  30
ENDBRANCH  28  29
ENDBRANCH  27  28
ENDBRANCH  25  27
ENDBRANCH   5  23
TORSDOF 6
