REMARK  Name = ZINC36638233
REMARK  12 active torsions:
REMARK  status: ('A' for Active; 'I' for Inactive)
REMARK    1  A    between atoms: C_1  and  C_2
REMARK    2  A    between atoms: C_2  and  N_3
REMARK    3  A    between atoms: N_3  and  C_4
REMARK    4  A    between atoms: N_3  and  C_6
REMARK    5  A    between atoms: C_4  and  C_5
REMARK    6  A    between atoms: C_6  and  C_7
REMARK    7  A    between atoms: C_7  and  N_8
REMARK    8  A    between atoms: C_12  and  C_19
REMARK    9  A    between atoms: C_14  and  C_18
REMARK   10  A    between atoms: C_20  and  C_22
REMARK   11  A    between atoms: C_25  and  S_28
REMARK   12  A    between atoms: S_28  and  N_31
REMARK                            x       y       z     vdW  Elec       q    Type
REMARK                         _______ _______ _______ _____ _____    ______ ____
ROOT
ATOM      1  N   UNL     1       1.158  -4.278  -3.061  0.00  0.00    -0.248 N 
ATOM      2  C   UNL     1       0.366  -4.891  -4.017  0.00  0.00    +0.168 A 
ATOM      3  N   UNL     1      -0.119  -6.111  -4.025  0.00  0.00    -0.224 NA
ATOM      4  C   UNL     1      -0.886  -6.580  -5.033  0.00  0.00    +0.083 A 
ATOM      5  C   UNL     1      -1.466  -7.863  -5.165  0.00  0.00    -0.024 A 
ATOM      6  C   UNL     1      -2.223  -8.180  -6.262  0.00  0.00    +0.009 A 
ATOM      7  C   UNL     1      -2.448  -7.262  -7.278  0.00  0.00    -0.049 A 
ATOM      8  C   UNL     1      -1.896  -5.997  -7.182  0.00  0.00    +0.020 A 
ATOM      9  C   UNL     1      -1.136  -5.671  -6.087  0.00  0.00    +0.041 A 
ATOM     10  S   UNL     1      -0.264  -4.219  -5.549  0.00  0.00    -0.052 S 
ATOM     11  C   UNL     1      -3.285  -7.638  -8.473  0.00  0.00    +0.044 C 
ATOM     12  C   UNL     1      -1.248  -8.893  -4.087  0.00  0.00    +0.046 C 
ATOM     13  C   UNL     1       1.534  -4.958  -1.960  0.00  0.00    +0.252 C 
ATOM     14  O   UNL     1       1.221  -6.126  -1.831  0.00  0.00    -0.270 OA
ENDROOT
BRANCH  13  15
ATOM     15  C   UNL     1       2.325  -4.285  -0.909  0.00  0.00    +0.037 A 
ATOM     16  C   UNL     1       2.180  -2.913  -0.693  0.00  0.00    +0.015 A 
ATOM     17  C   UNL     1       2.922  -2.291   0.289  0.00  0.00    +0.029 A 
ATOM     18  C   UNL     1       3.809  -3.023   1.059  0.00  0.00    +0.106 A 
ATOM     19  C   UNL     1       3.957  -4.382   0.850  0.00  0.00    +0.029 A 
ATOM     20  C   UNL     1       3.217  -5.018  -0.125  0.00  0.00    +0.015 A 
BRANCH  18  21
ATOM     21  S   UNL     1       4.753  -2.220   2.311  0.00  0.00    +0.061 S 
ATOM     22  O   UNL     1       5.965  -2.951   2.438  0.00  0.00    -0.153 OA
ATOM     23  O   UNL     1       4.730  -0.831   2.010  0.00  0.00    -0.153 OA
BRANCH  21  24
ATOM     24  N   UNL     1       3.935  -2.408   3.738  0.00  0.00    -0.177 NA
ATOM     25  C   UNL     1       2.858  -1.481   4.112  0.00  0.00    +0.109 C 
ATOM     26  C   UNL     1       1.599  -2.293   4.434  0.00  0.00    +0.017 C 
ATOM     27  C   UNL     1       1.929  -3.336   5.503  0.00  0.00    +0.003 C 
ATOM     28  C   UNL     1       2.998  -4.294   4.971  0.00  0.00    +0.017 C 
ATOM     29  C   UNL     1       4.269  -3.509   4.653  0.00  0.00    +0.109 C 
ENDBRANCH  21  24
ENDBRANCH  18  21
ENDBRANCH  13  15
BRANCH   1  30
ATOM     30  C   UNL     1       1.589  -2.890  -3.247  0.00  0.00    +0.097 C 
BRANCH  30  31
ATOM     31  C   UNL     1       0.432  -1.948  -2.909  0.00  0.00    -0.059 C 
BRANCH  31  32
ATOM     32  N   UNL     1       0.899  -0.556  -2.975  0.00  0.00    +0.380 N 
ATOM     33  H   UNL     1       1.692  -0.438  -2.362  0.00  0.00    -0.082 HD
BRANCH  32  35
ATOM     34  C   UNL     1       1.896   1.169  -4.398  0.00  0.00    -0.017 C 
ATOM     35  C   UNL     1       1.294  -0.236  -4.353  0.00  0.00    -0.082 C 
ENDBRANCH  32  35
BRANCH  32  36
ATOM     36  C   UNL     1      -0.183   0.344  -2.554  0.00  0.00    -0.082 C 
ATOM     37  C   UNL     1      -0.476   0.128  -1.068  0.00  0.00    -0.017 C 
ENDBRANCH  32  36
ENDBRANCH  31  32
ENDBRANCH  30  31
ENDBRANCH   1  30
TORSDOF 8
