REMARK  Name = ZINC08162797
REMARK  9 active torsions:
REMARK  status: ('A' for Active; 'I' for Inactive)
REMARK    1  A    between atoms: C_1  and  C_2
REMARK    2  A    between atoms: C_10  and  C_11
REMARK    3  A    between atoms: N_13  and  N_14
REMARK    4  A    between atoms: C_15  and  C_17
REMARK    5  A    between atoms: C_20  and  S_23
REMARK    6  A    between atoms: S_23  and  N_26
REMARK    7  A    between atoms: N_26  and  C_27
REMARK    8  A    between atoms: N_26  and  O_28
REMARK    9  A    between atoms: O_28  and  C_29
REMARK                            x       y       z     vdW  Elec       q    Type
REMARK                         _______ _______ _______ _____ _____    ______ ____
ROOT
ATOM      1  N   UNL     1      -2.918   4.280   5.434  0.00  0.00    -0.230 N 
ATOM      2  C   UNL     1      -3.119   3.065   4.886  0.00  0.00    +0.260 C 
ATOM      3  O   UNL     1      -3.927   2.303   5.379  0.00  0.00    -0.269 OA
ATOM      4  H   UNL     1      -2.273   4.889   5.040  0.00  0.00    +0.173 HD
ENDROOT
BRANCH   2   5
ATOM      5  C   UNL     1      -2.356   2.660   3.687  0.00  0.00    +0.038 A 
ATOM      6  C   UNL     1      -2.561   1.402   3.117  0.00  0.00    +0.015 A 
ATOM      7  C   UNL     1      -1.846   1.030   1.998  0.00  0.00    +0.029 A 
ATOM      8  C   UNL     1      -0.927   1.900   1.439  0.00  0.00    +0.108 A 
ATOM      9  C   UNL     1      -0.715   3.146   2.002  0.00  0.00    +0.029 A 
ATOM     10  C   UNL     1      -1.427   3.533   3.118  0.00  0.00    +0.015 A 
BRANCH   8  11
ATOM     11  S   UNL     1      -0.017   1.417   0.010  0.00  0.00    +0.082 S 
ATOM     12  O   UNL     1       0.002  -0.004   0.002  0.00  0.00    -0.151 OA
ATOM     13  O   UNL     1       1.172   2.195   0.003  0.00  0.00    -0.151 OA
BRANCH  11  14
ATOM     14  N   UNL     1      -0.897   1.885  -1.312  0.00  0.00    -0.058 NA
ATOM     15  C   UNL     1      -0.615   3.167  -1.963  0.00  0.00    +0.166 C 
BRANCH  14  16
ATOM     16  O   UNL     1      -1.923   1.047  -1.813  0.00  0.00    -0.280 OA
ATOM     17  C   UNL     1      -3.207   1.291  -1.236  0.00  0.00    +0.223 C 
ENDBRANCH  14  16
ENDBRANCH  11  14
ENDBRANCH   8  11
ENDBRANCH   2   5
BRANCH   1  20
ATOM     18  C   UNL     1      -3.441   5.880   7.117  0.00  0.00    +0.296 C 
ATOM     19  O   UNL     1      -2.631   6.643   6.625  0.00  0.00    -0.265 OA
ATOM     20  N   UNL     1      -3.641   4.665   6.570  0.00  0.00    -0.228 N 
ATOM     21  H   UNL     1      -4.286   4.056   6.963  0.00  0.00    +0.173 HD
BRANCH  18  31
ATOM     22  C   UNL     1      -3.159   8.612   8.576  0.00  0.00    +0.048 C 
ATOM     23  C   UNL     1      -4.077   7.476   8.948  0.00  0.00    +0.008 A 
ATOM     24  C   UNL     1      -5.018   7.436  10.066  0.00  0.00    +0.024 A 
ATOM     25  C   UNL     1      -5.366   8.333  11.079  0.00  0.00    +0.012 A 
ATOM     26  C   UNL     1      -6.308   7.979  12.003  0.00  0.00    +0.001 A 
ATOM     27  C   UNL     1      -6.921   6.735  11.941  0.00  0.00    +0.004 A 
ATOM     28  C   UNL     1      -6.592   5.836  10.951  0.00  0.00    +0.047 A 
ATOM     29  C   UNL     1      -5.636   6.173  10.000  0.00  0.00    +0.136 A 
ATOM     30  O   UNL     1      -5.119   5.522   8.940  0.00  0.00    -0.450 OA
ATOM     31  C   UNL     1      -4.199   6.283   8.310  0.00  0.00    +0.195 A 
ENDBRANCH  18  31
ENDBRANCH   1  20
TORSDOF 6
