REMARK  Name = ZINC22914712
REMARK  10 active torsions:
REMARK  status: ('A' for Active; 'I' for Inactive)
REMARK    1  A    between atoms: C_9  and  C_12
REMARK    2  A    between atoms: C_12  and  O_13
REMARK    3  A    between atoms: O_13  and  C_14
REMARK    4  A    between atoms: C_14  and  C_15
REMARK    5  A    between atoms: C_15  and  C_17
REMARK    6  A    between atoms: C_15  and  O_41
REMARK    7  A    between atoms: C_17  and  N_18
REMARK    8  A    between atoms: N_21  and  C_24
REMARK    9  A    between atoms: C_24  and  C_25
REMARK   10  A    between atoms: C_25  and  N_26
REMARK                            x       y       z     vdW  Elec       q    Type
REMARK                         _______ _______ _______ _____ _____    ______ ____
ROOT
ATOM      1  N   UNL     1      -0.924  -8.931   1.932  0.00  0.00    -0.303 NA
ATOM      2  C   UNL     1      -0.568  -8.810   3.353  0.00  0.00    +0.066 C 
ATOM      3  C   UNL     1      -1.711  -9.358   4.211  0.00  0.00    -0.063 C 
ATOM      4  N   UNL     1      -1.960 -10.761   3.852  0.00  0.00    +0.382 N 
ATOM      5  C   UNL     1      -2.316 -10.883   2.431  0.00  0.00    -0.063 C 
ATOM      6  C   UNL     1      -1.173 -10.335   1.573  0.00  0.00    +0.066 C 
ATOM      7  H   UNL     1      -1.030 -11.325   4.019  0.00  0.00    -0.082 HD
ENDROOT
BRANCH   1   8
ATOM      8  C   UNL     1       0.117  -8.346   1.077  0.00  0.00    +0.117 C 
BRANCH   8   9
ATOM      9  C   UNL     1       0.174  -6.834   1.306  0.00  0.00    +0.154 C 
BRANCH   9  10
ATOM     10  O   UNL     1      -1.091  -6.255   0.982  0.00  0.00    -0.388 OA
ATOM     11  H   UNL     1      -1.996  -6.571   1.521  0.00  0.00    +0.210 HD
ENDBRANCH   9  10
BRANCH   9  12
ATOM     12  C   UNL     1       1.258  -6.224   0.415  0.00  0.00    +0.192 C 
BRANCH  12  13
ATOM     13  O   UNL     1       1.392  -4.833   0.713  0.00  0.00    -0.373 OA
BRANCH  13  14
ATOM     14  C   UNL     1       2.384  -4.164  -0.068  0.00  0.00    +0.207 C 
BRANCH  14  23
ATOM     15  C   UNL     1       1.170   2.088   0.002  0.00  0.00    +0.004 A 
ATOM     16  C   UNL     1      -0.017   1.378   0.010  0.00  0.00    +0.004 A 
ATOM     17  C   UNL     1       0.002  -0.004   0.002  0.00  0.00    +0.049 A 
ATOM     18  C   UNL     1       1.212  -0.682  -0.013  0.00  0.00    +0.163 A 
ATOM     19  C   UNL     1       2.404   0.031  -0.018  0.00  0.00    +0.162 A 
ATOM     20  C   UNL     1       2.378   1.418  -0.012  0.00  0.00    +0.049 A 
ATOM     21  O   UNL     1       3.602  -0.615  -0.026  0.00  0.00    -0.485 OA
ATOM     22  C   UNL     1       3.588  -1.993  -0.413  0.00  0.00    +0.276 C 
ATOM     23  C   UNL     1       2.440  -2.689   0.333  0.00  0.00    +0.236 C 
ATOM     24  O   UNL     1       1.214  -2.043  -0.029  0.00  0.00    -0.479 OA
ENDBRANCH  14  23
ENDBRANCH  13  14
ENDBRANCH  12  13
ENDBRANCH   9  12
ENDBRANCH   8   9
ENDBRANCH   1   8
BRANCH   4  25
ATOM     25  C   UNL     1      -3.001 -11.347   4.707  0.00  0.00    -0.059 C 
BRANCH  25  26
ATOM     26  C   UNL     1      -2.724 -10.985   6.168  0.00  0.00    +0.098 C 
BRANCH  26  27
ATOM     27  N   UNL     1      -3.762 -11.569   7.021  0.00  0.00    -0.236 N 
ATOM     28  C   UNL     1      -4.868 -10.847   7.283  0.00  0.00    +0.254 C 
ATOM     29  O   UNL     1      -4.987  -9.732   6.813  0.00  0.00    -0.270 OA
ATOM     30  C   UNL     1      -5.933 -11.401   8.131  0.00  0.00    +0.046 A 
ATOM     31  C   UNL     1      -7.090 -10.694   8.424  0.00  0.00    +0.014 A 
ATOM     32  C   UNL     1      -8.067 -11.259   9.235  0.00  0.00    +0.001 A 
ATOM     33  C   UNL     1      -7.924 -12.510   9.763  0.00  0.00    +0.008 A 
ATOM     34  C   UNL     1      -6.766 -13.260   9.491  0.00  0.00    -0.016 A 
ATOM     35  C   UNL     1      -5.767 -12.698   8.669  0.00  0.00    +0.006 A 
ATOM     36  C   UNL     1      -4.591 -13.426   8.378  0.00  0.00    +0.046 A 
ATOM     37  C   UNL     1      -4.438 -14.697   8.911  0.00  0.00    +0.014 A 
ATOM     38  C   UNL     1      -5.430 -15.241   9.718  0.00  0.00    +0.001 A 
ATOM     39  C   UNL     1      -6.572 -14.551  10.011  0.00  0.00    +0.008 A 
ATOM     40  C   UNL     1      -3.572 -12.806   7.518  0.00  0.00    +0.254 C 
ATOM     41  O   UNL     1      -2.553 -13.415   7.253  0.00  0.00    -0.270 OA
ENDBRANCH  26  27
ENDBRANCH  25  26
ENDBRANCH   4  25
TORSDOF 10
