REMARK  Name = ZINC35926562
REMARK  8 active torsions:
REMARK  status: ('A' for Active; 'I' for Inactive)
REMARK    1  A    between atoms: C_1  and  C_2
REMARK    2  A    between atoms: C_5  and  C_8
REMARK    3  A    between atoms: C_8  and  N_9
REMARK    4  A    between atoms: N_12  and  C_15
REMARK    5  A    between atoms: C_15  and  C_16
REMARK    6  A    between atoms: C_30  and  C_32
REMARK    7  A    between atoms: C_35  and  O_38
REMARK    8  A    between atoms: O_38  and  C_39
REMARK                            x       y       z     vdW  Elec       q    Type
REMARK                         _______ _______ _______ _____ _____    ______ ____
ROOT
ATOM      1  C   UNL     1       4.484  -8.250   0.678  0.00  0.00    +0.034 A 
ATOM      2  C   UNL     1       4.872  -8.840  -0.490  0.00  0.00    +0.091 A 
ATOM      3  C   UNL     1       4.908 -10.244  -0.563  0.00  0.00    +0.253 A 
ATOM      4  O   UNL     1       5.250 -10.804  -1.592  0.00  0.00    -0.268 OA
ATOM      5  N   UNL     1       4.557 -10.960   0.526  0.00  0.00    -0.295 N 
ATOM      6  H   UNL     1       4.575 -11.929   0.498  0.00  0.00    +0.172 HD
ATOM      7  C   UNL     1       4.179 -10.316   1.664  0.00  0.00    +0.198 A 
ATOM      8  N   UNL     1       4.152  -9.000   1.726  0.00  0.00    -0.223 NA
ATOM      9  N   UNL     1       3.825 -11.049   2.765  0.00  0.00    -0.298 N 
ATOM     10  C   UNL     1       3.737 -12.514   2.692  0.00  0.00    +0.127 C 
ATOM     11  C   UNL     1       4.638 -13.115   3.779  0.00  0.00    +0.127 C 
ATOM     12  N   UNL     1       4.339 -12.450   5.055  0.00  0.00    -0.295 N 
ATOM     13  C   UNL     1       4.428 -10.985   5.128  0.00  0.00    +0.127 C 
ATOM     14  C   UNL     1       3.533 -10.385   4.043  0.00  0.00    +0.127 C 
ATOM     15  C   UNL     1       3.991 -13.172   6.139  0.00  0.00    +0.247 C 
ATOM     16  O   UNL     1       3.651 -12.608   7.161  0.00  0.00    -0.270 OA
ENDROOT
BRANCH  15  17
ATOM     17  C   UNL     1       4.021 -14.646   6.085  0.00  0.00    +0.037 A 
ATOM     18  C   UNL     1       5.079 -15.302   5.449  0.00  0.00    +0.016 A 
ATOM     19  C   UNL     1       5.104 -16.678   5.401  0.00  0.00    +0.046 A 
ATOM     20  C   UNL     1       4.079 -17.415   5.984  0.00  0.00    +0.120 A 
ATOM     21  C   UNL     1       3.026 -16.766   6.617  0.00  0.00    +0.046 A 
ATOM     22  C   UNL     1       2.996 -15.390   6.675  0.00  0.00    +0.016 A 
BRANCH  20  23
ATOM     23  O   UNL     1       4.107 -18.770   5.934  0.00  0.00    -0.495 OA
ATOM     24  C   UNL     1       3.022 -19.465   6.553  0.00  0.00    +0.277 C 
ENDBRANCH  20  23
ENDBRANCH  15  17
BRANCH   1  25
ATOM     25  C   UNL     1       4.437  -6.748   0.782  0.00  0.00    -0.022 C 
BRANCH  25  29
ATOM     26  N   UNL     1       0.758  -4.766   0.268  0.00  0.00    -0.302 NA
ATOM     27  C   UNL     1       1.572  -4.413   1.440  0.00  0.00    +0.066 C 
ATOM     28  C   UNL     1       3.016  -4.862   1.208  0.00  0.00    -0.063 C 
ATOM     29  N   UNL     1       3.048  -6.314   0.987  0.00  0.00    +0.385 N 
ATOM     30  C   UNL     1       2.251  -6.648  -0.201  0.00  0.00    -0.063 C 
ATOM     31  C   UNL     1       0.801  -6.214   0.019  0.00  0.00    +0.066 C 
ATOM     32  H   UNL     1       2.664  -6.786   1.792  0.00  0.00    -0.081 HD
BRANCH  26  33
ATOM     33  C   UNL     1      -0.626  -4.300   0.428  0.00  0.00    +0.119 C 
BRANCH  33  38
ATOM     34  C   UNL     1      -0.725   1.478   0.456  0.00  0.00    +0.044 C 
ATOM     35  C   UNL     1      -0.699  -0.029   0.449  0.00  0.00    -0.050 A 
ATOM     36  C   UNL     1      -0.823  -0.716  -0.744  0.00  0.00    +0.003 A 
ATOM     37  C   UNL     1      -0.799  -2.098  -0.750  0.00  0.00    +0.005 A 
ATOM     38  C   UNL     1      -0.651  -2.793   0.436  0.00  0.00    -0.033 A 
ATOM     39  C   UNL     1      -0.526  -2.105   1.628  0.00  0.00    +0.005 A 
ATOM     40  C   UNL     1      -0.545  -0.723   1.635  0.00  0.00    +0.003 A 
ENDBRANCH  33  38
ENDBRANCH  26  33
ENDBRANCH  25  29
ENDBRANCH   1  25
TORSDOF 6
