REMARK  Name = ZINC35777618
REMARK  16 active torsions:
REMARK  status: ('A' for Active; 'I' for Inactive)
REMARK    1  A    between atoms: C_1  and  C_2
REMARK    2  A    between atoms: C_2  and  C_3
REMARK    3  A    between atoms: C_4  and  C_22
REMARK    4  A    between atoms: C_5  and  O_15
REMARK    5  A    between atoms: N_6  and  C_8
REMARK    6  A    between atoms: O_15  and  C_16
REMARK    7  A    between atoms: C_22  and  N_23
REMARK    8  A    between atoms: N_23  and  C_24
REMARK    9  A    between atoms: N_23  and  C_30
REMARK   10  A    between atoms: C_24  and  C_25
REMARK   11  A    between atoms: C_30  and  C_31
REMARK   12  A    between atoms: C_31  and  C_33
REMARK   13  A    between atoms: C_31  and  O_38
REMARK   14  A    between atoms: C_33  and  O_34
REMARK   15  A    between atoms: O_34  and  C_35
REMARK   16  A    between atoms: C_35  and  C_36
REMARK                            x       y       z     vdW  Elec       q    Type
REMARK                         _______ _______ _______ _____ _____    ______ ____
ROOT
ATOM      1  C   UNL     1      -1.435  -0.243  -0.367  0.00  0.00    +0.068 A 
ATOM      2  C   UNL     1      -1.561  -0.355   1.021  0.00  0.00    +0.021 A 
ATOM      3  C   UNL     1      -2.830  -0.757   1.294  0.00  0.00    +0.225 A 
ATOM      4  N   UNL     1      -3.481  -0.893   0.107  0.00  0.00    -0.200 N 
ATOM      5  N   UNL     1      -2.582  -0.558  -0.914  0.00  0.00    -0.168 NA
ENDROOT
BRANCH   4   6
ATOM      6  C   UNL     1      -4.814  -1.292  -0.063  0.00  0.00    +0.069 A 
ATOM      7  C   UNL     1      -5.335  -2.324   0.706  0.00  0.00    +0.031 A 
ATOM      8  C   UNL     1      -6.649  -2.715   0.536  0.00  0.00    +0.040 A 
ATOM      9  C   UNL     1      -7.446  -2.079  -0.401  0.00  0.00    +0.124 A 
ATOM     10  C   UNL     1      -6.928  -1.050  -1.169  0.00  0.00    +0.040 A 
ATOM     11  C   UNL     1      -5.617  -0.651  -0.997  0.00  0.00    +0.031 A 
ATOM     12  F   UNL     1      -8.731  -2.464  -0.565  0.00  0.00    -0.205 F 
ENDBRANCH   4   6
BRANCH   1  14
ATOM     13  C   UNL     1      -0.188   1.697  -1.279  0.00  0.00    +0.010 C 
ATOM     14  C   UNL     1      -0.192   0.177  -1.109  0.00  0.00    +0.054 C 
ENDBRANCH   1  14
BRANCH   3  15
ATOM     15  O   UNL     1      -3.353  -0.983   2.526  0.00  0.00    -0.438 OA
BRANCH  15  16
ATOM     16  C   UNL     1      -3.144  -2.199   3.095  0.00  0.00    +0.130 A 
ATOM     17  C   UNL     1      -2.315  -3.123   2.475  0.00  0.00    +0.046 A 
ATOM     18  C   UNL     1      -2.105  -4.359   3.055  0.00  0.00    +0.004 A 
ATOM     19  C   UNL     1      -2.719  -4.676   4.253  0.00  0.00    +0.000 A 
ATOM     20  C   UNL     1      -3.546  -3.757   4.872  0.00  0.00    +0.004 A 
ATOM     21  C   UNL     1      -3.755  -2.517   4.300  0.00  0.00    +0.046 A 
ENDBRANCH  15  16
ENDBRANCH   3  15
BRANCH   2  22
ATOM     22  C   UNL     1      -0.480  -0.078   2.034  0.00  0.00    -0.035 C 
BRANCH  22  23
ATOM     23  N   UNL     1      -0.474   1.353   2.365  0.00  0.00    +0.389 N 
ATOM     24  H   UNL     1      -0.382   1.894   1.518  0.00  0.00    -0.081 HD
BRANCH  23  25
ATOM     25  C   UNL     1       0.655   1.645   3.258  0.00  0.00    -0.003 C 
BRANCH  25  26
ATOM     26  C   UNL     1       1.950   1.403   2.526  0.00  0.00    +0.089 A 
ATOM     27  C   UNL     1       2.651   2.325   1.842  0.00  0.00    +0.042 A 
ATOM     28  C   UNL     1       3.789   1.669   1.320  0.00  0.00    +0.041 A 
ATOM     29  C   UNL     1       3.716   0.386   1.716  0.00  0.00    +0.195 A 
ATOM     30  O   UNL     1       2.603   0.232   2.451  0.00  0.00    -0.470 OA
ENDBRANCH  25  26
ENDBRANCH  23  25
BRANCH  23  31
ATOM     31  C   UNL     1      -1.733   1.706   3.036  0.00  0.00    -0.044 C 
BRANCH  31  32
ATOM     32  C   UNL     1      -1.780   3.217   3.269  0.00  0.00    +0.124 C 
BRANCH  32  33
ATOM     33  O   UNL     1      -1.821   3.892   2.010  0.00  0.00    -0.391 OA
ATOM     34  H   UNL     1      -2.587   3.663   1.465  0.00  0.00    +0.210 HD
ENDBRANCH  32  33
BRANCH  32  35
ATOM     35  C   UNL     1      -3.031   3.569   4.077  0.00  0.00    +0.190 C 
BRANCH  35  36
ATOM     36  O   UNL     1      -3.016   4.963   4.394  0.00  0.00    -0.365 OA
BRANCH  36  37
ATOM     37  C   UNL     1      -4.147   5.398   5.152  0.00  0.00    +0.248 C 
BRANCH  37  38
ATOM     38  C   UNL     1      -4.030   6.840   5.422  0.00  0.00    -0.077 C 
ATOM     39  C   UNL     1      -3.938   7.991   5.638  0.00  0.00    +0.006 C 
ENDBRANCH  37  38
ENDBRANCH  36  37
ENDBRANCH  35  36
ENDBRANCH  32  35
ENDBRANCH  31  32
ENDBRANCH  23  31
ENDBRANCH  22  23
ENDBRANCH   2  22
TORSDOF 15
