REMARK  Name = ZINC09601423
REMARK  12 active torsions:
REMARK  status: ('A' for Active; 'I' for Inactive)
REMARK    1  A    between atoms: C_1  and  C_2
REMARK    2  A    between atoms: C_5  and  C_8
REMARK    3  A    between atoms: C_8  and  C_10
REMARK    4  A    between atoms: C_8  and  N_22
REMARK    5  A    between atoms: N_12  and  C_13
REMARK    6  A    between atoms: C_16  and  C_19
REMARK    7  A    between atoms: C_19  and  C_20
REMARK    8  A    between atoms: C_19  and  C_21
REMARK    9  A    between atoms: N_22  and  C_23
REMARK   10  A    between atoms: C_23  and  C_24
REMARK   11  A    between atoms: C_29  and  C_31
REMARK   12  A    between atoms: C_31  and  C_32
REMARK                            x       y       z     vdW  Elec       q    Type
REMARK                         _______ _______ _______ _____ _____    ______ ____
ROOT
ATOM      1  C   UNL     1       2.680  -3.655  -0.852  0.00  0.00    +0.193 C 
ENDROOT
BRANCH   1   6
ATOM      2  C   UNL     1       2.204  -3.806  -6.609  0.00  0.00    +0.044 C 
ATOM      3  C   UNL     1       2.328  -3.767  -5.107  0.00  0.00    -0.050 A 
ATOM      4  C   UNL     1       1.192  -3.776  -4.319  0.00  0.00    +0.004 A 
ATOM      5  C   UNL     1       1.306  -3.739  -2.942  0.00  0.00    +0.006 A 
ATOM      6  C   UNL     1       2.555  -3.695  -2.353  0.00  0.00    -0.018 A 
ATOM      7  C   UNL     1       3.691  -3.681  -3.141  0.00  0.00    +0.006 A 
ATOM      8  C   UNL     1       3.577  -3.723  -4.518  0.00  0.00    +0.004 A 
ENDBRANCH   1   6
BRANCH   1   9
ATOM      9  C   UNL     1       2.965  -2.243  -0.409  0.00  0.00    +0.242 C 
ATOM     10  O   UNL     1       4.103  -1.824  -0.411  0.00  0.00    -0.273 OA
ATOM     11  N   UNL     1       1.954  -1.445  -0.010  0.00  0.00    -0.284 N 
ATOM     12  H   UNL     1       1.051  -1.796   0.043  0.00  0.00    +0.155 HD
BRANCH  11  13
ATOM     13  C   UNL     1       2.208  -0.111   0.328  0.00  0.00    +0.033 A 
ATOM     14  C   UNL     1       3.132   0.627  -0.400  0.00  0.00    +0.023 A 
ATOM     15  C   UNL     1       3.380   1.944  -0.064  0.00  0.00    +0.006 A 
ATOM     16  C   UNL     1       2.709   2.527   0.996  0.00  0.00    -0.045 A 
ATOM     17  C   UNL     1       1.788   1.795   1.722  0.00  0.00    +0.006 A 
ATOM     18  C   UNL     1       1.536   0.478   1.391  0.00  0.00    +0.023 A 
BRANCH  16  19
ATOM     19  C   UNL     1       2.983   3.963   1.360  0.00  0.00    +0.013 C 
ATOM     20  C   UNL     1       1.691   4.774   1.243  0.00  0.00    +0.012 C 
ATOM     21  C   UNL     1       3.502   4.035   2.797  0.00  0.00    +0.012 C 
ENDBRANCH  16  19
ENDBRANCH  11  13
ENDBRANCH   1   9
BRANCH   1  22
ATOM     22  N   UNL     1       3.776  -4.530  -0.429  0.00  0.00    -0.278 N 
ATOM     23  C   UNL     1       3.508  -5.678   0.224  0.00  0.00    +0.223 C 
ATOM     24  O   UNL     1       2.360  -5.987   0.461  0.00  0.00    -0.275 OA
BRANCH  22  25
ATOM     25  C   UNL     1       5.163  -4.156  -0.716  0.00  0.00    +0.183 C 
BRANCH  25  26
ATOM     26  C   UNL     1       5.882  -3.865   0.576  0.00  0.00    +0.122 A 
ATOM     27  C   UNL     1       6.924  -4.557   1.070  0.00  0.00    +0.046 A 
ATOM     28  C   UNL     1       7.282  -3.943   2.293  0.00  0.00    +0.041 A 
ATOM     29  C   UNL     1       6.437  -2.912   2.472  0.00  0.00    +0.195 A 
ATOM     30  O   UNL     1       5.595  -2.866   1.427  0.00  0.00    -0.466 OA
ENDBRANCH  25  26
ENDBRANCH  22  25
BRANCH  23  31
ATOM     31  C   UNL     1       4.636  -6.578   0.659  0.00  0.00    +0.149 C 
BRANCH  31  32
ATOM     32  C   UNL     1       4.072  -7.786   1.362  0.00  0.00    +0.026 A 
ATOM     33  C   UNL     1       3.755  -7.841   2.665  0.00  0.00    +0.031 A 
ATOM     34  C   UNL     1       3.243  -9.189   2.924  0.00  0.00    -0.000 A 
ATOM     35  C   UNL     1       2.760  -9.842   4.061  0.00  0.00    +0.010 A 
ATOM     36  C   UNL     1       2.350 -11.142   3.973  0.00  0.00    +0.001 A 
ATOM     37  C   UNL     1       2.409 -11.820   2.763  0.00  0.00    +0.002 A 
ATOM     38  C   UNL     1       2.881 -11.195   1.630  0.00  0.00    +0.026 A 
ATOM     39  C   UNL     1       3.304  -9.871   1.696  0.00  0.00    +0.047 A 
ATOM     40  N   UNL     1       3.813  -8.991   0.767  0.00  0.00    -0.358 N 
ATOM     41  H   UNL     1       3.965  -9.194  -0.169  0.00  0.00    +0.166 HD
ENDBRANCH  31  32
ENDBRANCH  23  31
ENDBRANCH   1  22
TORSDOF 9
