REMARK  Name = ZINC36066233
REMARK  14 active torsions:
REMARK  status: ('A' for Active; 'I' for Inactive)
REMARK    1  A    between atoms: C_1  and  C_2
REMARK    2  A    between atoms: C_7  and  N_12
REMARK    3  A    between atoms: C_9  and  C_11
REMARK    4  A    between atoms: C_13  and  C_15
REMARK    5  A    between atoms: C_23  and  C_35
REMARK    6  A    between atoms: N_29  and  C_30
REMARK    7  A    between atoms: C_30  and  C_31
REMARK    8  A    between atoms: C_31  and  C_32
REMARK    9  A    between atoms: C_32  and  O_33
REMARK   10  A    between atoms: O_33  and  C_34
REMARK   11  A    between atoms: N_37  and  C_38
REMARK   12  A    between atoms: C_41  and  C_44
REMARK   13  A    between atoms: C_44  and  C_45
REMARK   14  A    between atoms: C_44  and  C_46
REMARK                            x       y       z     vdW  Elec       q    Type
REMARK                         _______ _______ _______ _____ _____    ______ ____
ROOT
ATOM      1  C   UNL     1       0.604  -0.391   5.739  0.00  0.00    +0.198 C 
ATOM      2  C   UNL     1       0.041  -1.414   6.677  0.00  0.00    +0.127 C 
ATOM      3  C   UNL     1      -1.327  -1.033   7.213  0.00  0.00    +0.009 C 
ATOM      4  C   UNL     1      -1.690  -2.028   8.010  0.00  0.00    +0.004 C 
ATOM      5  C   UNL     1      -0.500  -2.996   8.004  0.00  0.00    +0.155 C 
ATOM      6  O   UNL     1       0.012  -2.821   6.618  0.00  0.00    -0.358 OA
ATOM      7  C   UNL     1       0.564  -2.218   8.872  0.00  0.00    +0.123 C 
ATOM      8  C   UNL     1       1.105  -1.236   7.833  0.00  0.00    +0.128 C 
ATOM      9  C   UNL     1       1.135   0.234   7.939  0.00  0.00    +0.223 C 
ATOM     10  O   UNL     1       1.300   0.882   8.950  0.00  0.00    -0.275 OA
ATOM     11  N   UNL     1       0.942   0.731   6.672  0.00  0.00    -0.286 N 
ENDROOT
BRANCH   1  13
ATOM     12  N   UNL     1      -0.483  -0.556   3.523  0.00  0.00    -0.311 N 
ATOM     13  C   UNL     1      -0.429   0.041   4.730  0.00  0.00    +0.237 C 
ATOM     14  O   UNL     1      -1.213   0.925   5.005  0.00  0.00    -0.274 OA
ATOM     15  H   UNL     1       0.144  -1.264   3.304  0.00  0.00    +0.149 HD
BRANCH  12  21
ATOM     16  C   UNL     1      -2.273   1.482   0.231  0.00  0.00    +0.008 C 
ATOM     17  C   UNL     1      -2.038  -0.025   0.108  0.00  0.00    -0.009 C 
ATOM     18  C   UNL     1      -3.349  -0.768   0.371  0.00  0.00    +0.003 C 
ATOM     19  C   UNL     1      -3.847  -0.443   1.781  0.00  0.00    +0.002 C 
ATOM     20  C   UNL     1      -2.798  -0.881   2.805  0.00  0.00    +0.022 C 
ATOM     21  C   UNL     1      -1.487  -0.137   2.542  0.00  0.00    +0.076 C 
ATOM     22  C   UNL     1      -0.990  -0.463   1.133  0.00  0.00    +0.009 C 
ATOM     23  C   UNL     1       0.322   0.281   0.870  0.00  0.00    +0.009 C 
ENDBRANCH  12  21
ENDBRANCH   1  13
BRANCH   7  24
ATOM     24  C   UNL     1      -0.094  -1.507  10.026  0.00  0.00    +0.224 C 
ATOM     25  O   UNL     1      -0.028  -0.299  10.111  0.00  0.00    -0.275 OA
ATOM     26  N   UNL     1      -0.756  -2.213  10.964  0.00  0.00    -0.285 N 
ATOM     27  H   UNL     1      -0.873  -3.171  10.857  0.00  0.00    +0.155 HD
BRANCH  26  28
ATOM     28  C   UNL     1      -1.274  -1.567  12.091  0.00  0.00    +0.033 A 
ATOM     29  C   UNL     1      -2.449  -2.020  12.675  0.00  0.00    +0.023 A 
ATOM     30  C   UNL     1      -2.958  -1.379  13.788  0.00  0.00    +0.006 A 
ATOM     31  C   UNL     1      -2.297  -0.287  14.321  0.00  0.00    -0.045 A 
ATOM     32  C   UNL     1      -1.127   0.167  13.742  0.00  0.00    +0.006 A 
ATOM     33  C   UNL     1      -0.610  -0.473  12.632  0.00  0.00    +0.023 A 
BRANCH  31  34
ATOM     34  C   UNL     1      -2.855   0.410  15.535  0.00  0.00    +0.013 C 
ATOM     35  C   UNL     1      -1.833   0.351  16.672  0.00  0.00    +0.012 C 
ATOM     36  C   UNL     1      -3.154   1.871  15.193  0.00  0.00    +0.012 C 
ENDBRANCH  31  34
ENDBRANCH  26  28
ENDBRANCH   7  24
BRANCH  11  37
ATOM     37  C   UNL     1       1.049   2.141   6.291  0.00  0.00    +0.111 C 
BRANCH  37  38
ATOM     38  C   UNL     1       2.512   2.480   5.999  0.00  0.00    +0.047 C 
BRANCH  38  39
ATOM     39  C   UNL     1       2.636   3.971   5.676  0.00  0.00    +0.161 C 
BRANCH  39  40
ATOM     40  O   UNL     1       4.002   4.287   5.403  0.00  0.00    -0.383 OA
ATOM     41  C   UNL     1       4.229   5.663   5.088  0.00  0.00    +0.193 C 
ENDBRANCH  39  40
ENDBRANCH  38  39
ENDBRANCH  37  38
ENDBRANCH  11  37
TORSDOF 9
