REMARK  Name = ZINC39467100
REMARK  6 active torsions:
REMARK  status: ('A' for Active; 'I' for Inactive)
REMARK    1  A    between atoms: C_1  and  O_2
REMARK    2  A    between atoms: O_2  and  C_3
REMARK    3  A    between atoms: C_15  and  C_16
REMARK    4  A    between atoms: C_21  and  O_22
REMARK    5  A    between atoms: P_25  and  C_28
REMARK    6  A    between atoms: C_33  and  O_34
REMARK                            x       y       z     vdW  Elec       q    Type
REMARK                         _______ _______ _______ _____ _____    ______ ____
ROOT
ATOM      1  C   UNL     1      -1.200  -0.637   0.010  0.00  0.00    +0.124 C 
ATOM      2  C   UNL     1      -2.333   0.068   0.019  0.00  0.00    +0.021 C 
ATOM      3  C   UNL     1      -3.655  -0.650   0.039  0.00  0.00    +0.008 C 
ATOM      4  C   UNL     1      -4.746   0.251   0.601  0.00  0.00    -0.046 C 
ATOM      5  N   UNL     1      -4.457   0.629   1.994  0.00  0.00    +0.398 N 
ATOM      6  C   UNL     1      -4.387  -0.563   2.841  0.00  0.00    -0.020 C 
ATOM      7  C   UNL     1      -3.281  -1.502   2.344  0.00  0.00    -0.003 C 
ATOM      8  C   UNL     1      -3.549  -1.902   0.913  0.00  0.00    +0.016 C 
ATOM      9  C   UNL     1      -2.378  -2.731   0.442  0.00  0.00    -0.011 C 
ATOM     10  C   UNL     1      -1.266  -2.118   0.003  0.00  0.00    +0.023 C 
ATOM     11  C   UNL     1      -4.047  -0.204   4.294  0.00  0.00    +0.157 C 
ATOM     12  O   UNL     1      -5.079   0.640   4.835  0.00  0.00    -0.316 OA
ATOM     13  P   UNL     1      -5.519   1.944   3.967  0.00  0.00    +0.291 P 
ATOM     14  O   UNL     1      -4.554   3.047   4.174  0.00  0.00    -0.269 OA
ATOM     15  N   UNL     1      -5.497   1.444   2.390  0.00  0.00    -0.288 NA
ATOM     16  H   UNL     1      -6.186   1.715   1.764  0.00  0.00    +0.111 HD
ATOM     17  H   UNL     1      -3.589   1.142   2.035  0.00  0.00    -0.055 HD
ENDROOT
BRANCH  10  18
ATOM     18  C   UNL     1      -0.112  -2.914  -0.480  0.00  0.00    +0.027 A 
ATOM     19  C   UNL     1      -0.157  -3.523  -1.732  0.00  0.00    +0.012 A 
ATOM     20  C   UNL     1       0.920  -4.263  -2.177  0.00  0.00    +0.001 A 
ATOM     21  C   UNL     1       2.045  -4.403  -1.383  0.00  0.00    +0.004 A 
ATOM     22  C   UNL     1       2.100  -3.803  -0.140  0.00  0.00    +0.046 A 
ATOM     23  C   UNL     1       1.029  -3.052   0.317  0.00  0.00    +0.125 A 
BRANCH  23  24
ATOM     24  O   UNL     1       1.084  -2.457   1.537  0.00  0.00    -0.506 OA
ATOM     25  H   UNL     1       0.754  -3.010   2.259  0.00  0.00    +0.292 HD
ENDBRANCH  23  24
ENDBRANCH  10  18
BRANCH  13  26
ATOM     26  C   UNL     1      -7.190   2.476   4.435  0.00  0.00    +0.091 A 
ATOM     27  C   UNL     1      -8.289   1.959   3.777  0.00  0.00    +0.018 A 
ATOM     28  C   UNL     1      -9.562   2.365   4.132  0.00  0.00    +0.001 A 
ATOM     29  C   UNL     1      -9.739   3.287   5.147  0.00  0.00    +0.004 A 
ATOM     30  C   UNL     1      -8.643   3.806   5.808  0.00  0.00    +0.046 A 
ATOM     31  C   UNL     1      -7.364   3.397   5.457  0.00  0.00    +0.131 A 
BRANCH  31  32
ATOM     32  O   UNL     1      -6.285   3.902   6.110  0.00  0.00    -0.506 OA
ATOM     33  H   UNL     1      -5.926   4.707   5.713  0.00  0.00    +0.292 HD
ENDBRANCH  31  32
ENDBRANCH  13  26
BRANCH   1  35
ATOM     34  C   UNL     1      -0.017   1.425   0.010  0.00  0.00    +0.277 C 
ATOM     35  O   UNL     1       0.002  -0.004   0.002  0.00  0.00    -0.495 OA
ENDBRANCH   1  35
TORSDOF 5
