REMARK  Name = ZINC39684234
REMARK  11 active torsions:
REMARK  status: ('A' for Active; 'I' for Inactive)
REMARK    1  A    between atoms: C_1  and  C_2
REMARK    2  A    between atoms: C_7  and  C_11
REMARK    3  A    between atoms: C_11  and  C_12
REMARK    4  A    between atoms: C_12  and  N_13
REMARK    5  A    between atoms: C_14  and  C_16
REMARK    6  A    between atoms: C_27  and  C_29
REMARK    7  A    between atoms: C_29  and  C_31
REMARK    8  A    between atoms: C_29  and  O_34
REMARK    9  A    between atoms: C_31  and  C_32
REMARK   10  A    between atoms: C_31  and  C_33
REMARK   11  A    between atoms: O_34  and  C_35
REMARK                            x       y       z     vdW  Elec       q    Type
REMARK                         _______ _______ _______ _____ _____    ______ ____
ROOT
ATOM      1  C   UNL     1      -8.902   2.947  -6.043  0.00  0.00    +0.100 C 
ATOM      2  C   UNL     1      -8.157   3.730  -7.148  0.00  0.00    +0.121 C 
ATOM      3  N   UNL     1      -7.997   2.757  -8.253  0.00  0.00    -0.297 N 
ATOM      4  C   UNL     1      -9.275   2.007  -8.273  0.00  0.00    +0.115 C 
ATOM      5  C   UNL     1      -9.638   1.819  -6.787  0.00  0.00    -0.004 C 
ATOM      6  C   UNL     1      -9.153   0.459  -6.294  0.00  0.00    -0.010 C 
ATOM      7  C   UNL     1      -9.939  -0.645  -7.007  0.00  0.00    -0.082 C 
ATOM      8  N   UNL     1     -11.372  -0.485  -6.731  0.00  0.00    +0.379 N 
ATOM      9  C   UNL     1     -11.850   0.786  -7.290  0.00  0.00    -0.082 C 
ATOM     10  C   UNL     1     -11.145   1.951  -6.590  0.00  0.00    -0.010 C 
ATOM     11  C   UNL     1      -6.929   2.590  -9.059  0.00  0.00    +0.257 C 
ATOM     12  O   UNL     1      -6.981   1.803  -9.980  0.00  0.00    -0.272 OA
ATOM     13  H   UNL     1     -11.882  -1.248  -7.151  0.00  0.00    -0.086 HD
ATOM     14  H   UNL     1     -11.524  -0.490  -5.734  0.00  0.00    -0.086 HD
ENDROOT
BRANCH   1  16
ATOM     15  N   UNL     1      -8.187   2.421  -3.735  0.00  0.00    -0.315 N 
ATOM     16  C   UNL     1      -7.921   2.372  -5.055  0.00  0.00    +0.218 C 
ATOM     17  O   UNL     1      -6.892   1.865  -5.448  0.00  0.00    -0.275 OA
ATOM     18  H   UNL     1      -9.010   2.827  -3.421  0.00  0.00    +0.149 HD
BRANCH  15  19
ATOM     19  C   UNL     1      -7.233   1.861  -2.774  0.00  0.00    +0.109 C 
BRANCH  19  20
ATOM     20  C   UNL     1      -7.772   2.045  -1.354  0.00  0.00    +0.056 C 
BRANCH  20  27
ATOM     21  C   UNL     1      -3.202   0.612   2.693  0.00  0.00    +0.046 C 
ATOM     22  C   UNL     1      -3.866   1.590   1.758  0.00  0.00    -0.027 A 
ATOM     23  C   UNL     1      -3.336   2.850   1.586  0.00  0.00    +0.005 A 
ATOM     24  C   UNL     1      -3.939   3.760   0.729  0.00  0.00    +0.001 A 
ATOM     25  C   UNL     1      -5.069   3.421   0.040  0.00  0.00    +0.010 A 
ATOM     26  C   UNL     1      -5.623   2.150   0.199  0.00  0.00    +0.003 A 
ATOM     27  C   UNL     1      -6.791   1.470  -0.365  0.00  0.00    -0.021 A 
ATOM     28  C   UNL     1      -6.822   0.237   0.165  0.00  0.00    +0.087 A 
ATOM     29  N   UNL     1      -5.769   0.072   1.023  0.00  0.00    -0.360 N 
ATOM     30  C   UNL     1      -5.013   1.222   1.063  0.00  0.00    +0.050 A 
ATOM     31  H   UNL     1      -5.582  -0.736   1.526  0.00  0.00    +0.165 HD
ENDBRANCH  20  27
ENDBRANCH  19  20
ENDBRANCH  15  19
ENDBRANCH   1  16
BRANCH  11  32
ATOM     32  C   UNL     1      -5.670   3.382  -8.815  0.00  0.00    +0.261 C 
BRANCH  32  33
ATOM     33  C   UNL     1      -4.529   2.428  -8.455  0.00  0.00    +0.033 C 
ATOM     34  C   UNL     1      -3.234   3.224  -8.280  0.00  0.00    +0.011 C 
ATOM     35  C   UNL     1      -4.863   1.703  -7.149  0.00  0.00    +0.011 C 
ENDBRANCH  32  33
BRANCH  32  36
ATOM     36  O   UNL     1      -5.328   4.109  -9.996  0.00  0.00    -0.479 OA
BRANCH  36  37
ATOM     37  C   UNL     1      -4.810   5.354  -9.826  0.00  0.00    +0.122 A 
ATOM     38  C   UNL     1      -4.437   6.108 -10.929  0.00  0.00    +0.045 A 
ATOM     39  C   UNL     1      -3.911   7.373 -10.753  0.00  0.00    +0.004 A 
ATOM     40  C   UNL     1      -3.756   7.888  -9.479  0.00  0.00    +0.000 A 
ATOM     41  C   UNL     1      -4.126   7.138  -8.378  0.00  0.00    +0.004 A 
ATOM     42  C   UNL     1      -4.658   5.875  -8.549  0.00  0.00    +0.045 A 
ENDBRANCH  36  37
ENDBRANCH  32  36
ENDBRANCH  11  32
TORSDOF 8
