REMARK  Name = ZINC44873486
REMARK  11 active torsions:
REMARK  status: ('A' for Active; 'I' for Inactive)
REMARK    1  A    between atoms: C_1  and  C_2
REMARK    2  A    between atoms: C_5  and  C_36
REMARK    3  A    between atoms: C_6  and  N_8
REMARK    4  A    between atoms: N_8  and  C_9
REMARK    5  A    between atoms: N_8  and  S_27
REMARK    6  A    between atoms: C_9  and  C_10
REMARK    7  A    between atoms: N_12  and  C_13
REMARK    8  A    between atoms: C_13  and  C_14
REMARK    9  A    between atoms: C_17  and  C_20
REMARK   10  A    between atoms: C_20  and  N_21
REMARK   11  A    between atoms: S_27  and  C_30
REMARK                            x       y       z     vdW  Elec       q    Type
REMARK                         _______ _______ _______ _____ _____    ______ ____
ROOT
ATOM      1  C   UNL     1      -1.301  -3.454   3.549  0.00  0.00    +0.227 C 
ENDROOT
BRANCH   1   2
ATOM      2  C   UNL     1      -1.673  -4.862   3.163  0.00  0.00    +0.232 C 
ATOM      3  O   UNL     1      -1.060  -5.433   2.286  0.00  0.00    -0.274 OA
ATOM      4  N   UNL     1      -2.688  -5.487   3.793  0.00  0.00    -0.310 N 
ATOM      5  H   UNL     1      -3.178  -5.031   4.494  0.00  0.00    +0.149 HD
BRANCH   4   6
ATOM      6  C   UNL     1      -3.050  -6.857   3.418  0.00  0.00    +0.139 C 
BRANCH   6   7
ATOM      7  C   UNL     1      -4.206  -7.321   4.266  0.00  0.00    -0.030 A 
ATOM      8  C   UNL     1      -3.968  -7.954   5.471  0.00  0.00    +0.005 A 
ATOM      9  C   UNL     1      -5.029  -8.380   6.249  0.00  0.00    +0.002 A 
ATOM     10  C   UNL     1      -6.327  -8.172   5.821  0.00  0.00    -0.064 A 
ATOM     11  C   UNL     1      -6.564  -7.537   4.616  0.00  0.00    +0.002 A 
ATOM     12  C   UNL     1      -5.504  -7.108   3.841  0.00  0.00    +0.005 A 
BRANCH  10  13
ATOM     13  C   UNL     1      -7.483  -8.637   6.669  0.00  0.00    -0.043 C 
BRANCH  13  14
ATOM     14  N   UNL     1      -7.876  -7.564   7.592  0.00  0.00    +0.382 N 
ATOM     15  C   UNL     1      -6.777  -7.301   8.530  0.00  0.00    -0.078 C 
ATOM     16  C   UNL     1      -7.150  -6.130   9.442  0.00  0.00    -0.019 C 
ATOM     17  C   UNL     1      -8.418  -6.483  10.225  0.00  0.00    -0.004 C 
ATOM     18  C   UNL     1      -9.536  -6.827   9.237  0.00  0.00    -0.019 C 
ATOM     19  C   UNL     1      -9.076  -7.973   8.333  0.00  0.00    -0.078 C 
ATOM     20  H   UNL     1      -8.075  -6.726   7.067  0.00  0.00    -0.081 HD
ENDBRANCH  13  14
ENDBRANCH  10  13
ENDBRANCH   6   7
ENDBRANCH   4   6
ENDBRANCH   1   2
BRANCH   1  21
ATOM     21  N   UNL     1      -0.274  -2.952   2.633  0.00  0.00    -0.194 N 
BRANCH  21  27
ATOM     22  C   UNL     1      -1.441  -3.420  -2.118  0.00  0.00    +0.044 C 
ATOM     23  C   UNL     1      -1.218  -2.565  -0.897  0.00  0.00    -0.049 A 
ATOM     24  C   UNL     1      -1.381  -1.194  -0.975  0.00  0.00    +0.004 A 
ATOM     25  C   UNL     1      -1.176  -0.405   0.142  0.00  0.00    +0.005 A 
ATOM     26  C   UNL     1      -0.809  -0.985   1.341  0.00  0.00    -0.028 A 
ATOM     27  C   UNL     1      -0.645  -2.362   1.423  0.00  0.00    +0.055 A 
ATOM     28  C   UNL     1      -0.856  -3.152   0.299  0.00  0.00    +0.028 A 
ATOM     29  C   UNL     1      -0.586  -0.125   2.558  0.00  0.00    +0.046 C 
ENDBRANCH  21  27
BRANCH  21  30
ATOM     30  S   UNL     1       1.328  -3.084   3.033  0.00  0.00    +0.075 S 
ATOM     31  O   UNL     1       1.431  -4.171   3.942  0.00  0.00    -0.150 OA
ATOM     32  O   UNL     1       2.056  -3.040   1.813  0.00  0.00    -0.150 OA
BRANCH  30  33
ATOM     33  C   UNL     1       1.762  -1.632   3.931  0.00  0.00    +0.109 A 
ATOM     34  C   UNL     1       2.377  -0.577   3.284  0.00  0.00    +0.029 A 
ATOM     35  C   UNL     1       2.718   0.562   3.989  0.00  0.00    +0.002 A 
ATOM     36  C   UNL     1       2.443   0.647   5.341  0.00  0.00    +0.000 A 
ATOM     37  C   UNL     1       1.827  -0.408   5.988  0.00  0.00    +0.002 A 
ATOM     38  C   UNL     1       1.482  -1.546   5.282  0.00  0.00    +0.029 A 
ENDBRANCH  30  33
ENDBRANCH  21  30
ENDBRANCH   1  21
TORSDOF 9
