REMARK  Name = ZINC39747477
REMARK  11 active torsions:
REMARK  status: ('A' for Active; 'I' for Inactive)
REMARK    1  A    between atoms: C_1  and  C_2
REMARK    2  A    between atoms: C_2  and  C_4
REMARK    3  A    between atoms: C_2  and  S_14
REMARK    4  A    between atoms: N_6  and  C_7
REMARK    5  A    between atoms: C_12  and  O_13
REMARK    6  A    between atoms: S_14  and  C_15
REMARK    7  A    between atoms: C_18  and  C_21
REMARK    8  A    between atoms: N_19  and  C_20
REMARK    9  A    between atoms: C_21  and  C_22
REMARK   10  A    between atoms: C_22  and  N_23
REMARK   11  A    between atoms: C_24  and  C_26
REMARK                            x       y       z     vdW  Elec       q    Type
REMARK                         _______ _______ _______ _____ _____    ______ ____
ROOT
ATOM      1  C   UNL     1      -0.179  -0.017  -2.805  0.00  0.00    +0.192 A 
ATOM      2  N   UNL     1      -1.300   0.657  -2.688  0.00  0.00    -0.122 NA
ATOM      3  N   UNL     1      -1.794   0.888  -3.852  0.00  0.00    -0.133 NA
ATOM      4  C   UNL     1      -1.026   0.380  -4.773  0.00  0.00    +0.135 A 
ATOM      5  N   UNL     1       0.034  -0.209  -4.140  0.00  0.00    -0.309 N 
ATOM      6  C   UNL     1       1.161  -0.906  -4.764  0.00  0.00    +0.152 C 
ENDROOT
BRANCH   1   7
ATOM      7  S   UNL     1       0.857  -0.562  -1.489  0.00  0.00    -0.074 S 
BRANCH   7   9
ATOM      8  C   UNL     1      -0.008   1.544   0.027  0.00  0.00    +0.029 C 
ATOM      9  C   UNL     1       0.008   0.014   0.007  0.00  0.00    +0.137 C 
BRANCH   9  10
ATOM     10  C   UNL     1       0.733  -0.497   1.225  0.00  0.00    +0.230 C 
ATOM     11  O   UNL     1       1.913  -0.772   1.157  0.00  0.00    -0.274 OA
ATOM     12  N   UNL     1       0.071  -0.647   2.389  0.00  0.00    -0.282 N 
ATOM     13  H   UNL     1      -0.854  -0.367   2.461  0.00  0.00    +0.155 HD
BRANCH  12  14
ATOM     14  C   UNL     1       0.721  -1.210   3.497  0.00  0.00    +0.075 A 
ATOM     15  C   UNL     1       2.071  -0.969   3.707  0.00  0.00    +0.027 A 
ATOM     16  C   UNL     1       2.709  -1.524   4.800  0.00  0.00    +0.002 A 
ATOM     17  C   UNL     1       2.005  -2.320   5.685  0.00  0.00    +0.004 A 
ATOM     18  C   UNL     1       0.660  -2.565   5.482  0.00  0.00    +0.047 A 
ATOM     19  C   UNL     1       0.011  -2.007   4.392  0.00  0.00    +0.138 A 
BRANCH  19  20
ATOM     20  O   UNL     1      -1.313  -2.242   4.193  0.00  0.00    -0.505 OA
ATOM     21  H   UNL     1      -1.498  -3.025   3.656  0.00  0.00    +0.292 HD
ENDBRANCH  19  20
ENDBRANCH  12  14
ENDBRANCH   9  10
ENDBRANCH   7   9
ENDBRANCH   1   7
BRANCH   4  22
ATOM     22  C   UNL     1      -1.258   0.437  -6.261  0.00  0.00    +0.095 C 
BRANCH  22  23
ATOM     23  C   UNL     1      -0.598   1.694  -6.832  0.00  0.00    +0.112 C 
BRANCH  23  24
ATOM     24  N   UNL     1      -0.823   1.749  -8.278  0.00  0.00    -0.311 N 
ATOM     25  C   UNL     1      -0.330   2.776  -8.999  0.00  0.00    +0.244 C 
ATOM     26  O   UNL     1       0.302   3.656  -8.448  0.00  0.00    -0.270 OA
ATOM     27  H   UNL     1      -1.328   1.047  -8.718  0.00  0.00    +0.149 HD
BRANCH  25  28
ATOM     28  C   UNL     1      -0.557   2.832 -10.458  0.00  0.00    +0.038 A 
ATOM     29  C   UNL     1      -1.288   1.825 -11.092  0.00  0.00    +0.014 A 
ATOM     30  C   UNL     1      -1.497   1.882 -12.454  0.00  0.00    +0.022 A 
ATOM     31  C   UNL     1      -0.984   2.935 -13.193  0.00  0.00    +0.059 A 
ATOM     32  C   UNL     1      -0.258   3.937 -12.570  0.00  0.00    +0.060 A 
ATOM     33  C   UNL     1      -0.048   3.894 -11.206  0.00  0.00    +0.034 A 
ATOM     34 CL   UNL     1       0.381   5.253 -13.504  0.00  0.00    -0.082 Cl
ATOM     35 CL   UNL     1      -1.251   2.999 -14.907  0.00  0.00    -0.082 Cl
ENDBRANCH  25  28
ENDBRANCH  23  24
ENDBRANCH  22  23
ENDBRANCH   4  22
TORSDOF 9
