REMARK  Name = ZINC09043957
REMARK  11 active torsions:
REMARK  status: ('A' for Active; 'I' for Inactive)
REMARK    1  A    between atoms: C_1  and  C_2
REMARK    2  A    between atoms: C_2  and  C_3
REMARK    3  A    between atoms: C_2  and  C_4
REMARK    4  A    between atoms: C_7  and  S_10
REMARK    5  A    between atoms: S_10  and  C_13
REMARK    6  A    between atoms: C_13  and  C_15
REMARK    7  A    between atoms: C_13  and  C_31
REMARK    8  A    between atoms: C_15  and  N_16
REMARK    9  A    between atoms: C_17  and  C_19
REMARK   10  A    between atoms: N_21  and  N_22
REMARK   11  A    between atoms: C_23  and  C_25
REMARK                            x       y       z     vdW  Elec       q    Type
REMARK                         _______ _______ _______ _____ _____    ______ ____
ROOT
ATOM      1  C   UNL     1       5.369  11.925   0.017  0.00  0.00    +0.184 C 
ENDROOT
BRANCH   1   2
ATOM      2  C   UNL     1       6.628  12.754   0.010  0.00  0.00    -0.003 A 
ATOM      3  C   UNL     1       6.894  13.634   1.048  0.00  0.00    +0.008 A 
ATOM      4  C   UNL     1       8.064  14.377   0.999  0.00  0.00    +0.020 A 
ATOM      5  C   UNL     1       8.919  14.217  -0.075  0.00  0.00    +0.111 A 
ATOM      6  N   UNL     1       8.633  13.370  -1.044  0.00  0.00    -0.263 NA
ATOM      7  C   UNL     1       7.533  12.643  -1.028  0.00  0.00    +0.116 A 
ENDBRANCH   1   2
BRANCH   1   8
ATOM      8  S   UNL     1       4.380  12.314  -1.453  0.00  0.00    +0.005 S 
ATOM      9  O   UNL     1       5.143  12.086  -2.630  0.00  0.00    -0.169 OA
ATOM     10  O   UNL     1       3.073  11.772  -1.321  0.00  0.00    -0.169 OA
BRANCH   8  14
ATOM     11  C   UNL     1       3.792  16.800  -1.306  0.00  0.00    -0.045 A 
ATOM     12  C   UNL     1       4.886  16.267  -1.963  0.00  0.00    +0.006 A 
ATOM     13  C   UNL     1       5.065  14.897  -2.008  0.00  0.00    +0.027 A 
ATOM     14  C   UNL     1       4.152  14.060  -1.396  0.00  0.00    +0.089 A 
ATOM     15  C   UNL     1       3.055  14.592  -0.743  0.00  0.00    +0.027 A 
ATOM     16  C   UNL     1       2.878  15.962  -0.695  0.00  0.00    +0.006 A 
BRANCH  11  18
ATOM     17  C   UNL     1       2.265  18.656  -1.916  0.00  0.00    +0.012 C 
ATOM     18  C   UNL     1       3.597  18.293  -1.256  0.00  0.00    +0.013 C 
ATOM     19  C   UNL     1       3.587  18.758   0.202  0.00  0.00    +0.012 C 
ENDBRANCH  11  18
ENDBRANCH   8  14
ENDBRANCH   1   8
BRANCH   1  20
ATOM     20  C   UNL     1       5.738  10.440   0.005  0.00  0.00    +0.136 C 
BRANCH  20  21
ATOM     21  N   UNL     1       4.514   9.633   0.012  0.00  0.00    -0.305 N 
ATOM     22  C   UNL     1       4.594   8.288   0.004  0.00  0.00    +0.301 C 
ATOM     23  O   UNL     1       5.679   7.745  -0.009  0.00  0.00    -0.265 OA
ATOM     24  H   UNL     1       3.647  10.068   0.023  0.00  0.00    +0.149 HD
BRANCH  22  25
ATOM     25  C   UNL     1       3.347   7.465   0.011  0.00  0.00    +0.315 C 
ATOM     26  O   UNL     1       2.262   8.009   0.024  0.00  0.00    -0.264 OA
ATOM     27  N   UNL     1       3.426   6.120   0.003  0.00  0.00    -0.226 N 
ATOM     28  H   UNL     1       4.294   5.686  -0.007  0.00  0.00    +0.173 HD
BRANCH  27  29
ATOM     29  N   UNL     1       2.257   5.349   0.010  0.00  0.00    -0.230 N 
ATOM     30  C   UNL     1       2.337   4.003   0.002  0.00  0.00    +0.262 C 
ATOM     31  O   UNL     1       3.424   3.459  -0.011  0.00  0.00    -0.269 OA
ATOM     32  H   UNL     1       1.390   5.783   0.020  0.00  0.00    +0.173 HD
BRANCH  30  33
ATOM     33  C   UNL     1       1.103   3.189   0.009  0.00  0.00    +0.056 A 
ATOM     34  C   UNL     1       1.172   1.791   0.001  0.00  0.00    +0.016 A 
ATOM     35  C   UNL     1      -0.013   1.076   0.008  0.00  0.00    +0.020 A 
ATOM     36  C   UNL     1      -1.216   1.758   0.017  0.00  0.00    +0.111 A 
ATOM     37  N   UNL     1      -1.250   3.077   0.031  0.00  0.00    -0.263 NA
ATOM     38  C   UNL     1      -0.151   3.802   0.024  0.00  0.00    +0.123 A 
ENDBRANCH  30  33
ENDBRANCH  27  29
ENDBRANCH  22  25
ENDBRANCH  20  21
ENDBRANCH   1  20
TORSDOF 9
