REMARK  Name = ZINC03978079
REMARK  14 active torsions:
REMARK  status: ('A' for Active; 'I' for Inactive)
REMARK    1  A    between atoms: C_1  and  C_2
REMARK    2  A    between atoms: C_2  and  C_3
REMARK    3  A    between atoms: C_3  and  C_4
REMARK    4  A    between atoms: C_7  and  C_11
REMARK    5  A    between atoms: C_10  and  N_60
REMARK    6  A    between atoms: N_13  and  C_14
REMARK    7  A    between atoms: C_14  and  C_16
REMARK    8  A    between atoms: C_14  and  C_32
REMARK    9  A    between atoms: C_18  and  O_31
REMARK   10  A    between atoms: C_20  and  O_30
REMARK   11  A    between atoms: C_22  and  O_29
REMARK   12  A    between atoms: C_24  and  S_27
REMARK   13  A    between atoms: S_27  and  C_28
REMARK   14  A    between atoms: C_32  and  C_34
REMARK                            x       y       z     vdW  Elec       q    Type
REMARK                         _______ _______ _______ _____ _____    ______ ____
ROOT
ATOM      1  C   UNL     1      -2.945  -1.465  -2.824  0.00  0.00    +0.122 C 
ENDROOT
BRANCH   1   2
ATOM      2  C   UNL     1      -4.363  -1.912  -2.460  0.00  0.00    +0.172 C 
ATOM      3  C   UNL     1      -4.294  -3.024  -1.410  0.00  0.00    +0.176 C 
ATOM      4  C   UNL     1      -3.564  -4.233  -2.006  0.00  0.00    +0.177 C 
ATOM      5  C   UNL     1      -4.291  -4.678  -3.278  0.00  0.00    +0.184 C 
ATOM      6  C   UNL     1      -4.360  -3.502  -4.255  0.00  0.00    +0.207 C 
ATOM      7  O   UNL     1      -5.023  -2.402  -3.629  0.00  0.00    -0.356 OA
BRANCH   6   8
ATOM      8  S   UNL     1      -5.281  -3.999  -5.737  0.00  0.00    -0.131 S 
ATOM      9  C   UNL     1      -4.884  -2.713  -6.953  0.00  0.00    +0.087 C 
ENDBRANCH   6   8
BRANCH   5  10
ATOM     10  O   UNL     1      -3.579  -5.760  -3.882  0.00  0.00    -0.386 OA
ATOM     11  H   UNL     1      -3.982  -6.090  -4.697  0.00  0.00    +0.210 HD
ENDBRANCH   5  10
BRANCH   4  12
ATOM     12  O   UNL     1      -3.560  -5.303  -1.058  0.00  0.00    -0.386 OA
ATOM     13  H   UNL     1      -3.119  -6.104  -1.372  0.00  0.00    +0.210 HD
ENDBRANCH   4  12
BRANCH   3  14
ATOM     14  O   UNL     1      -3.583  -2.555  -0.263  0.00  0.00    -0.387 OA
ATOM     15  H   UNL     1      -3.501  -3.210   0.444  0.00  0.00    +0.210 HD
ENDBRANCH   3  14
ENDBRANCH   1   2
BRANCH   1  18
ATOM     16  C   UNL     1      -0.870  -1.178  -1.579  0.00  0.00    +0.200 C 
ATOM     17  O   UNL     1      -0.263  -1.530  -2.568  0.00  0.00    -0.278 OA
ATOM     18  N   UNL     1      -2.216  -1.112  -1.603  0.00  0.00    -0.310 N 
ATOM     19  H   UNL     1      -2.702  -0.831  -0.812  0.00  0.00    +0.149 HD
BRANCH  16  22
ATOM     20  C   UNL     1       1.516   1.004  -0.176  0.00  0.00    -0.029 C 
ATOM     21  C   UNL     1      -0.003   0.717  -0.207  0.00  0.00    -0.005 C 
ATOM     22  C   UNL     1      -0.120  -0.815  -0.324  0.00  0.00    +0.019 C 
ATOM     23  C   UNL     1       2.114  -0.347   0.292  0.00  0.00    -0.075 C 
ATOM     24  C   UNL     1       1.343  -2.656   0.285  0.00  0.00    -0.095 C 
ATOM     25  N   UNL     1       1.255  -1.324  -0.385  0.00  0.00    +0.386 N 
ATOM     26  H   UNL     1       1.546  -1.420  -1.365  0.00  0.00    -0.081 HD
BRANCH  20  27
ATOM     27  C   UNL     1       1.837   2.114   0.826  0.00  0.00    +0.001 C 
BRANCH  27  29
ATOM     28  C   UNL     1       3.645   3.572   1.747  0.00  0.00    +0.004 C 
ATOM     29  C   UNL     1       3.325   2.461   0.745  0.00  0.00    -0.003 C 
ENDBRANCH  27  29
ENDBRANCH  20  27
ENDBRANCH  16  22
ENDBRANCH   1  18
BRANCH   1  30
ATOM     30  C   UNL     1      -3.015  -0.247  -3.747  0.00  0.00    +0.100 C 
ATOM     31  C   UNL     1      -1.604   0.291  -3.989  0.00  0.00    +0.026 C 
ATOM     32 CL   UNL     1      -3.755  -0.726  -5.319  0.00  0.00    -0.120 Cl
ENDBRANCH   1  30
TORSDOF 10
