REMARK  Name = ZINC39630880
REMARK  10 active torsions:
REMARK  status: ('A' for Active; 'I' for Inactive)
REMARK    1  A    between atoms: C_1  and  C_2
REMARK    2  A    between atoms: C_2  and  C_3
REMARK    3  A    between atoms: C_2  and  C_4
REMARK    4  A    between atoms: C_2  and  C_29
REMARK    5  A    between atoms: C_4  and  N_5
REMARK    6  A    between atoms: C_6  and  C_8
REMARK    7  A    between atoms: C_19  and  C_21
REMARK    8  A    between atoms: C_29  and  N_30
REMARK    9  A    between atoms: N_30  and  C_31
REMARK   10  A    between atoms: N_30  and  C_32
REMARK                            x       y       z     vdW  Elec       q    Type
REMARK                         _______ _______ _______ _____ _____    ______ ____
ROOT
ATOM      1  C   UNL     1      -5.702  -0.044   1.699  0.00  0.00    +0.100 C 
ATOM      2  C   UNL     1      -5.373  -0.327   3.182  0.00  0.00    +0.121 C 
ATOM      3  N   UNL     1      -6.593  -0.976   3.719  0.00  0.00    -0.296 N 
ATOM      4  C   UNL     1      -7.047  -1.868   2.626  0.00  0.00    +0.115 C 
ATOM      5  C   UNL     1      -6.800  -1.058   1.337  0.00  0.00    -0.004 C 
ATOM      6  C   UNL     1      -6.322  -1.979   0.219  0.00  0.00    -0.010 C 
ATOM      7  C   UNL     1      -7.452  -2.940  -0.163  0.00  0.00    -0.082 C 
ATOM      8  N   UNL     1      -8.623  -2.171  -0.602  0.00  0.00    +0.379 N 
ATOM      9  C   UNL     1      -9.133  -1.358   0.509  0.00  0.00    -0.082 C 
ATOM     10  C   UNL     1      -8.074  -0.330   0.919  0.00  0.00    -0.010 C 
ATOM     11  C   UNL     1      -7.160  -0.794   4.927  0.00  0.00    +0.249 C 
ATOM     12  O   UNL     1      -8.217  -1.336   5.190  0.00  0.00    -0.270 OA
ATOM     13  H   UNL     1      -8.360  -1.568  -1.366  0.00  0.00    -0.086 HD
ATOM     14  H   UNL     1      -9.344  -2.806  -0.910  0.00  0.00    -0.086 HD
ENDROOT
BRANCH  11  15
ATOM     15  C   UNL     1      -6.500   0.062   5.933  0.00  0.00    +0.073 A 
ATOM     16  C   UNL     1      -5.113   0.224   5.914  0.00  0.00    +0.036 A 
ATOM     17  C   UNL     1      -4.502   1.026   6.856  0.00  0.00    +0.042 A 
ATOM     18  C   UNL     1      -5.261   1.671   7.820  0.00  0.00    +0.023 A 
ATOM     19  C   UNL     1      -6.634   1.517   7.845  0.00  0.00    +0.040 A 
ATOM     20  C   UNL     1      -7.261   0.720   6.904  0.00  0.00    +0.136 A 
ATOM     21  F   UNL     1      -8.604   0.574   6.926  0.00  0.00    -0.205 F 
ATOM     22 CL   UNL     1      -2.778   1.228   6.835  0.00  0.00    -0.084 Cl
ENDBRANCH  11  15
BRANCH   1  24
ATOM     23  N   UNL     1      -4.317   0.455  -0.289  0.00  0.00    -0.315 N 
ATOM     24  C   UNL     1      -4.483  -0.262   0.840  0.00  0.00    +0.218 C 
ATOM     25  O   UNL     1      -3.652  -1.084   1.165  0.00  0.00    -0.275 OA
ATOM     26  H   UNL     1      -4.981   1.112  -0.548  0.00  0.00    +0.149 HD
BRANCH  23  27
ATOM     27  C   UNL     1      -3.132   0.243  -1.124  0.00  0.00    +0.108 C 
BRANCH  27  29
ATOM     28  C   UNL     1      -4.446   0.878  -3.151  0.00  0.00    +0.010 C 
ATOM     29  C   UNL     1      -3.187   1.176  -2.335  0.00  0.00    -0.034 C 
ATOM     30  C   UNL     1      -3.221   2.630  -1.857  0.00  0.00    +0.010 C 
BRANCH  29  31
ATOM     31  C   UNL     1      -1.950   0.955  -3.207  0.00  0.00    -0.072 C 
BRANCH  31  32
ATOM     32  N   UNL     1      -1.941   1.933  -4.302  0.00  0.00    +0.376 N 
ATOM     33  C   UNL     1      -1.299   3.173  -3.846  0.00  0.00    -0.097 C 
ATOM     34  C   UNL     1      -1.194   1.385  -5.442  0.00  0.00    -0.097 C 
ATOM     35  H   UNL     1      -2.889   2.129  -4.585  0.00  0.00    -0.083 HD
ENDBRANCH  31  32
ENDBRANCH  29  31
ENDBRANCH  27  29
ENDBRANCH  23  27
ENDBRANCH   1  24
TORSDOF 6
