REMARK  Name = ZINC35585588
REMARK  6 active torsions:
REMARK  status: ('A' for Active; 'I' for Inactive)
REMARK    1  A    between atoms: C_1  and  C_2
REMARK    2  A    between atoms: C_2  and  C_3
REMARK    3  A    between atoms: C_3  and  N_4
REMARK    4  A    between atoms: N_4  and  C_5
REMARK    5  A    between atoms: C_5  and  C_7
REMARK    6  A    between atoms: C_5  and  C_14
REMARK                            x       y       z     vdW  Elec       q    Type
REMARK                         _______ _______ _______ _____ _____    ______ ____
ROOT
ATOM      1  C   UNL     1      -2.792  -2.511   0.015  0.00  0.00    -0.007 C 
ENDROOT
BRANCH   1   2
ATOM      2  C   UNL     1      -2.832  -4.008   0.187  0.00  0.00    -0.043 A 
ATOM      3  C   UNL     1      -3.262  -4.811  -0.852  0.00  0.00    +0.003 A 
ATOM      4  C   UNL     1      -3.298  -6.184  -0.695  0.00  0.00    +0.000 A 
ATOM      5  C   UNL     1      -2.904  -6.754   0.502  0.00  0.00    +0.001 A 
ATOM      6  C   UNL     1      -2.474  -5.951   1.541  0.00  0.00    +0.015 A 
ATOM      7  C   UNL     1      -2.433  -4.577   1.382  0.00  0.00    +0.020 A 
ATOM      8 BR   UNL     1      -1.837  -3.479   2.802  0.00  0.00    -0.050 Br
ENDBRANCH   1   2
BRANCH   1   9
ATOM      9  C   UNL     1      -3.638  -2.118  -1.168  0.00  0.00    -0.030 A 
ATOM     10  C   UNL     1      -3.070  -1.976  -2.421  0.00  0.00    +0.031 A 
ATOM     11  C   UNL     1      -3.861  -1.622  -3.465  0.00  0.00    +0.080 A 
ATOM     12  S   UNL     1      -5.460  -1.479  -2.684  0.00  0.00    -0.065 S 
ATOM     13  C   UNL     1      -4.969  -1.905  -1.022  0.00  0.00    +0.081 A 
ATOM     14 CL   UNL     1      -5.943  -2.015   0.411  0.00  0.00    -0.076 Cl
ATOM     15 CL   UNL     1      -3.430  -1.373  -5.128  0.00  0.00    -0.076 Cl
ENDBRANCH   1   9
BRANCH   1  16
ATOM     16  N   UNL     1      -1.405  -2.081  -0.210  0.00  0.00    +0.386 N 
ATOM     17  H   UNL     1      -1.074  -2.459  -1.085  0.00  0.00    -0.085 HD
ATOM     18  H   UNL     1      -0.823  -2.415   0.543  0.00  0.00    -0.085 HD
BRANCH  16  19
ATOM     19  C   UNL     1      -1.349  -0.614  -0.259  0.00  0.00    -0.082 C 
BRANCH  19  21
ATOM     20  C   UNL     1       0.153   1.362  -0.544  0.00  0.00    +0.002 C 
ATOM     21  C   UNL     1       0.095  -0.166  -0.493  0.00  0.00    -0.022 C 
ENDBRANCH  19  21
ENDBRANCH  16  19
ENDBRANCH   1  16
TORSDOF 5
