REMARK  Name = ZINC22791548
REMARK  6 active torsions:
REMARK  status: ('A' for Active; 'I' for Inactive)
REMARK    1  A    between atoms: C_1  and  C_2
REMARK    2  A    between atoms: C_15  and  C_17
REMARK    3  A    between atoms: C_17  and  N_18
REMARK    4  A    between atoms: N_18  and  C_19
REMARK    5  A    between atoms: C_19  and  C_21
REMARK    6  A    between atoms: C_19  and  C_30
REMARK                            x       y       z     vdW  Elec       q    Type
REMARK                         _______ _______ _______ _____ _____    ______ ____
ROOT
ATOM      1  N   UNL     1       4.731   0.257   0.712  0.00  0.00    +0.392 N 
ATOM      2  H   UNL     1       4.481  -0.089   1.725  0.00  0.00    -0.084 HD
ATOM      3  H   UNL     1       4.650  -0.583   0.007  0.00  0.00    -0.084 HD
ENDROOT
BRANCH   1   4
ATOM      4  C   UNL     1       3.800   1.321   0.314  0.00  0.00    +0.017 C 
BRANCH   4  18
ATOM      5  C   UNL     1      -0.726   1.578   1.269  0.00  0.00    +0.029 C 
ATOM      6  C   UNL     1      -0.013   1.086   0.008  0.00  0.00    +0.087 C 
ATOM      7  C   UNL     1      -0.761   1.591  -1.227  0.00  0.00    +0.118 C 
ATOM      8  C   UNL     1       0.112   1.469  -2.447  0.00  0.00    +0.219 C 
ATOM      9  O   UNL     1      -0.092   0.581  -3.248  0.00  0.00    -0.275 OA
ATOM     10  N   UNL     1       1.122   2.341  -2.656  0.00  0.00    -0.284 N 
ATOM     11  C   UNL     1       1.432   3.312  -1.697  0.00  0.00    +0.055 A 
ATOM     12  C   UNL     1       1.618   4.635  -2.059  0.00  0.00    +0.025 A 
ATOM     13  C   UNL     1       1.978   5.566  -1.103  0.00  0.00    +0.002 A 
ATOM     14  C   UNL     1       2.152   5.181   0.214  0.00  0.00    +0.002 A 
ATOM     15  C   UNL     1       1.956   3.864   0.586  0.00  0.00    +0.025 A 
ATOM     16  C   UNL     1       1.587   2.926  -0.365  0.00  0.00    +0.058 A 
ATOM     17  N   UNL     1       1.361   1.591  -0.002  0.00  0.00    -0.268 N 
ATOM     18  C   UNL     1       2.391   0.787   0.330  0.00  0.00    +0.203 C 
ATOM     19  O   UNL     1       2.183  -0.367   0.641  0.00  0.00    -0.277 OA
ATOM     20  H   UNL     1       1.708   2.292  -3.586  0.00  0.00    +0.155 HD
ENDBRANCH   4  18
ENDBRANCH   1   4
BRANCH   1  21
ATOM     21  C   UNL     1       6.118   0.743   0.708  0.00  0.00    -0.003 C 
BRANCH  21  22
ATOM     22  C   UNL     1       6.944  -0.088   1.656  0.00  0.00    -0.056 A 
ATOM     23  C   UNL     1       6.751  -1.456   1.724  0.00  0.00    +0.002 A 
ATOM     24  C   UNL     1       7.510  -2.216   2.593  0.00  0.00    +0.004 A 
ATOM     25  C   UNL     1       8.463  -1.612   3.397  0.00  0.00    -0.044 A 
ATOM     26  C   UNL     1       8.655  -0.245   3.328  0.00  0.00    -0.044 A 
ATOM     27  C   UNL     1       7.897   0.514   2.452  0.00  0.00    +0.006 A 
ATOM     28  C   UNL     1       9.743   0.168   4.296  0.00  0.00    +0.036 C 
ATOM     29  C   UNL     1      10.493  -1.137   4.641  0.00  0.00    +0.009 C 
ATOM     30  C   UNL     1       9.409  -2.212   4.415  0.00  0.00    +0.036 C 
ENDBRANCH  21  22
BRANCH  21  31
ATOM     31  C   UNL     1       6.685   0.631  -0.683  0.00  0.00    -0.020 A 
ATOM     32  C   UNL     1       7.488   1.497  -1.350  0.00  0.00    +0.010 A 
ATOM     33  C   UNL     1       7.891   1.184  -2.634  0.00  0.00    +0.008 A 
ATOM     34  C   UNL     1       7.473   0.020  -3.189  0.00  0.00    +0.045 A 
ATOM     35  S   UNL     1       6.482  -0.679  -1.879  0.00  0.00    -0.103 S 
ENDBRANCH  21  31
ENDBRANCH   1  21
TORSDOF 5
