REMARK  Name = ZINC09018592
REMARK  9 active torsions:
REMARK  status: ('A' for Active; 'I' for Inactive)
REMARK    1  A    between atoms: C_1  and  C_2
REMARK    2  A    between atoms: C_2  and  C_3
REMARK    3  A    between atoms: C_2  and  C_4
REMARK    4  A    between atoms: C_12  and  S_15
REMARK    5  A    between atoms: S_15  and  C_16
REMARK    6  A    between atoms: C_16  and  C_17
REMARK    7  A    between atoms: N_19  and  C_20
REMARK    8  A    between atoms: C_24  and  N_26
REMARK    9  A    between atoms: C_27  and  C_29
REMARK                            x       y       z     vdW  Elec       q    Type
REMARK                         _______ _______ _______ _____ _____    ______ ____
ROOT
ATOM      1  C   UNL     1      -4.466  -7.430   0.723  0.00  0.00    +0.173 C 
ENDROOT
BRANCH   1   2
ATOM      2  C   UNL     1      -3.231  -6.574   0.616  0.00  0.00    +0.227 C 
ATOM      3  O   UNL     1      -2.138  -7.093   0.539  0.00  0.00    -0.275 OA
ATOM      4  N   UNL     1      -3.341  -5.230   0.605  0.00  0.00    -0.285 N 
ATOM      5  H   UNL     1      -4.217  -4.816   0.599  0.00  0.00    +0.155 HD
BRANCH   4   6
ATOM      6  C   UNL     1      -2.190  -4.434   0.604  0.00  0.00    +0.035 A 
ATOM      7  C   UNL     1      -2.179  -3.225   1.288  0.00  0.00    +0.023 A 
ATOM      8  C   UNL     1      -1.044  -2.439   1.287  0.00  0.00    +0.004 A 
ATOM      9  C   UNL     1       0.085  -2.852   0.606  0.00  0.00    +0.023 A 
ATOM     10  C   UNL     1       0.081  -4.059  -0.081  0.00  0.00    +0.035 A 
ATOM     11  C   UNL     1      -1.060  -4.849  -0.086  0.00  0.00    +0.046 A 
BRANCH  10  12
ATOM     12  N   UNL     1       1.225  -4.476  -0.771  0.00  0.00    -0.286 N 
ATOM     13  C   UNL     1       2.448  -4.201  -0.276  0.00  0.00    +0.214 C 
ATOM     14  O   UNL     1       2.560  -3.520   0.721  0.00  0.00    -0.276 OA
ATOM     15  C   UNL     1       3.677  -4.739  -0.963  0.00  0.00    +0.109 C 
ATOM     16  H   UNL     1       1.137  -4.963  -1.605  0.00  0.00    +0.155 HD
ENDBRANCH  10  12
ENDBRANCH   4   6
ENDBRANCH   1   2
BRANCH   1  17
ATOM     17  S   UNL     1      -3.991  -9.181   0.712  0.00  0.00    -0.076 S 
BRANCH  17  26
ATOM     18  C   UNL     1      -4.781 -12.433   0.820  0.00  0.00    +0.037 A 
ATOM     19  C   UNL     1      -5.208 -13.708   0.871  0.00  0.00    +0.092 A 
ATOM     20  C   UNL     1      -6.594 -13.985   0.982  0.00  0.00    +0.253 A 
ATOM     21  O   UNL     1      -6.984 -15.138   1.029  0.00  0.00    -0.268 OA
ATOM     22  N   UNL     1      -7.478 -12.969   1.035  0.00  0.00    -0.291 N 
ATOM     23  H   UNL     1      -8.427 -13.154   1.111  0.00  0.00    +0.172 HD
ATOM     24  C   UNL     1      -7.028 -11.660   0.982  0.00  0.00    +0.237 A 
ATOM     25  N   UNL     1      -5.687 -11.398   0.869  0.00  0.00    -0.260 N 
ATOM     26  C   UNL     1      -5.525 -10.039   0.842  0.00  0.00    +0.198 A 
ATOM     27  N   UNL     1      -6.711  -9.488   0.926  0.00  0.00    -0.120 NA
ATOM     28  N   UNL     1      -7.662 -10.513   1.014  0.00  0.00    -0.109 NA
BRANCH  18  30
ATOM     29  C   UNL     1      -2.766 -11.695   2.062  0.00  0.00    +0.013 C 
ATOM     30  C   UNL     1      -3.308 -12.139   0.701  0.00  0.00    +0.030 C 
ATOM     31  C   UNL     1      -2.571 -13.399   0.245  0.00  0.00    +0.013 C 
ENDBRANCH  18  30
ENDBRANCH  17  26
ENDBRANCH   1  17
TORSDOF 6
