REMARK  Name = ZINC42910983
REMARK  10 active torsions:
REMARK  status: ('A' for Active; 'I' for Inactive)
REMARK    1  A    between atoms: C_1  and  C_2
REMARK    2  A    between atoms: C_5  and  S_8
REMARK    3  A    between atoms: S_8  and  C_9
REMARK    4  A    between atoms: C_9  and  C_10
REMARK    5  A    between atoms: N_12  and  N_13
REMARK    6  A    between atoms: N_16  and  C_17
REMARK    7  A    between atoms: C_19  and  C_25
REMARK    8  A    between atoms: C_19  and  C_26
REMARK    9  A    between atoms: C_21  and  C_23
REMARK   10  A    between atoms: C_21  and  C_24
REMARK                            x       y       z     vdW  Elec       q    Type
REMARK                         _______ _______ _______ _____ _____    ______ ____
ROOT
ATOM      1  N   UNL     1      -0.160  -8.638   3.213  0.00  0.00    -0.218 N 
ATOM      2  C   UNL     1      -0.184  -9.211   4.433  0.00  0.00    +0.316 C 
ATOM      3  O   UNL     1      -0.253 -10.420   4.535  0.00  0.00    -0.251 OA
ATOM      4  N   UNL     1      -0.130  -8.443   5.539  0.00  0.00    -0.295 N 
ATOM      5  H   UNL     1      -0.199  -9.190   2.417  0.00  0.00    +0.174 HD
ATOM      6  H   UNL     1      -0.074  -7.478   5.458  0.00  0.00    +0.151 HD
ENDROOT
BRANCH   4   7
ATOM      7  C   UNL     1      -0.155  -9.067   6.868  0.00  0.00    +0.072 C 
ATOM      8  C   UNL     1      -1.609  -9.271   7.300  0.00  0.00    +0.009 C 
ATOM      9  C   UNL     1      -1.652  -9.909   8.688  0.00  0.00    -0.072 C 
ATOM     10  N   UNL     1      -0.881  -9.153   9.663  0.00  0.00    +0.386 N 
ATOM     11  C   UNL     1       0.454  -8.722   9.282  0.00  0.00    -0.072 C 
ATOM     12  C   UNL     1       0.518  -8.136   7.875  0.00  0.00    +0.009 C 
ATOM     13  C   UNL     1       1.476  -9.853   9.422  0.00  0.00    -0.010 C 
ATOM     14  C   UNL     1       0.880  -7.605  10.264  0.00  0.00    -0.010 C 
ATOM     15  C   UNL     1      -1.210 -11.370   8.612  0.00  0.00    -0.010 C 
ATOM     16  C   UNL     1      -3.127  -9.901   9.150  0.00  0.00    -0.010 C 
ATOM     17  H   UNL     1      -1.423  -8.326   9.929  0.00  0.00    -0.084 HD
ATOM     18  H   UNL     1      -0.808  -9.711  10.517  0.00  0.00    -0.084 HD
ENDBRANCH   4   7
BRANCH   1  21
ATOM     19  C   UNL     1      -0.057  -6.671   1.876  0.00  0.00    +0.239 C 
ATOM     20  O   UNL     1      -0.105  -7.362   0.880  0.00  0.00    -0.273 OA
ATOM     21  N   UNL     1      -0.080  -7.244   3.095  0.00  0.00    -0.233 N 
ATOM     22  H   UNL     1      -0.042  -6.691   3.892  0.00  0.00    +0.173 HD
BRANCH  19  23
ATOM     23  C   UNL     1       0.029  -5.172   1.749  0.00  0.00    +0.171 C 
BRANCH  23  24
ATOM     24  S   UNL     1       0.041  -4.713  -0.006  0.00  0.00    -0.116 S 
BRANCH  24  29
ATOM     25  C   UNL     1       0.390   1.313   0.062  0.00  0.00    +0.044 C 
ATOM     26  C   UNL     1       0.303  -0.192   0.045  0.00  0.00    -0.050 A 
ATOM     27  C   UNL     1       0.255  -0.866  -1.161  0.00  0.00    +0.004 A 
ATOM     28  C   UNL     1       0.175  -2.245  -1.181  0.00  0.00    +0.015 A 
ATOM     29  C   UNL     1       0.144  -2.954   0.014  0.00  0.00    +0.008 A 
ATOM     30  C   UNL     1       0.193  -2.273   1.224  0.00  0.00    +0.015 A 
ATOM     31  C   UNL     1       0.278  -0.895   1.236  0.00  0.00    +0.004 A 
ENDBRANCH  24  29
ENDBRANCH  23  24
ENDBRANCH  19  23
ENDBRANCH   1  21
TORSDOF 5
