REMARK  Name = ZINC35038021
REMARK  13 active torsions:
REMARK  status: ('A' for Active; 'I' for Inactive)
REMARK    1  A    between atoms: C_1  and  C_2
REMARK    2  A    between atoms: C_2  and  C_4
REMARK    3  A    between atoms: C_2  and  N_22
REMARK    4  A    between atoms: N_14  and  C_15
REMARK    5  A    between atoms: N_22  and  C_23
REMARK    6  A    between atoms: C_23  and  C_24
REMARK    7  A    between atoms: C_24  and  N_25
REMARK    8  A    between atoms: N_25  and  C_26
REMARK    9  A    between atoms: N_25  and  C_27
REMARK   10  A    between atoms: N_30  and  C_31
REMARK   11  A    between atoms: C_31  and  C_32
REMARK   12  A    between atoms: C_31  and  C_33
REMARK   13  A    between atoms: C_31  and  C_34
REMARK                            x       y       z     vdW  Elec       q    Type
REMARK                         _______ _______ _______ _____ _____    ______ ____
ROOT
ATOM      1  C   UNL     1       0.745  -0.907  -1.159  0.00  0.00    +0.138 A 
ATOM      2  N   UNL     1       1.971  -0.585  -1.442  0.00  0.00    -0.231 NA
ATOM      3  C   UNL     1       2.433  -0.596  -2.717  0.00  0.00    +0.078 A 
ATOM      4  C   UNL     1       3.751  -0.250  -3.022  0.00  0.00    +0.028 A 
ATOM      5  C   UNL     1       4.178  -0.276  -4.330  0.00  0.00    +0.002 A 
ATOM      6  C   UNL     1       3.313  -0.641  -5.354  0.00  0.00    +0.001 A 
ATOM      7  C   UNL     1       2.008  -0.986  -5.079  0.00  0.00    +0.015 A 
ATOM      8  C   UNL     1       1.556  -0.967  -3.760  0.00  0.00    +0.065 A 
ATOM      9  C   UNL     1       0.175  -1.326  -3.407  0.00  0.00    +0.266 A 
ATOM     10  O   UNL     1      -0.630  -1.656  -4.258  0.00  0.00    -0.267 OA
ATOM     11  N   UNL     1      -0.165  -1.282  -2.098  0.00  0.00    -0.263 N 
ENDROOT
BRANCH  11  12
ATOM     12  C   UNL     1      -1.467  -1.619  -1.706  0.00  0.00    +0.051 A 
ATOM     13  C   UNL     1      -2.439  -0.632  -1.600  0.00  0.00    +0.027 A 
ATOM     14  C   UNL     1      -3.722  -0.967  -1.214  0.00  0.00    +0.017 A 
ATOM     15  C   UNL     1      -4.039  -2.284  -0.933  0.00  0.00    +0.018 A 
ATOM     16  C   UNL     1      -3.073  -3.269  -1.039  0.00  0.00    +0.017 A 
ATOM     17  C   UNL     1      -1.790  -2.941  -1.430  0.00  0.00    +0.027 A 
ATOM     18 BR   UNL     1      -5.797  -2.740  -0.405  0.00  0.00    -0.050 Br
ENDBRANCH  11  12
BRANCH   1  20
ATOM     19  C   UNL     1       0.612   0.511   0.872  0.00  0.00    +0.036 C 
ATOM     20  C   UNL     1       0.311  -0.870   0.284  0.00  0.00    +0.141 C 
BRANCH  20  21
ATOM     21  N   UNL     1       1.039  -1.891   1.040  0.00  0.00    -0.278 N 
ATOM     22  C   UNL     1       0.364  -2.872   1.671  0.00  0.00    +0.303 C 
ATOM     23  O   UNL     1      -0.850  -2.908   1.614  0.00  0.00    -0.253 OA
ATOM     24  N   UNL     1       1.034  -3.812   2.367  0.00  0.00    -0.294 N 
ATOM     25  H   UNL     1       2.002  -3.783   2.413  0.00  0.00    +0.151 HD
BRANCH  24  26
ATOM     26  C   UNL     1       0.299  -4.878   3.053  0.00  0.00    +0.028 C 
ATOM     27  C   UNL     1      -0.509  -5.680   2.031  0.00  0.00    +0.031 C 
ATOM     28  C   UNL     1       1.289  -5.805   3.761  0.00  0.00    +0.031 C 
ATOM     29  C   UNL     1      -0.649  -4.262   4.084  0.00  0.00    +0.031 C 
ENDBRANCH  24  26
BRANCH  21  30
ATOM     30  C   UNL     1       2.502  -1.847   1.110  0.00  0.00    +0.091 C 
BRANCH  30  31
ATOM     31  C   UNL     1       2.930  -1.013   2.319  0.00  0.00    -0.060 C 
BRANCH  31  32
ATOM     32  N   UNL     1       4.397  -0.969   2.389  0.00  0.00    +0.377 N 
ATOM     33  C   UNL     1       4.921  -0.254   1.218  0.00  0.00    -0.097 C 
ATOM     34  C   UNL     1       4.808  -0.271   3.614  0.00  0.00    -0.097 C 
ATOM     35  H   UNL     1       4.761  -1.910   2.399  0.00  0.00    -0.083 HD
ENDBRANCH  31  32
ENDBRANCH  30  31
ENDBRANCH  21  30
ENDBRANCH  20  21
ENDBRANCH   1  20
TORSDOF 7
