REMARK  Name = ZINC67460863
REMARK  7 active torsions:
REMARK  status: ('A' for Active; 'I' for Inactive)
REMARK    1  A    between atoms: C_1  and  C_2
REMARK    2  A    between atoms: C_2  and  C_4
REMARK    3  A    between atoms: C_2  and  N_14
REMARK    4  A    between atoms: N_17  and  C_18
REMARK    5  A    between atoms: C_18  and  C_19
REMARK    6  A    between atoms: N_24  and  C_25
REMARK    7  A    between atoms: C_25  and  C_26
REMARK                            x       y       z     vdW  Elec       q    Type
REMARK                         _______ _______ _______ _____ _____    ______ ____
ROOT
ATOM      1  N   UNL     1       1.083  -0.712   0.883  0.00  0.00    -0.293 N 
ATOM      2  C   UNL     1       0.335  -0.766   2.003  0.00  0.00    +0.300 C 
ATOM      3  O   UNL     1      -0.843  -0.465   1.962  0.00  0.00    -0.253 OA
ATOM      4  N   UNL     1       0.891  -1.154   3.167  0.00  0.00    -0.301 N 
ATOM      5  H   UNL     1       2.022  -0.952   0.916  0.00  0.00    +0.151 HD
ATOM      6  H   UNL     1       1.831  -1.394   3.200  0.00  0.00    +0.150 HD
ENDROOT
BRANCH   1   8
ATOM      7  C   UNL     1       0.496   1.237  -0.473  0.00  0.00    +0.033 C 
ATOM      8  C   UNL     1       0.478  -0.290  -0.383  0.00  0.00    +0.102 C 
BRANCH   8   9
ATOM      9  C   UNL     1       1.262  -0.870  -1.532  0.00  0.00    -0.027 A 
ATOM     10  C   UNL     1       2.643  -0.924  -1.473  0.00  0.00    +0.007 A 
ATOM     11  C   UNL     1       3.366  -1.454  -2.521  0.00  0.00    +0.024 A 
ATOM     12  C   UNL     1       2.708  -1.940  -3.649  0.00  0.00    +0.037 A 
ATOM     13  C   UNL     1       1.321  -1.881  -3.696  0.00  0.00    -0.017 A 
ATOM     14  C   UNL     1       0.601  -1.356  -2.647  0.00  0.00    +0.011 A 
ATOM     15  C   UNL     1       0.915  -2.476  -5.025  0.00  0.00    +0.133 C 
ATOM     16  C   UNL     1       2.229  -2.855  -5.675  0.00  0.00    +0.222 C 
ATOM     17  O   UNL     1       2.372  -3.370  -6.764  0.00  0.00    -0.275 OA
ATOM     18  N   UNL     1       3.207  -2.514  -4.819  0.00  0.00    -0.285 N 
ATOM     19  H   UNL     1       4.151  -2.650  -4.995  0.00  0.00    +0.155 HD
ENDBRANCH   8   9
ENDBRANCH   1   8
BRANCH   4  20
ATOM     20  C   UNL     1       0.078  -1.212   4.384  0.00  0.00    +0.090 C 
BRANCH  20  21
ATOM     21  C   UNL     1       0.945  -1.679   5.555  0.00  0.00    -0.051 C 
ATOM     22  C   UNL     1       0.065  -1.907   6.802  0.00  0.00    -0.016 C 
ATOM     23  C   UNL     1      -0.196  -3.436   6.772  0.00  0.00    -0.020 C 
ATOM     24  C   UNL     1       1.151  -3.972   6.225  0.00  0.00    -0.078 C 
ATOM     25  N   UNL     1       1.583  -2.967   5.226  0.00  0.00    +0.383 N 
ATOM     26  H   UNL     1       1.298  -3.260   4.303  0.00  0.00    -0.081 HD
BRANCH  25  27
ATOM     27  C   UNL     1       3.044  -2.820   5.267  0.00  0.00    -0.075 C 
BRANCH  27  28
ATOM     28  C   UNL     1       3.700  -4.117   4.789  0.00  0.00    -0.028 C 
ATOM     29  C   UNL     1       5.217  -4.015   4.964  0.00  0.00    +0.002 C 
ATOM     30  C   UNL     1       5.874  -5.311   4.486  0.00  0.00    +0.000 C 
ATOM     31  C   UNL     1       5.544  -5.536   3.009  0.00  0.00    +0.000 C 
ATOM     32  C   UNL     1       4.027  -5.638   2.835  0.00  0.00    +0.000 C 
ATOM     33  C   UNL     1       3.371  -4.341   3.312  0.00  0.00    +0.002 C 
ENDBRANCH  27  28
ENDBRANCH  25  27
ENDBRANCH  20  21
ENDBRANCH   4  20
TORSDOF 6
