REMARK  Name = ZINC11376957
REMARK  7 active torsions:
REMARK  status: ('A' for Active; 'I' for Inactive)
REMARK    1  A    between atoms: C_1  and  C_2
REMARK    2  A    between atoms: C_2  and  C_24
REMARK    3  A    between atoms: N_5  and  C_9
REMARK    4  A    between atoms: C_9  and  C_10
REMARK    5  A    between atoms: C_10  and  C_11
REMARK    6  A    between atoms: N_16  and  C_17
REMARK    7  A    between atoms: C_17  and  C_18
REMARK                            x       y       z     vdW  Elec       q    Type
REMARK                         _______ _______ _______ _____ _____    ______ ____
ROOT
ATOM      1  C   UNL     1       3.424   6.123   2.839  0.00  0.00    +0.127 C 
ENDROOT
BRANCH   1   6
ATOM      2  C   UNL     1       2.882   4.247  -1.437  0.00  0.00    +0.047 C 
ATOM      3  C   UNL     1       2.452   3.936  -0.002  0.00  0.00    +0.135 C 
ATOM      4  C   UNL     1       2.319   5.211   0.807  0.00  0.00    +0.251 C 
ATOM      5  O   UNL     1       1.565   6.137   0.596  0.00  0.00    -0.272 OA
ATOM      6  N   UNL     1       3.215   5.103   1.808  0.00  0.00    -0.224 N 
ATOM      7  C   UNL     1       3.888   3.948   1.745  0.00  0.00    +0.310 C 
ATOM      8  O   UNL     1       4.748   3.624   2.540  0.00  0.00    -0.252 OA
ATOM      9  N   UNL     1       3.506   3.187   0.704  0.00  0.00    -0.281 N 
ATOM     10  H   UNL     1       3.855   2.314   0.466  0.00  0.00    +0.152 HD
BRANCH   3  11
ATOM     11  C   UNL     1       1.157   3.166   0.007  0.00  0.00    -0.014 A 
ATOM     12  C   UNL     1       1.175   1.783   0.000  0.00  0.00    +0.006 A 
ATOM     13  C   UNL     1      -0.013   1.076   0.008  0.00  0.00    +0.001 A 
ATOM     14  C   UNL     1      -1.219   1.751   0.017  0.00  0.00    +0.015 A 
ATOM     15  C   UNL     1      -1.238   3.133   0.029  0.00  0.00    +0.018 A 
ATOM     16  C   UNL     1      -0.049   3.841   0.021  0.00  0.00    +0.021 A 
ATOM     17 BR   UNL     1      -2.888   4.057   0.049  0.00  0.00    -0.050 Br
ENDBRANCH   3  11
ENDBRANCH   1   6
BRANCH   1  18
ATOM     18  C   UNL     1       4.499   7.107   2.371  0.00  0.00    +0.115 C 
BRANCH  18  19
ATOM     19  C   UNL     1       4.715   8.156   3.431  0.00  0.00    +0.222 C 
ATOM     20  O   UNL     1       4.073   8.120   4.459  0.00  0.00    -0.275 OA
ATOM     21  N   UNL     1       5.621   9.134   3.236  0.00  0.00    -0.240 N 
ATOM     22  C   UNL     1       5.814  10.073   4.184  0.00  0.00    +0.306 C 
ATOM     23  O   UNL     1       5.171  10.037   5.215  0.00  0.00    -0.252 OA
ATOM     24  N   UNL     1       6.721  11.051   3.989  0.00  0.00    -0.295 N 
ATOM     25  H   UNL     1       6.135   9.163   2.413  0.00  0.00    +0.159 HD
ATOM     26  H   UNL     1       7.234  11.079   3.167  0.00  0.00    +0.151 HD
BRANCH  24  27
ATOM     27  C   UNL     1       6.931  12.071   5.020  0.00  0.00    +0.141 C 
BRANCH  27  28
ATOM     28  C   UNL     1       7.989  13.040   4.559  0.00  0.00    -0.030 A 
ATOM     29  C   UNL     1       9.318  12.805   4.856  0.00  0.00    +0.005 A 
ATOM     30  C   UNL     1      10.289  13.691   4.429  0.00  0.00    +0.000 A 
ATOM     31  C   UNL     1       9.929  14.818   3.714  0.00  0.00    +0.000 A 
ATOM     32  C   UNL     1       8.599  15.056   3.422  0.00  0.00    +0.000 A 
ATOM     33  C   UNL     1       7.629  14.167   3.844  0.00  0.00    +0.005 A 
ENDBRANCH  27  28
ENDBRANCH  24  27
ENDBRANCH  18  19
ENDBRANCH   1  18
TORSDOF 6
