REMARK  Name = ZINC40914669
REMARK  10 active torsions:
REMARK  status: ('A' for Active; 'I' for Inactive)
REMARK    1  A    between atoms: C_1  and  C_2
REMARK    2  A    between atoms: C_2  and  O_3
REMARK    3  A    between atoms: O_3  and  C_4
REMARK    4  A    between atoms: C_6  and  C_19
REMARK    5  A    between atoms: C_9  and  O_10
REMARK    6  A    between atoms: O_10  and  C_11
REMARK    7  A    between atoms: C_11  and  C_12
REMARK    8  A    between atoms: C_15  and  C_18
REMARK    9  A    between atoms: C_21  and  C_30
REMARK   10  A    between atoms: C_22  and  C_29
REMARK                            x       y       z     vdW  Elec       q    Type
REMARK                         _______ _______ _______ _____ _____    ______ ____
ROOT
ATOM      1  C   UNL     1      -1.270  -1.762  -0.098  0.00  0.00    +0.162 A 
ATOM      2  C   UNL     1      -0.210  -2.647   0.018  0.00  0.00    +0.055 A 
ATOM      3  C   UNL     1      -0.436  -4.009  -0.056  0.00  0.00    -0.015 A 
ATOM      4  C   UNL     1      -1.717  -4.491  -0.246  0.00  0.00    +0.010 A 
ATOM      5  C   UNL     1      -2.779  -3.614  -0.364  0.00  0.00    +0.050 A 
ATOM      6  C   UNL     1      -2.561  -2.248  -0.284  0.00  0.00    +0.162 A 
ENDROOT
BRANCH   3   7
ATOM      7  C   UNL     1       0.718  -4.970   0.070  0.00  0.00    +0.177 C 
ATOM      8  C   UNL     1       0.822  -5.797  -1.183  0.00  0.00    +0.060 C 
ATOM      9  C   UNL     1       0.488  -7.095  -1.233  0.00  0.00    +0.018 C 
ATOM     10  N   UNL     1       0.032  -7.777  -0.131  0.00  0.00    -0.287 N 
ATOM     11  C   UNL     1       0.172  -7.160   1.105  0.00  0.00    +0.218 A 
ATOM     12  N   UNL     1       0.497  -5.848   1.216  0.00  0.00    -0.221 N 
ATOM     13  N   UNL     1       0.560  -5.569   2.581  0.00  0.00    -0.156 NA
ATOM     14  C   UNL     1       0.275  -6.684   3.207  0.00  0.00    +0.247 A 
ATOM     15  N   UNL     1       0.039  -7.645   2.308  0.00  0.00    -0.201 NA
ATOM     16  C   UNL     1       0.617  -7.830  -2.542  0.00  0.00    +0.061 C 
ATOM     17  H   UNL     1      -0.372  -8.655  -0.213  0.00  0.00    +0.155 HD
BRANCH   8  18
ATOM     18  C   UNL     1       1.294  -5.176  -2.364  0.00  0.00    +0.241 C 
ATOM     19  O   UNL     1       2.490  -5.028  -2.537  0.00  0.00    -0.271 OA
ATOM     20  N   UNL     1       0.419  -4.750  -3.296  0.00  0.00    -0.325 N 
ATOM     21  H   UNL     1      -0.533  -4.868  -3.158  0.00  0.00    +0.145 HD
ATOM     22  H   UNL     1       0.743  -4.324  -4.106  0.00  0.00    +0.145 HD
ENDBRANCH   8  18
ENDBRANCH   3   7
BRANCH   1  23
ATOM     23  O   UNL     1      -1.050  -0.422  -0.025  0.00  0.00    -0.489 OA
BRANCH  23  25
ATOM     24  C   UNL     1       0.349   1.533   0.223  0.00  0.00    +0.048 C 
ATOM     25  C   UNL     1       0.300   0.005   0.167  0.00  0.00    +0.226 C 
ENDBRANCH  23  25
ENDBRANCH   1  23
BRANCH   6  26
ATOM     26  O   UNL     1      -3.605  -1.383  -0.393  0.00  0.00    -0.484 OA
BRANCH  26  27
ATOM     27  C   UNL     1      -4.902  -1.953  -0.583  0.00  0.00    +0.264 C 
BRANCH  27  28
ATOM     28  C   UNL     1      -5.925  -0.851  -0.681  0.00  0.00    -0.010 A 
ATOM     29  C   UNL     1      -6.547  -0.381   0.461  0.00  0.00    +0.007 A 
ATOM     30  C   UNL     1      -7.486   0.630   0.370  0.00  0.00    +0.004 A 
ATOM     31  C   UNL     1      -7.803   1.170  -0.862  0.00  0.00    -0.050 A 
ATOM     32  C   UNL     1      -7.181   0.701  -2.003  0.00  0.00    +0.004 A 
ATOM     33  C   UNL     1      -6.239  -0.307  -1.913  0.00  0.00    +0.007 A 
ATOM     34  C   UNL     1      -8.827   2.272  -0.960  0.00  0.00    +0.044 C 
ENDBRANCH  27  28
ENDBRANCH  26  27
ENDBRANCH   6  26
TORSDOF 7
