REMARK  Name = ZINC37476090
REMARK  5 active torsions:
REMARK  status: ('A' for Active; 'I' for Inactive)
REMARK    1  A    between atoms: C_1  and  C_2
REMARK    2  A    between atoms: C_2  and  C_4
REMARK    3  A    between atoms: C_2  and  N_17
REMARK    4  A    between atoms: C_4  and  C_5
REMARK    5  A    between atoms: N_7  and  C_8
REMARK                            x       y       z     vdW  Elec       q    Type
REMARK                         _______ _______ _______ _____ _____    ______ ____
ROOT
ATOM      1  C   UNL     1       0.337  -2.032   2.416  0.00  0.00    +0.216 C 
ATOM      2  O   UNL     1      -0.695  -2.656   2.544  0.00  0.00    -0.276 OA
ATOM      3  N   UNL     1       1.491  -2.681   2.163  0.00  0.00    -0.284 N 
ATOM      4  H   UNL     1       2.302  -2.178   1.989  0.00  0.00    +0.155 HD
ENDROOT
BRANCH   3   5
ATOM      5  C   UNL     1       1.518  -4.081   2.151  0.00  0.00    +0.062 A 
ATOM      6  C   UNL     1       1.301  -4.771   0.966  0.00  0.00    +0.041 A 
ATOM      7  C   UNL     1       1.329  -6.153   0.957  0.00  0.00    +0.032 A 
ATOM      8  C   UNL     1       1.573  -6.849   2.128  0.00  0.00    +0.020 A 
ATOM      9  C   UNL     1       1.790  -6.164   3.310  0.00  0.00    +0.032 A 
ATOM     10  C   UNL     1       1.769  -4.782   3.324  0.00  0.00    +0.041 A 
ATOM     11 BR   UNL     1       2.074  -3.847   4.939  0.00  0.00    -0.048 Br
ATOM     12 BR   UNL     1       1.611  -8.739   2.112  0.00  0.00    -0.050 Br
ATOM     13 BR   UNL     1       0.965  -3.822  -0.635  0.00  0.00    -0.048 Br
ENDBRANCH   3   5
BRANCH   1  14
ATOM     14  C   UNL     1       0.330  -0.530   2.541  0.00  0.00    +0.080 C 
BRANCH  14  16
ATOM     15  C   UNL     1      -1.125   1.480   2.830  0.00  0.00    -0.014 C 
ATOM     16  C   UNL     1      -1.094  -0.049   2.827  0.00  0.00    -0.070 C 
BRANCH  16  17
ATOM     17  N   UNL     1      -1.526  -0.550   4.139  0.00  0.00    +0.380 N 
ATOM     18  H   UNL     1      -2.465  -0.233   4.328  0.00  0.00    -0.090 HD
ATOM     19  H   UNL     1      -1.505  -1.559   4.137  0.00  0.00    -0.090 HD
ATOM     20  H   UNL     1      -0.903  -0.203   4.853  0.00  0.00    -0.090 HD
ENDBRANCH  16  17
ENDBRANCH  14  16
ENDBRANCH   1  14
TORSDOF 4
