REMARK  Name = ZINC59202591
REMARK  6 active torsions:
REMARK  status: ('A' for Active; 'I' for Inactive)
REMARK    1  A    between atoms: C_3  and  O_21
REMARK    2  A    between atoms: C_4  and  N_11
REMARK    3  A    between atoms: C_6  and  C_7
REMARK    4  A    between atoms: C_12  and  C_13
REMARK    5  A    between atoms: C_18  and  O_19
REMARK    6  A    between atoms: O_21  and  C_22
REMARK                            x       y       z     vdW  Elec       q    Type
REMARK                         _______ _______ _______ _____ _____    ______ ____
ROOT
ATOM      1  C   UNL     1       0.041   1.222  -0.782  0.00  0.00    +0.016 A 
ATOM      2  C   UNL     1       1.194   1.978  -0.677  0.00  0.00    +0.048 A 
ATOM      3  C   UNL     1       2.384   1.381  -0.299  0.00  0.00    +0.146 A 
ATOM      4  C   UNL     1       2.416   0.007  -0.025  0.00  0.00    +0.106 A 
ATOM      5  C   UNL     1       1.246  -0.746  -0.134  0.00  0.00    +0.043 A 
ATOM      6  C   UNL     1       0.067  -0.135  -0.511  0.00  0.00    +0.057 A 
ENDROOT
BRANCH   6   7
ATOM      7  C   UNL     1      -1.196  -0.949  -0.629  0.00  0.00    +0.417 C 
ATOM      8  F   UNL     1      -2.251  -0.118  -1.021  0.00  0.00    -0.166 F 
ATOM      9  F   UNL     1      -1.015  -1.956  -1.583  0.00  0.00    -0.166 F 
ATOM     10  F   UNL     1      -1.494  -1.528   0.609  0.00  0.00    -0.166 F 
ENDBRANCH   6   7
BRANCH   4  11
ATOM     11  N   UNL     1       3.587  -0.593   0.349  0.00  0.00    -0.251 NA
ATOM     12  C   UNL     1       3.975  -1.689  -0.241  0.00  0.00    +0.123 C 
BRANCH  12  13
ATOM     13  C   UNL     1       5.172  -2.397   0.236  0.00  0.00    +0.036 A 
ATOM     14  C   UNL     1       5.595  -3.570  -0.397  0.00  0.00    +0.028 A 
ATOM     15  C   UNL     1       6.719  -4.229   0.056  0.00  0.00    +0.019 A 
ATOM     16  C   UNL     1       7.431  -3.733   1.137  0.00  0.00    +0.019 A 
ATOM     17  C   UNL     1       7.024  -2.576   1.772  0.00  0.00    +0.047 A 
ATOM     18  C   UNL     1       5.900  -1.897   1.327  0.00  0.00    +0.125 A 
ATOM     19 BR   UNL     1       7.290  -5.815  -0.800  0.00  0.00    -0.050 Br
BRANCH  18  20
ATOM     20  O   UNL     1       5.502  -0.757   1.946  0.00  0.00    -0.506 OA
ATOM     21  H   UNL     1       4.886  -0.901   2.678  0.00  0.00    +0.292 HD
ENDBRANCH  18  20
ENDBRANCH  12  13
ENDBRANCH   4  11
BRANCH   3  22
ATOM     22  O   UNL     1       3.517   2.123  -0.196  0.00  0.00    -0.487 OA
BRANCH  22  23
ATOM     23  C   UNL     1       3.386   3.535  -0.373  0.00  0.00    +0.174 C 
ATOM     24  C   UNL     1       3.450   3.871  -1.864  0.00  0.00    +0.044 C 
ATOM     25  C   UNL     1       3.309   5.383  -2.053  0.00  0.00    +0.004 C 
ATOM     26  C   UNL     1       4.447   6.096  -1.321  0.00  0.00    +0.000 C 
ATOM     27  C   UNL     1       4.384   5.760   0.171  0.00  0.00    +0.004 C 
ATOM     28  C   UNL     1       4.524   4.248   0.360  0.00  0.00    +0.044 C 
ENDBRANCH  22  23
ENDBRANCH   3  22
TORSDOF 6
