REMARK  Name = ZINC39674259
REMARK  9 active torsions:
REMARK  status: ('A' for Active; 'I' for Inactive)
REMARK    1  A    between atoms: C_1  and  C_2
REMARK    2  A    between atoms: C_4  and  C_9
REMARK    3  A    between atoms: C_5  and  C_8
REMARK    4  A    between atoms: C_9  and  C_11
REMARK    5  A    between atoms: C_9  and  N_12
REMARK    6  A    between atoms: C_13  and  C_15
REMARK    7  A    between atoms: C_26  and  C_28
REMARK    8  A    between atoms: C_31  and  O_34
REMARK    9  A    between atoms: O_34  and  C_35
REMARK                            x       y       z     vdW  Elec       q    Type
REMARK                         _______ _______ _______ _____ _____    ______ ____
ROOT
ATOM      1  C   UNL     1      -0.247   2.640  -4.308  0.00  0.00    +0.100 C 
ATOM      2  C   UNL     1      -1.457   3.469  -3.823  0.00  0.00    +0.121 C 
ATOM      3  N   UNL     1      -1.750   4.395  -4.943  0.00  0.00    -0.296 N 
ATOM      4  C   UNL     1      -1.546   3.576  -6.162  0.00  0.00    +0.115 C 
ATOM      5  C   UNL     1      -0.309   2.712  -5.843  0.00  0.00    -0.004 C 
ATOM      6  C   UNL     1       0.952   3.373  -6.392  0.00  0.00    -0.010 C 
ATOM      7  C   UNL     1       0.893   3.382  -7.922  0.00  0.00    -0.082 C 
ATOM      8  N   UNL     1       0.783   2.004  -8.417  0.00  0.00    +0.379 N 
ATOM      9  C   UNL     1      -0.477   1.407  -7.960  0.00  0.00    -0.082 C 
ATOM     10  C   UNL     1      -0.476   1.315  -6.432  0.00  0.00    -0.010 C 
ATOM     11  C   UNL     1      -2.119   5.689  -4.870  0.00  0.00    +0.247 C 
ATOM     12  O   UNL     1      -2.140   6.255  -3.794  0.00  0.00    -0.270 OA
ATOM     13  H   UNL     1       0.806   2.008  -9.426  0.00  0.00    -0.086 HD
ATOM     14  H   UNL     1       1.558   1.460  -8.068  0.00  0.00    -0.086 HD
ENDROOT
BRANCH  11  15
ATOM     15  C   UNL     1      -2.498   6.419  -6.096  0.00  0.00    +0.037 A 
ATOM     16  C   UNL     1      -2.887   5.715  -7.238  0.00  0.00    +0.016 A 
ATOM     17  C   UNL     1      -3.240   6.399  -8.380  0.00  0.00    +0.047 A 
ATOM     18  C   UNL     1      -3.209   7.788  -8.397  0.00  0.00    +0.130 A 
ATOM     19  C   UNL     1      -2.823   8.493  -7.262  0.00  0.00    +0.047 A 
ATOM     20  C   UNL     1      -2.474   7.816  -6.115  0.00  0.00    +0.016 A 
BRANCH  18  21
ATOM     21  O   UNL     1      -3.557   8.459  -9.524  0.00  0.00    -0.406 OA
BRANCH  21  22
ATOM     22  C   UNL     1      -3.503   9.886  -9.472  0.00  0.00    +0.575 C 
ATOM     23  F   UNL     1      -2.197  10.293  -9.181  0.00  0.00    -0.133 F 
ATOM     24  F   UNL     1      -3.891  10.413 -10.709  0.00  0.00    -0.133 F 
ATOM     25  F   UNL     1      -4.370  10.350  -8.476  0.00  0.00    -0.133 F 
ENDBRANCH  21  22
ENDBRANCH  18  21
ENDBRANCH  11  15
BRANCH   1  27
ATOM     26  N   UNL     1       0.732   0.445  -3.724  0.00  0.00    -0.309 N 
ATOM     27  C   UNL     1      -0.370   1.212  -3.844  0.00  0.00    +0.219 C 
ATOM     28  O   UNL     1      -1.460   0.752  -3.580  0.00  0.00    -0.275 OA
ATOM     29  H   UNL     1       1.605   0.813  -3.935  0.00  0.00    +0.149 HD
BRANCH  26  30
ATOM     30  C   UNL     1       0.613  -0.943  -3.273  0.00  0.00    +0.100 C 
ATOM     31  C   UNL     1       0.473  -0.975  -1.750  0.00  0.00    +0.033 C 
BRANCH  30  34
ATOM     32  C   UNL     1       3.714  -0.051  -3.874  0.00  0.00    +0.039 C 
ATOM     33  C   UNL     1       3.291  -1.415  -3.326  0.00  0.00    +0.154 C 
ATOM     34  C   UNL     1       1.844  -1.711  -3.680  0.00  0.00    -0.001 C 
ATOM     35  C   UNL     1       1.916  -2.810  -4.435  0.00  0.00    +0.063 C 
ATOM     36  N   UNL     1       3.199  -3.209  -4.580  0.00  0.00    -0.159 NA
ATOM     37  N   UNL     1       4.029  -2.498  -3.999  0.00  0.00    -0.180 NA
ATOM     38  C   UNL     1       0.728  -3.510  -5.042  0.00  0.00    +0.067 C 
ENDBRANCH  30  34
ENDBRANCH  26  30
ENDBRANCH   1  27
TORSDOF 6
