REMARK  Name = ZINC35537354
REMARK  7 active torsions:
REMARK  status: ('A' for Active; 'I' for Inactive)
REMARK    1  A    between atoms: C_1  and  C_2
REMARK    2  A    between atoms: N_8  and  C_9
REMARK    3  A    between atoms: C_9  and  C_10
REMARK    4  A    between atoms: C_10  and  N_11
REMARK    5  A    between atoms: C_12  and  C_14
REMARK    6  A    between atoms: C_14  and  N_15
REMARK    7  A    between atoms: N_24  and  C_25
REMARK                            x       y       z     vdW  Elec       q    Type
REMARK                         _______ _______ _______ _____ _____    ______ ____
ROOT
ATOM      1  N   UNL     1       0.908   0.123   8.458  0.00  0.00    -0.290 N 
ATOM      2  C   UNL     1       0.562  -1.132   9.110  0.00  0.00    +0.127 C 
ATOM      3  C   UNL     1       1.735  -1.652   9.943  0.00  0.00    +0.129 C 
ATOM      4  N   UNL     1       2.264  -0.533  10.741  0.00  0.00    -0.275 N 
ATOM      5  C   UNL     1       2.800   0.623  10.007  0.00  0.00    +0.205 C 
ATOM      6  C   UNL     1       1.879   0.943   8.861  0.00  0.00    +0.233 C 
ATOM      7  O   UNL     1       2.024   1.998   8.281  0.00  0.00    -0.274 OA
ATOM      8  C   UNL     1       2.258  -0.568  12.088  0.00  0.00    +0.307 C 
ATOM      9  O   UNL     1       1.809  -1.537  12.669  0.00  0.00    -0.252 OA
ATOM     10  N   UNL     1       2.749   0.472  12.791  0.00  0.00    -0.269 N 
ATOM     11  H   UNL     1       3.169   1.214  12.329  0.00  0.00    +0.156 HD
ENDROOT
BRANCH  10  12
ATOM     12  C   UNL     1       2.654   0.480  14.187  0.00  0.00    +0.035 A 
ATOM     13  C   UNL     1       2.442   1.675  14.863  0.00  0.00    +0.024 A 
ATOM     14  C   UNL     1       2.348   1.680  16.241  0.00  0.00    +0.017 A 
ATOM     15  C   UNL     1       2.465   0.496  16.948  0.00  0.00    +0.018 A 
ATOM     16  C   UNL     1       2.677  -0.695  16.277  0.00  0.00    +0.017 A 
ATOM     17  C   UNL     1       2.765  -0.707  14.899  0.00  0.00    +0.024 A 
ATOM     18 BR   UNL     1       2.337   0.507  18.835  0.00  0.00    -0.050 Br
ENDBRANCH  10  12
BRANCH   1  19
ATOM     19  C   UNL     1       0.138   0.510   7.273  0.00  0.00    +0.203 C 
BRANCH  19  21
ATOM     20  N   UNL     1       0.265   0.182   4.824  0.00  0.00    -0.316 N 
ATOM     21  C   UNL     1       0.801  -0.048   6.040  0.00  0.00    +0.230 C 
ATOM     22  O   UNL     1       1.815  -0.704   6.141  0.00  0.00    -0.274 OA
ATOM     23  H   UNL     1      -0.546   0.707   4.744  0.00  0.00    +0.149 HD
BRANCH  20  24
ATOM     24  C   UNL     1       0.909  -0.361   3.626  0.00  0.00    +0.086 C 
BRANCH  24  25
ATOM     25  C   UNL     1       0.106   0.043   2.388  0.00  0.00    -0.059 C 
BRANCH  25  32
ATOM     26  C   UNL     1       0.035   1.516  -0.002  0.00  0.00    -0.013 C 
ATOM     27  C   UNL     1       0.050  -0.014  -0.008  0.00  0.00    -0.072 C 
ATOM     28  C   UNL     1       0.767  -0.512  -1.264  0.00  0.00    -0.016 C 
ATOM     29  C   UNL     1       0.779  -2.044  -1.265  0.00  0.00    -0.003 C 
ATOM     30  C   UNL     1       1.447  -2.541   0.020  0.00  0.00    -0.019 C 
ATOM     31  C   UNL     1       0.704  -1.968   1.229  0.00  0.00    -0.078 C 
ATOM     32  N   UNL     1       0.752  -0.501   1.186  0.00  0.00    +0.382 N 
ATOM     33  H   UNL     1       1.713  -0.197   1.157  0.00  0.00    -0.081 HD
ENDBRANCH  25  32
ENDBRANCH  24  25
ENDBRANCH  20  24
ENDBRANCH  19  21
ENDBRANCH   1  19
TORSDOF 6
