REMARK  Name = ZINC64169701
REMARK  6 active torsions:
REMARK  status: ('A' for Active; 'I' for Inactive)
REMARK    1  A    between atoms: C_7  and  C_10
REMARK    2  A    between atoms: C_10  and  C_11
REMARK    3  A    between atoms: C_11  and  C_13
REMARK    4  A    between atoms: C_11  and  N_30
REMARK    5  A    between atoms: N_15  and  N_16
REMARK    6  A    between atoms: C_17  and  C_19
REMARK                            x       y       z     vdW  Elec       q    Type
REMARK                         _______ _______ _______ _____ _____    ______ ____
ROOT
ATOM      1  C   UNL     1       0.457  -3.653  -1.462  0.00  0.00    +0.166 C 
ENDROOT
BRANCH   1   2
ATOM      2  N   UNL     1      -0.238  -2.603  -2.210  0.00  0.00    -0.288 N 
ATOM      3  C   UNL     1      -1.451  -2.176  -1.805  0.00  0.00    +0.298 C 
ATOM      4  O   UNL     1      -1.968  -2.664  -0.819  0.00  0.00    -0.253 OA
ATOM      5  N   UNL     1      -2.090  -1.210  -2.494  0.00  0.00    -0.313 N 
ATOM      6  H   UNL     1       0.175  -2.214  -2.997  0.00  0.00    +0.151 HD
ATOM      7  H   UNL     1      -1.677  -0.821  -3.281  0.00  0.00    +0.146 HD
ATOM      8  H   UNL     1      -2.963  -0.903  -2.202  0.00  0.00    +0.146 HD
ENDBRANCH   1   2
BRANCH   1   9
ATOM      9  C   UNL     1      -0.385  -4.904  -1.452  0.00  0.00    +0.250 C 
ATOM     10  O   UNL     1      -1.574  -4.836  -1.679  0.00  0.00    -0.272 OA
ATOM     11  N   UNL     1       0.185  -6.097  -1.193  0.00  0.00    -0.233 N 
ATOM     12  H   UNL     1       1.136  -6.151  -1.011  0.00  0.00    +0.173 HD
BRANCH  11  13
ATOM     13  N   UNL     1      -0.597  -7.260  -1.184  0.00  0.00    -0.231 N 
ATOM     14  C   UNL     1      -0.028  -8.453  -0.924  0.00  0.00    +0.273 C 
ATOM     15  O   UNL     1       1.162  -8.521  -0.698  0.00  0.00    -0.270 OA
ATOM     16  H   UNL     1      -1.549  -7.205  -1.365  0.00  0.00    +0.173 HD
BRANCH  14  17
ATOM     17  C   UNL     1      -0.869  -9.703  -0.915  0.00  0.00    +0.297 C 
ATOM     18  C   UNL     1      -1.407  -9.976  -2.326  0.00  0.00    +0.283 C 
ATOM     19  O   UNL     1      -2.188 -11.175  -2.285  0.00  0.00    -0.484 OA
ATOM     20  C   UNL     1      -1.645 -12.236  -1.627  0.00  0.00    +0.162 A 
ATOM     21  C   UNL     1      -2.155 -13.506  -1.847  0.00  0.00    +0.049 A 
ATOM     22  C   UNL     1      -1.617 -14.593  -1.184  0.00  0.00    +0.004 A 
ATOM     23  C   UNL     1      -0.569 -14.416  -0.300  0.00  0.00    +0.004 A 
ATOM     24  C   UNL     1      -0.055 -13.153  -0.077  0.00  0.00    +0.049 A 
ATOM     25  C   UNL     1      -0.590 -12.058  -0.740  0.00  0.00    +0.163 A 
ATOM     26  O   UNL     1      -0.068 -10.821  -0.516  0.00  0.00    -0.472 OA
ENDBRANCH  14  17
ENDBRANCH  11  13
ENDBRANCH   1   9
BRANCH   1  27
ATOM     27  C   UNL     1       0.691  -3.186  -0.024  0.00  0.00    +0.065 C 
BRANCH  27  34
ATOM     28  C   UNL     1      -0.016   1.348   0.009  0.00  0.00    +0.001 A 
ATOM     29  C   UNL     1       1.166   2.101   0.002  0.00  0.00    +0.002 A 
ATOM     30  C   UNL     1       2.391   1.535  -0.013  0.00  0.00    +0.026 A 
ATOM     31  C   UNL     1       2.529   0.120  -0.022  0.00  0.00    +0.043 A 
ATOM     32  N   UNL     1       3.587  -0.654  -0.037  0.00  0.00    -0.380 N 
ATOM     33  C   UNL     1       3.143  -2.053  -0.041  0.00  0.00    +0.144 C 
ATOM     34  C   UNL     1       1.631  -2.008  -0.025  0.00  0.00    -0.039 C 
ATOM     35  C   UNL     1       1.295  -0.698  -0.014  0.00  0.00    -0.001 A 
ATOM     36  C   UNL     1       0.002  -0.004   0.002  0.00  0.00    +0.010 A 
ATOM     37  H   UNL     1       4.509  -0.353  -0.045  0.00  0.00    +0.160 HD
ENDBRANCH  27  34
ENDBRANCH   1  27
TORSDOF 6
