REMARK  Name = ZINC36029784
REMARK  14 active torsions:
REMARK  status: ('A' for Active; 'I' for Inactive)
REMARK    1  A    between atoms: C_1  and  C_2
REMARK    2  A    between atoms: C_2  and  C_3
REMARK    3  A    between atoms: C_3  and  N_4
REMARK    4  A    between atoms: C_14  and  C_31
REMARK    5  A    between atoms: N_18  and  C_19
REMARK    6  A    between atoms: C_19  and  C_20
REMARK    7  A    between atoms: C_20  and  C_21
REMARK    8  A    between atoms: C_24  and  O_29
REMARK    9  A    between atoms: C_25  and  O_27
REMARK   10  A    between atoms: O_27  and  C_28
REMARK   11  A    between atoms: O_29  and  C_30
REMARK   12  A    between atoms: C_31  and  C_32
REMARK   13  A    between atoms: C_32  and  C_33
REMARK   14  A    between atoms: C_32  and  C_34
REMARK                            x       y       z     vdW  Elec       q    Type
REMARK                         _______ _______ _______ _____ _____    ______ ____
ROOT
ATOM      1  N   UNL     1       2.582  -2.262   4.485  0.00  0.00    -0.299 N 
ATOM      2  C   UNL     1       1.994  -2.613   3.324  0.00  0.00    +0.302 C 
ATOM      3  O   UNL     1       1.546  -1.756   2.587  0.00  0.00    -0.253 OA
ATOM      4  N   UNL     1       1.903  -3.913   2.981  0.00  0.00    -0.286 N 
ATOM      5  C   UNL     1       1.370  -4.305   1.669  0.00  0.00    +0.109 C 
ATOM      6  C   UNL     1       2.389  -5.214   0.974  0.00  0.00    +0.025 C 
ATOM      7  C   UNL     1       2.737  -6.382   1.895  0.00  0.00    +0.006 C 
ATOM      8  C   UNL     1       3.347  -5.868   3.198  0.00  0.00    +0.025 C 
ATOM      9  C   UNL     1       2.341  -4.965   3.909  0.00  0.00    +0.109 C 
ATOM     10  N   UNL     1       3.693  -7.284   1.218  0.00  0.00    +0.401 N 
ATOM     11  C   UNL     1       3.308  -8.623   1.723  0.00  0.00    +0.019 C 
ATOM     12  C   UNL     1       1.844  -8.493   2.086  0.00  0.00    +0.200 C 
ATOM     13  O   UNL     1       1.074  -9.412   2.267  0.00  0.00    -0.277 OA
ATOM     14  N   UNL     1       1.541  -7.181   2.175  0.00  0.00    -0.313 N 
ATOM     15  H   UNL     1       2.875  -2.947   5.107  0.00  0.00    +0.150 HD
ATOM     16  H   UNL     1       3.581  -7.235   0.216  0.00  0.00    -0.082 HD
ATOM     17  H   UNL     1       4.641  -7.062   1.483  0.00  0.00    -0.082 HD
ENDROOT
BRANCH   1  18
ATOM     18  C   UNL     1       2.779  -0.847   4.808  0.00  0.00    +0.105 C 
BRANCH  18  20
ATOM     19  C   UNL     1       3.668   0.753   6.510  0.00  0.00    +0.005 C 
ATOM     20  C   UNL     1       3.462  -0.725   6.172  0.00  0.00    +0.015 C 
ENDBRANCH  18  20
ENDBRANCH   1  18
BRANCH  14  21
ATOM     21  C   UNL     1       0.220  -6.639   2.502  0.00  0.00    +0.110 C 
BRANCH  21  22
ATOM     22  C   UNL     1      -0.600  -6.484   1.220  0.00  0.00    +0.054 C 
BRANCH  22  23
ATOM     23  C   UNL     1      -1.930  -5.854   1.546  0.00  0.00    -0.042 A 
ATOM     24  C   UNL     1      -3.010  -6.653   1.873  0.00  0.00    +0.007 A 
ATOM     25  C   UNL     1      -4.231  -6.080   2.173  0.00  0.00    +0.049 A 
ATOM     26  C   UNL     1      -4.375  -4.702   2.147  0.00  0.00    +0.161 A 
ATOM     27  C   UNL     1      -3.288  -3.898   1.820  0.00  0.00    +0.162 A 
ATOM     28  C   UNL     1      -2.065  -4.479   1.524  0.00  0.00    +0.053 A 
BRANCH  27  29
ATOM     29  O   UNL     1      -3.424  -2.545   1.794  0.00  0.00    -0.491 OA
ATOM     30  C   UNL     1      -2.266  -1.783   1.448  0.00  0.00    +0.277 C 
ENDBRANCH  27  29
BRANCH  26  31
ATOM     31  O   UNL     1      -5.577  -4.137   2.442  0.00  0.00    -0.491 OA
ATOM     32  C   UNL     1      -6.648  -5.024   2.769  0.00  0.00    +0.277 C 
ENDBRANCH  26  31
ENDBRANCH  22  23
ENDBRANCH  21  22
ENDBRANCH  14  21
BRANCH  11  33
ATOM     33  C   UNL     1       3.496  -9.679   0.632  0.00  0.00    -0.004 C 
BRANCH  33  34
ATOM     34  C   UNL     1       4.982  -9.794   0.285  0.00  0.00    -0.018 C 
ATOM     35  C   UNL     1       5.745 -10.351   1.489  0.00  0.00    +0.007 C 
ATOM     36  C   UNL     1       5.155 -10.736  -0.908  0.00  0.00    +0.007 C 
ENDBRANCH  33  34
ENDBRANCH  11  33
TORSDOF 9
