REMARK  Name = ZINC15329796
REMARK  9 active torsions:
REMARK  status: ('A' for Active; 'I' for Inactive)
REMARK    1  A    between atoms: C_1  and  C_2
REMARK    2  A    between atoms: C_2  and  C_23
REMARK    3  A    between atoms: N_5  and  C_9
REMARK    4  A    between atoms: C_9  and  C_10
REMARK    5  A    between atoms: N_12  and  C_13
REMARK    6  A    between atoms: C_15  and  O_21
REMARK    7  A    between atoms: C_17  and  O_19
REMARK    8  A    between atoms: O_19  and  C_20
REMARK    9  A    between atoms: O_21  and  C_22
REMARK                            x       y       z     vdW  Elec       q    Type
REMARK                         _______ _______ _______ _____ _____    ______ ____
ROOT
ATOM      1  C   UNL     1      -2.064   1.871   1.288  0.00  0.00    +0.047 C 
ATOM      2  C   UNL     1      -1.234   2.103   0.024  0.00  0.00    +0.135 C 
ATOM      3  C   UNL     1      -0.011   1.207   0.017  0.00  0.00    +0.251 C 
ATOM      4  O   UNL     1       0.009  -0.005   0.019  0.00  0.00    -0.272 OA
ATOM      5  N   UNL     1       1.050   2.039   0.003  0.00  0.00    -0.215 N 
ATOM      6  C   UNL     1       0.670   3.322   0.005  0.00  0.00    +0.310 C 
ATOM      7  O   UNL     1       1.448   4.256  -0.005  0.00  0.00    -0.252 OA
ATOM      8  N   UNL     1      -0.667   3.463   0.020  0.00  0.00    -0.281 N 
ATOM      9  H   UNL     1      -1.163   4.297   0.025  0.00  0.00    +0.152 HD
ENDROOT
BRANCH   2  10
ATOM     10  C   UNL     1      -2.068   1.870  -1.210  0.00  0.00    -0.014 A 
ATOM     11  C   UNL     1      -2.820   2.902  -1.740  0.00  0.00    +0.008 A 
ATOM     12  C   UNL     1      -3.585   2.690  -2.871  0.00  0.00    +0.022 A 
ATOM     13  C   UNL     1      -3.599   1.445  -3.473  0.00  0.00    +0.059 A 
ATOM     14  C   UNL     1      -2.847   0.411  -2.942  0.00  0.00    +0.060 A 
ATOM     15  C   UNL     1      -2.077   0.627  -1.813  0.00  0.00    +0.027 A 
ATOM     16 CL   UNL     1      -2.863  -1.152  -3.696  0.00  0.00    -0.082 Cl
ATOM     17 CL   UNL     1      -4.561   1.178  -4.894  0.00  0.00    -0.082 Cl
ENDBRANCH   2  10
BRANCH   5  18
ATOM     18  C   UNL     1       2.445   1.593  -0.013  0.00  0.00    +0.214 C 
BRANCH  18  19
ATOM     19  C   UNL     1       2.906   1.438  -1.439  0.00  0.00    +0.235 C 
ATOM     20  O   UNL     1       2.145   1.677  -2.352  0.00  0.00    -0.274 OA
ATOM     21  N   UNL     1       4.166   1.034  -1.699  0.00  0.00    -0.284 N 
ATOM     22  H   UNL     1       4.795   0.908  -0.972  0.00  0.00    +0.155 HD
BRANCH  21  23
ATOM     23  C   UNL     1       4.565   0.798  -3.019  0.00  0.00    +0.040 A 
ATOM     24  C   UNL     1       5.468  -0.220  -3.300  0.00  0.00    +0.069 A 
ATOM     25  C   UNL     1       5.860  -0.457  -4.608  0.00  0.00    +0.125 A 
ATOM     26  C   UNL     1       5.358   0.329  -5.636  0.00  0.00    +0.091 A 
ATOM     27  C   UNL     1       4.461   1.348  -5.356  0.00  0.00    +0.125 A 
ATOM     28  C   UNL     1       4.064   1.583  -4.048  0.00  0.00    +0.069 A 
BRANCH  27  29
ATOM     29  O   UNL     1       3.971   2.118  -6.363  0.00  0.00    -0.495 OA
ATOM     30  C   UNL     1       4.423   1.819  -7.686  0.00  0.00    +0.277 C 
ENDBRANCH  27  29
BRANCH  25  31
ATOM     31  O   UNL     1       6.739  -1.455  -4.883  0.00  0.00    -0.495 OA
ATOM     32  C   UNL     1       7.104  -1.640  -6.253  0.00  0.00    +0.277 C 
ENDBRANCH  25  31
ENDBRANCH  21  23
ENDBRANCH  18  19
ENDBRANCH   5  18
TORSDOF 6
