REMARK  Name = ZINC16613249
REMARK  11 active torsions:
REMARK  status: ('A' for Active; 'I' for Inactive)
REMARK    1  A    between atoms: C_1  and  C_2
REMARK    2  A    between atoms: C_2  and  C_3
REMARK    3  A    between atoms: C_2  and  C_4
REMARK    4  A    between atoms: C_2  and  C_5
REMARK    5  A    between atoms: C_8  and  S_11
REMARK    6  A    between atoms: S_11  and  N_14
REMARK    7  A    between atoms: N_22  and  C_31
REMARK    8  A    between atoms: N_24  and  C_25
REMARK    9  A    between atoms: C_31  and  C_32
REMARK   10  A    between atoms: N_34  and  C_35
REMARK   11  A    between atoms: C_35  and  C_36
REMARK                            x       y       z     vdW  Elec       q    Type
REMARK                         _______ _______ _______ _____ _____    ______ ____
ROOT
ATOM      1  N   UNL     1       0.723   7.630  -1.012  0.00  0.00    -0.176 NA
ATOM      2  C   UNL     1       1.999   7.296  -1.658  0.00  0.00    +0.112 C 
ATOM      3  C   UNL     1       2.216   5.781  -1.565  0.00  0.00    +0.052 C 
ATOM      4  C   UNL     1       2.101   5.340  -0.109  0.00  0.00    +0.115 C 
ATOM      5  C   UNL     1       0.720   5.674   0.447  0.00  0.00    +0.052 C 
ATOM      6  C   UNL     1       0.492   7.188   0.370  0.00  0.00    +0.112 C 
ATOM      7  C   UNL     1       3.176   5.993   0.725  0.00  0.00    +0.241 C 
ATOM      8  O   UNL     1       3.497   7.162   0.680  0.00  0.00    -0.273 OA
ATOM      9  N   UNL     1       3.718   5.055   1.530  0.00  0.00    -0.275 N 
ATOM     10  C   UNL     1       3.052   3.767   1.302  0.00  0.00    +0.217 C 
ATOM     11  N   UNL     1       2.353   3.888   0.001  0.00  0.00    -0.300 N 
ENDROOT
BRANCH  11  12
ATOM     12  C   UNL     1       1.155   3.171   0.008  0.00  0.00    +0.032 A 
ATOM     13  C   UNL     1       0.264   3.294  -1.050  0.00  0.00    +0.023 A 
ATOM     14  C   UNL     1      -0.920   2.583  -1.040  0.00  0.00    +0.002 A 
ATOM     15  C   UNL     1      -1.222   1.754   0.024  0.00  0.00    +0.000 A 
ATOM     16  C   UNL     1      -0.335   1.625   1.077  0.00  0.00    +0.002 A 
ATOM     17  C   UNL     1       0.851   2.333   1.074  0.00  0.00    +0.023 A 
ENDBRANCH  11  12
BRANCH   1  18
ATOM     18  S   UNL     1      -0.435   8.490  -1.827  0.00  0.00    +0.061 S 
ATOM     19  O   UNL     1      -1.243   9.118  -0.841  0.00  0.00    -0.153 OA
ATOM     20  O   UNL     1       0.242   9.224  -2.838  0.00  0.00    -0.153 OA
BRANCH  18  24
ATOM     21  C   UNL     1      -3.080   5.494  -3.952  0.00  0.00    -0.042 A 
ATOM     22  C   UNL     1      -3.389   5.900  -2.668  0.00  0.00    +0.006 A 
ATOM     23  C   UNL     1      -2.582   6.815  -2.019  0.00  0.00    +0.029 A 
ATOM     24  C   UNL     1      -1.464   7.323  -2.654  0.00  0.00    +0.105 A 
ATOM     25  C   UNL     1      -1.157   6.921  -3.941  0.00  0.00    +0.029 A 
ATOM     26  C   UNL     1      -1.963   6.003  -4.588  0.00  0.00    +0.006 A 
BRANCH  21  28
ATOM     27  C   UNL     1      -5.376   5.062  -4.782  0.00  0.00    +0.015 C 
ATOM     28  C   UNL     1      -3.960   4.496  -4.660  0.00  0.00    -0.013 C 
ATOM     29  C   UNL     1      -3.399   4.221  -6.056  0.00  0.00    +0.015 C 
ATOM     30  C   UNL     1      -3.999   3.193  -3.860  0.00  0.00    +0.015 C 
ENDBRANCH  21  28
ENDBRANCH  18  24
ENDBRANCH   1  18
BRANCH   9  31
ATOM     31  C   UNL     1       4.806   5.287   2.484  0.00  0.00    +0.205 C 
BRANCH  31  32
ATOM     32  C   UNL     1       4.227   5.681   3.818  0.00  0.00    +0.231 C 
ATOM     33  O   UNL     1       3.025   5.761   3.959  0.00  0.00    -0.274 OA
ATOM     34  N   UNL     1       5.046   5.945   4.856  0.00  0.00    -0.310 N 
ATOM     35  H   UNL     1       6.008   5.882   4.743  0.00  0.00    +0.149 HD
BRANCH  34  36
ATOM     36  C   UNL     1       4.484   6.329   6.153  0.00  0.00    +0.131 C 
BRANCH  36  37
ATOM     37  C   UNL     1       5.603   6.567   7.135  0.00  0.00    -0.016 C 
ATOM     38  C   UNL     1       5.683   7.709   7.771  0.00  0.00    +0.005 C 
ENDBRANCH  36  37
ENDBRANCH  34  36
ENDBRANCH  31  32
ENDBRANCH   9  31
TORSDOF 8
