REMARK  Name = ZINC09789644
REMARK  10 active torsions:
REMARK  status: ('A' for Active; 'I' for Inactive)
REMARK    1  A    between atoms: C_1  and  C_2
REMARK    2  A    between atoms: C_2  and  C_3
REMARK    3  A    between atoms: C_3  and  C_4
REMARK    4  A    between atoms: C_4  and  N_5
REMARK    5  A    between atoms: C_6  and  N_36
REMARK    6  A    between atoms: C_7  and  N_14
REMARK    7  A    between atoms: N_14  and  C_15
REMARK    8  A    between atoms: C_15  and  C_16
REMARK    9  A    between atoms: C_22  and  C_24
REMARK   10  A    between atoms: C_24  and  N_25
REMARK                            x       y       z     vdW  Elec       q    Type
REMARK                         _______ _______ _______ _____ _____    ______ ____
ROOT
ATOM      1  N   UNL     1       0.141  -0.064  -0.102  0.00  0.00    -0.259 N 
ATOM      2  C   UNL     1      -0.186   1.179   0.307  0.00  0.00    +0.238 C 
ATOM      3  O   UNL     1      -1.350   1.475   0.480  0.00  0.00    -0.273 OA
ENDROOT
BRANCH   1   6
ATOM      4  N   UNL     1      -1.847  -3.098   0.486  0.00  0.00    -0.280 N 
ATOM      5  C   UNL     1      -0.860  -2.149   0.622  0.00  0.00    +0.127 A 
ATOM      6  C   UNL     1      -0.857  -1.054  -0.217  0.00  0.00    +0.140 A 
ATOM      7  C   UNL     1      -1.871  -0.939  -1.187  0.00  0.00    +0.277 A 
ATOM      8  O   UNL     1      -1.895   0.021  -1.938  0.00  0.00    -0.266 OA
ATOM      9  N   UNL     1      -2.812  -1.899  -1.282  0.00  0.00    -0.273 N 
ATOM     10  H   UNL     1      -3.528  -1.821  -1.976  0.00  0.00    +0.173 HD
ATOM     11  C   UNL     1      -2.799  -2.959  -0.455  0.00  0.00    +0.331 A 
ATOM     12  O   UNL     1      -3.663  -3.808  -0.560  0.00  0.00    -0.246 OA
BRANCH   5  13
ATOM     13  N   UNL     1       0.112  -2.291   1.583  0.00  0.00    -0.343 N 
ATOM     14  H   UNL     1       0.751  -1.578   1.735  0.00  0.00    +0.144 HD
ATOM     15  H   UNL     1       0.158  -3.105   2.110  0.00  0.00    +0.144 HD
ENDBRANCH   5  13
BRANCH   4  16
ATOM     16  C   UNL     1      -1.863  -4.265   1.371  0.00  0.00    +0.128 C 
BRANCH  16  17
ATOM     17  C   UNL     1      -2.692  -3.949   2.617  0.00  0.00    +0.021 C 
BRANCH  17  19
ATOM     18  C   UNL     1      -3.538  -4.853   4.788  0.00  0.00    +0.004 C 
ATOM     19  C   UNL     1      -2.708  -5.168   3.541  0.00  0.00    -0.002 C 
ENDBRANCH  17  19
ENDBRANCH  16  17
ENDBRANCH   4  16
ENDBRANCH   1   6
BRANCH   1  20
ATOM     20  C   UNL     1       1.533  -0.387  -0.426  0.00  0.00    +0.149 C 
BRANCH  20  21
ATOM     21  C   UNL     1       1.771  -0.164  -1.897  0.00  0.00    -0.030 A 
ATOM     22  C   UNL     1       1.465  -1.160  -2.805  0.00  0.00    +0.005 A 
ATOM     23  C   UNL     1       1.678  -0.954  -4.156  0.00  0.00    +0.000 A 
ATOM     24  C   UNL     1       2.207   0.245  -4.597  0.00  0.00    +0.000 A 
ATOM     25  C   UNL     1       2.518   1.239  -3.688  0.00  0.00    +0.000 A 
ATOM     26  C   UNL     1       2.300   1.035  -2.338  0.00  0.00    +0.005 A 
ENDBRANCH  20  21
ENDBRANCH   1  20
BRANCH   2  27
ATOM     27  C   UNL     1       0.895   2.203   0.543  0.00  0.00    +0.214 C 
BRANCH  27  28
ATOM     28  N   UNL     1       0.301   3.420   1.104  0.00  0.00    -0.215 N 
ATOM     29  C   UNL     1       0.147   3.650   2.425  0.00  0.00    +0.247 C 
ATOM     30  O   UNL     1       0.461   2.920   3.341  0.00  0.00    -0.273 OA
ATOM     31  C   UNL     1      -0.498   5.009   2.520  0.00  0.00    +0.113 C 
ATOM     32  C   UNL     1       0.386   5.986   3.306  0.00  0.00    +0.035 C 
ATOM     33  C   UNL     1      -0.627   6.878   4.069  0.00  0.00    +0.003 C 
ATOM     34  C   UNL     1      -1.744   5.876   4.456  0.00  0.00    +0.003 C 
ATOM     35  C   UNL     1      -1.849   4.934   3.236  0.00  0.00    +0.035 C 
ATOM     36  N   UNL     1      -0.654   5.438   1.129  0.00  0.00    -0.285 N 
ATOM     37  C   UNL     1      -0.152   4.444   0.369  0.00  0.00    +0.310 C 
ATOM     38  O   UNL     1      -0.118   4.473  -0.845  0.00  0.00    -0.252 OA
ATOM     39  H   UNL     1      -1.038   6.273   0.817  0.00  0.00    +0.151 HD
ENDBRANCH  27  28
ENDBRANCH   2  27
TORSDOF 9
