REMARK  Name = ZINC02229582
REMARK  8 active torsions:
REMARK  status: ('A' for Active; 'I' for Inactive)
REMARK    1  A    between atoms: C_1  and  C_2
REMARK    2  A    between atoms: N_8  and  C_9
REMARK    3  A    between atoms: C_9  and  C_10
REMARK    4  A    between atoms: C_15  and  C_25
REMARK    5  A    between atoms: C_17  and  C_21
REMARK    6  A    between atoms: C_18  and  N_20
REMARK    7  A    between atoms: C_21  and  O_23
REMARK    8  A    between atoms: O_23  and  C_24
REMARK                            x       y       z     vdW  Elec       q    Type
REMARK                         _______ _______ _______ _____ _____    ______ ____
ROOT
ATOM      1  C   UNL     1      -0.050   1.543  -0.173  0.00  0.00    +0.064 C 
ATOM      2  C   UNL     1      -0.058   0.037  -0.128  0.00  0.00    +0.023 A 
ATOM      3  C   UNL     1       0.048  -0.664  -1.277  0.00  0.00    +0.068 A 
ATOM      4  C   UNL     1       0.046  -2.074  -1.240  0.00  0.00    +0.141 A 
ATOM      5  C   UNL     1      -0.074  -2.710  -0.022  0.00  0.00    +0.071 A 
ATOM      6  C   UNL     1      -0.187  -1.941   1.143  0.00  0.00    +0.259 A 
ATOM      7  O   UNL     1      -0.295  -2.490   2.228  0.00  0.00    -0.267 OA
ATOM      8  N   UNL     1      -0.177  -0.597   1.068  0.00  0.00    -0.305 N 
ATOM      9  C   UNL     1      -0.085  -4.211   0.064  0.00  0.00    +0.101 C 
ATOM     10  C   UNL     1      -0.353  -4.806  -1.291  0.00  0.00    +0.105 C 
ATOM     11  C   UNL     1      -0.218  -4.067  -2.422  0.00  0.00    +0.195 C 
ATOM     12  O   UNL     1       0.157  -2.778  -2.387  0.00  0.00    -0.441 OA
ENDROOT
BRANCH   9  13
ATOM     13  C   UNL     1       1.252  -4.693   0.565  0.00  0.00    -0.017 A 
ATOM     14  C   UNL     1       2.400  -4.411  -0.151  0.00  0.00    +0.007 A 
ATOM     15  C   UNL     1       3.628  -4.847   0.311  0.00  0.00    +0.020 A 
ATOM     16  C   UNL     1       3.706  -5.576   1.485  0.00  0.00    +0.042 A 
ATOM     17  C   UNL     1       2.557  -5.864   2.198  0.00  0.00    +0.040 A 
ATOM     18  C   UNL     1       1.329  -5.422   1.738  0.00  0.00    +0.046 A 
ATOM     19 CL   UNL     1      -0.115  -5.783   2.633  0.00  0.00    -0.083 Cl
ATOM     20 CL   UNL     1       5.247  -6.130   2.062  0.00  0.00    -0.083 Cl
ENDBRANCH   9  13
BRANCH  11  21
ATOM     21  N   UNL     1      -0.473  -4.652  -3.633  0.00  0.00    -0.329 N 
ATOM     22  H   UNL     1      -0.461  -4.118  -4.442  0.00  0.00    +0.145 HD
ATOM     23  H   UNL     1      -0.665  -5.602  -3.682  0.00  0.00    +0.145 HD
ENDBRANCH  11  21
BRANCH  10  24
ATOM     24  C   UNL     1      -0.749  -6.148  -1.389  0.00  0.00    +0.341 C 
ATOM     25  O   UNL     1      -1.903  -6.461  -1.157  0.00  0.00    -0.245 OA
BRANCH  24  26
ATOM     26  O   UNL     1       0.150  -7.093  -1.739  0.00  0.00    -0.465 OA
ATOM     27  C   UNL     1      -0.323  -8.440  -1.819  0.00  0.00    +0.280 C 
ENDBRANCH  24  26
ENDBRANCH  10  24
BRANCH   8  28
ATOM     28  C   UNL     1      -0.295   0.195   2.295  0.00  0.00    +0.199 C 
BRANCH  28  29
ATOM     29  C   UNL     1      -1.750   0.470   2.577  0.00  0.00    +0.125 A 
ATOM     30  C   UNL     1      -2.570  -0.307   3.307  0.00  0.00    +0.046 A 
ATOM     31  C   UNL     1      -3.834   0.326   3.314  0.00  0.00    +0.041 A 
ATOM     32  C   UNL     1      -3.713   1.448   2.582  0.00  0.00    +0.195 A 
ATOM     33  O   UNL     1      -2.448   1.530   2.138  0.00  0.00    -0.466 OA
ENDBRANCH  28  29
ENDBRANCH   8  28
TORSDOF 6
