REMARK  Name = ZINC21127057
REMARK  8 active torsions:
REMARK  status: ('A' for Active; 'I' for Inactive)
REMARK    1  A    between atoms: C_1  and  C_2
REMARK    2  A    between atoms: C_2  and  C_4
REMARK    3  A    between atoms: C_2  and  S_14
REMARK    4  A    between atoms: S_14  and  C_15
REMARK    5  A    between atoms: C_18  and  C_21
REMARK    6  A    between atoms: N_19  and  N_20
REMARK    7  A    between atoms: C_24  and  O_27
REMARK    8  A    between atoms: O_27  and  C_28
REMARK                            x       y       z     vdW  Elec       q    Type
REMARK                         _______ _______ _______ _____ _____    ______ ____
ROOT
ATOM      1  C   UNL     1       6.438   6.331   0.179  0.00  0.00    +0.209 A 
ATOM      2  N   UNL     1       7.468   5.561  -0.086  0.00  0.00    -0.121 NA
ATOM      3  N   UNL     1       8.559   6.233   0.015  0.00  0.00    -0.127 NA
ATOM      4  C   UNL     1       8.293   7.471   0.360  0.00  0.00    +0.182 A 
ATOM      5  N   UNL     1       6.926   7.573   0.476  0.00  0.00    -0.224 N 
ENDROOT
BRANCH   4   6
ATOM      6  C   UNL     1       9.276   8.552   0.582  0.00  0.00    +0.021 A 
ATOM      7  C   UNL     1      10.580   8.422   0.100  0.00  0.00    +0.015 A 
ATOM      8  C   UNL     1      11.493   9.434   0.305  0.00  0.00    +0.046 A 
ATOM      9  C   UNL     1      11.120  10.578   0.999  0.00  0.00    +0.127 A 
ATOM     10  C   UNL     1       9.825  10.709   1.484  0.00  0.00    +0.046 A 
ATOM     11  C   UNL     1       8.905   9.704   1.279  0.00  0.00    +0.015 A 
BRANCH   9  12
ATOM     12  O   UNL     1      12.024  11.571   1.204  0.00  0.00    -0.434 OA
BRANCH  12  13
ATOM     13  C   UNL     1      13.338  11.371   0.678  0.00  0.00    +0.541 C 
ATOM     14  F   UNL     1      13.901  10.226   1.252  0.00  0.00    -0.166 F 
ATOM     15  F   UNL     1      13.265  11.210  -0.710  0.00  0.00    -0.166 F 
ENDBRANCH  12  13
ENDBRANCH   9  12
ENDBRANCH   4   6
BRANCH   5  16
ATOM     16  N   UNL     1       6.207   8.683   0.816  0.00  0.00    -0.295 N 
ATOM     17  H   UNL     1       6.725   9.629   1.032  0.00  0.00    +0.163 HD
ATOM     18  H   UNL     1       5.109   8.631   0.874  0.00  0.00    +0.163 HD
ENDBRANCH   5  16
BRANCH   1  19
ATOM     19  S   UNL     1       4.742   5.851   0.164  0.00  0.00    -0.072 S 
BRANCH  19  21
ATOM     20  C   UNL     1       5.483   4.021  -1.724  0.00  0.00    +0.029 C 
ATOM     21  C   UNL     1       4.913   4.112  -0.307  0.00  0.00    +0.137 C 
BRANCH  21  22
ATOM     22  C   UNL     1       3.561   3.446  -0.266  0.00  0.00    +0.231 C 
ATOM     23  O   UNL     1       2.554   4.108  -0.403  0.00  0.00    -0.274 OA
ATOM     24  N   UNL     1       3.472   2.115  -0.077  0.00  0.00    -0.269 N 
ATOM     25  C   UNL     1       2.230   1.483  -0.143  0.00  0.00    +0.125 A 
ATOM     26  C   UNL     1       2.157   0.097  -0.056  0.00  0.00    +0.045 A 
ATOM     27  C   UNL     1       0.920  -0.517  -0.123  0.00  0.00    +0.025 A 
ATOM     28  C   UNL     1      -0.208   0.279  -0.276  0.00  0.00    +0.059 A 
ATOM     29  C   UNL     1      -0.061   1.651  -0.356  0.00  0.00    +0.132 A 
ATOM     30  N   UNL     1       1.133   2.208  -0.289  0.00  0.00    -0.239 NA
ATOM     31 CL   UNL     1      -1.785  -0.441  -0.366  0.00  0.00    -0.082 Cl
ATOM     32  H   UNL     1       4.378   1.526   0.129  0.00  0.00    +0.156 HD
ENDBRANCH  21  22
ENDBRANCH  19  21
ENDBRANCH   1  19
TORSDOF 7
