REMARK  Name = ZINC20701023
REMARK  5 active torsions:
REMARK  status: ('A' for Active; 'I' for Inactive)
REMARK    1  A    between atoms: C_6  and  S_7
REMARK    2  A    between atoms: S_7  and  N_10
REMARK    3  A    between atoms: N_10  and  C_11
REMARK    4  A    between atoms: C_24  and  C_27
REMARK    5  A    between atoms: C_32  and  O_33
REMARK                            x       y       z     vdW  Elec       q    Type
REMARK                         _______ _______ _______ _____ _____    ______ ____
ROOT
ATOM      1  C   UNL     1       2.392   6.841   0.914  0.00  0.00    +0.030 A 
ATOM      2  C   UNL     1       2.776   5.857   0.025  0.00  0.00    +0.025 A 
ATOM      3  C   UNL     1       3.023   4.566   0.472  0.00  0.00    +0.031 A 
ATOM      4  C   UNL     1       2.863   4.271   1.832  0.00  0.00    -0.018 A 
ATOM      5  C   UNL     1       2.488   5.262   2.712  0.00  0.00    +0.034 A 
ATOM      6  C   UNL     1       2.252   6.547   2.258  0.00  0.00    +0.106 A 
ATOM      7  C   UNL     1       3.087   2.873   2.257  0.00  0.00    +0.049 C 
ATOM      8  C   UNL     1       3.521   2.529   3.635  0.00  0.00    -0.023 C 
ATOM      9  C   UNL     1       4.257   1.425   3.585  0.00  0.00    -0.030 C 
ATOM     10  C   UNL     1       4.402   0.959   2.135  0.00  0.00    +0.033 C 
ATOM     11  C   UNL     1       4.238   2.281   1.385  0.00  0.00    +0.029 C 
ATOM     12  C   UNL     1       3.671   2.193  -0.021  0.00  0.00    +0.109 C 
ATOM     13  N   UNL     1       3.428   3.588  -0.445  0.00  0.00    -0.336 N 
ATOM     14  H   UNL     1       3.564   3.875  -1.498  0.00  0.00    +0.147 HD
ENDROOT
BRANCH  12  15
ATOM     15  C   UNL     1       2.378   1.418  -0.013  0.00  0.00    +0.017 A 
ATOM     16  C   UNL     1       1.171   2.090   0.002  0.00  0.00    +0.029 A 
ATOM     17  C   UNL     1      -0.017   1.380   0.010  0.00  0.00    +0.043 A 
ATOM     18  C   UNL     1       0.002  -0.004   0.002  0.00  0.00    +0.043 A 
ATOM     19  C   UNL     1       1.208  -0.679  -0.013  0.00  0.00    +0.084 A 
ATOM     20  C   UNL     1       2.400   0.032  -0.020  0.00  0.00    +0.140 A 
ATOM     21 CL   UNL     1       1.232  -2.415  -0.021  0.00  0.00    -0.080 Cl
ATOM     22 CL   UNL     1      -1.532   2.226   0.021  0.00  0.00    -0.083 Cl
BRANCH  20  23
ATOM     23  O   UNL     1       3.588  -0.630  -0.035  0.00  0.00    -0.505 OA
ATOM     24  H   UNL     1       3.604  -1.730  -0.041  0.00  0.00    +0.292 HD
ENDBRANCH  20  23
ENDBRANCH  12  15
BRANCH   6  25
ATOM     25  S   UNL     1       1.772   7.808   3.391  0.00  0.00    +0.059 S 
ATOM     26  O   UNL     1       1.082   8.793   2.634  0.00  0.00    -0.153 OA
ATOM     27  O   UNL     1       1.182   7.151   4.504  0.00  0.00    -0.153 OA
BRANCH  25  28
ATOM     28  N   UNL     1       3.159   8.522   3.944  0.00  0.00    -0.187 NA
ATOM     29  H   UNL     1       3.511   8.297   4.962  0.00  0.00    +0.148 HD
BRANCH  28  30
ATOM     30  C   UNL     1       4.019   9.267   3.020  0.00  0.00    +0.077 C 
ATOM     31  C   UNL     1       5.130   8.349   2.507  0.00  0.00    +0.020 C 
ATOM     32  C   UNL     1       6.028   9.126   1.542  0.00  0.00    +0.002 C 
ATOM     33  C   UNL     1       6.648  10.320   2.271  0.00  0.00    +0.000 C 
ATOM     34  C   UNL     1       5.536  11.237   2.784  0.00  0.00    +0.002 C 
ATOM     35  C   UNL     1       4.639  10.460   3.749  0.00  0.00    +0.020 C 
ENDBRANCH  28  30
ENDBRANCH  25  28
ENDBRANCH   6  25
TORSDOF 5
