REMARK  Name = ZINC01877108
REMARK  5 active torsions:
REMARK  status: ('A' for Active; 'I' for Inactive)
REMARK    1  A    between atoms: C_4  and  C_7
REMARK    2  A    between atoms: C_7  and  N_8
REMARK    3  A    between atoms: C_11  and  N_14
REMARK    4  A    between atoms: C_34  and  C_36
REMARK    5  A    between atoms: C_40  and  N_42
REMARK                            x       y       z     vdW  Elec       q    Type
REMARK                         _______ _______ _______ _____ _____    ______ ____
ROOT
ATOM      1  N   UNL     1       5.291  -2.760   4.957  0.00  0.00    -0.288 N 
ATOM      2  C   UNL     1       5.381  -1.553   5.762  0.00  0.00    +0.204 C 
ATOM      3  C   UNL     1       5.817  -1.842   7.161  0.00  0.00    +0.234 C 
ATOM      4  O   UNL     1       5.904  -0.908   7.930  0.00  0.00    -0.274 OA
ATOM      5  N   UNL     1       6.117  -3.058   7.622  0.00  0.00    -0.276 N 
ATOM      6  C   UNL     1       6.132  -4.251   6.777  0.00  0.00    +0.167 C 
ATOM      7  C   UNL     1       5.618  -3.972   5.401  0.00  0.00    +0.237 C 
ATOM      8  O   UNL     1       5.494  -4.908   4.641  0.00  0.00    -0.274 OA
ATOM      9  C   UNL     1       7.566  -4.794   6.697  0.00  0.00    +0.069 C 
ATOM     10  C   UNL     1       8.157  -4.811   8.083  0.00  0.00    -0.015 A 
ATOM     11  C   UNL     1       9.313  -5.544   8.558  0.00  0.00    +0.003 A 
ATOM     12  C   UNL     1      10.203  -6.421   7.931  0.00  0.00    +0.010 A 
ATOM     13  C   UNL     1      11.207  -6.946   8.706  0.00  0.00    +0.001 A 
ATOM     14  C   UNL     1      11.343  -6.629  10.048  0.00  0.00    +0.002 A 
ATOM     15  C   UNL     1      10.478  -5.763  10.694  0.00  0.00    +0.026 A 
ATOM     16  C   UNL     1       9.448  -5.214   9.931  0.00  0.00    +0.047 A 
ATOM     17  N   UNL     1       8.442  -4.346  10.242  0.00  0.00    -0.356 N 
ATOM     18  H   UNL     1       8.294  -3.953  11.116  0.00  0.00    +0.166 HD
ATOM     19  C   UNL     1       7.673  -4.112   9.133  0.00  0.00    +0.046 A 
ATOM     20  C   UNL     1       6.455  -3.220   9.052  0.00  0.00    +0.154 C 
ENDROOT
BRANCH   1  24
ATOM     21  N   UNL     1       3.836  -0.930   1.450  0.00  0.00    +0.382 N 
ATOM     22  C   UNL     1       2.926  -1.852   2.140  0.00  0.00    -0.077 C 
ATOM     23  C   UNL     1       3.393  -2.052   3.583  0.00  0.00    +0.004 C 
ATOM     24  C   UNL     1       4.808  -2.637   3.579  0.00  0.00    +0.073 C 
ATOM     25  C   UNL     1       5.734  -1.703   2.794  0.00  0.00    +0.004 C 
ATOM     26  C   UNL     1       5.180  -1.516   1.380  0.00  0.00    -0.077 C 
ATOM     27  H   UNL     1       3.876  -0.059   1.958  0.00  0.00    -0.081 HD
BRANCH  21  28
ATOM     28  C   UNL     1       3.340  -0.680   0.090  0.00  0.00    -0.043 C 
BRANCH  28  32
ATOM     29  C   UNL     1      -0.417   1.342   0.291  0.00  0.00    +0.000 A 
ATOM     30  C   UNL     1       0.757   2.069   0.247  0.00  0.00    +0.000 A 
ATOM     31  C   UNL     1       1.973   1.415   0.182  0.00  0.00    +0.002 A 
ATOM     32  C   UNL     1       2.014   0.033   0.162  0.00  0.00    -0.064 A 
ATOM     33  C   UNL     1       0.840  -0.694   0.208  0.00  0.00    +0.002 A 
ATOM     34  C   UNL     1      -0.376  -0.039   0.271  0.00  0.00    +0.000 A 
ENDBRANCH  28  32
ENDBRANCH  21  28
ENDBRANCH   1  24
BRANCH  20  35
ATOM     35  C   UNL     1       6.763  -1.877   9.661  0.00  0.00    -0.019 A 
ATOM     36  C   UNL     1       5.920  -1.342  10.617  0.00  0.00    +0.006 A 
ATOM     37  C   UNL     1       6.202  -0.109  11.176  0.00  0.00    +0.003 A 
ATOM     38  C   UNL     1       7.328   0.588  10.779  0.00  0.00    +0.033 A 
ATOM     39  C   UNL     1       8.172   0.052   9.824  0.00  0.00    +0.127 A 
ATOM     40  C   UNL     1       7.891  -1.183   9.268  0.00  0.00    +0.038 A 
BRANCH  39  41
ATOM     41  N   UNL     1       9.377   0.799   9.399  0.00  0.00    +0.056 N 
ATOM     42  O   UNL     1       9.624   1.877   9.887  0.00  0.00    -0.126 OA
ATOM     43  O   UNL     1      10.115   0.330   8.564  0.00  0.00    -0.126 OA
ENDBRANCH  39  41
ENDBRANCH  20  35
TORSDOF 5
