REMARK  Name = ZINC36352748
REMARK  5 active torsions:
REMARK  status: ('A' for Active; 'I' for Inactive)
REMARK    1  A    between atoms: C_1  and  C_2
REMARK    2  A    between atoms: C_19  and  C_29
REMARK    3  A    between atoms: C_20  and  C_21
REMARK    4  A    between atoms: C_24  and  O_27
REMARK    5  A    between atoms: O_27  and  C_28
REMARK                            x       y       z     vdW  Elec       q    Type
REMARK                         _______ _______ _______ _____ _____    ______ ____
ROOT
ATOM      1  C   UNL     1      -0.018   1.503   0.010  0.00  0.00    +0.045 C 
ATOM      2  C   UNL     1       0.002  -0.004   0.002  0.00  0.00    -0.029 A 
ATOM      3  C   UNL     1       0.006  -0.720  -1.185  0.00  0.00    +0.005 A 
ATOM      4  C   UNL     1       0.025  -2.099  -1.207  0.00  0.00    +0.001 A 
ATOM      5  C   UNL     1       0.041  -2.842  -0.031  0.00  0.00    +0.007 A 
ATOM      6  C   UNL     1       0.036  -2.138   1.153  0.00  0.00    -0.006 A 
ATOM      7  C   UNL     1       0.023  -0.737   1.189  0.00  0.00    +0.041 A 
ATOM      8  N   UNL     1       0.030  -0.290   2.498  0.00  0.00    -0.284 N 
ATOM      9  C   UNL     1       0.052  -1.309   3.382  0.00  0.00    +0.233 C 
ATOM     10  O   UNL     1       0.062  -1.216   4.591  0.00  0.00    -0.274 OA
ATOM     11  C   UNL     1       0.048  -2.592   2.578  0.00  0.00    +0.115 C 
ATOM     12  C   UNL     1      -1.196  -3.422   2.898  0.00  0.00    +0.122 C 
ATOM     13  C   UNL     1      -1.022  -4.842   2.442  0.00  0.00    +0.219 C 
ATOM     14  O   UNL     1      -1.992  -5.437   2.021  0.00  0.00    -0.275 OA
ATOM     15  N   UNL     1       0.157  -5.487   2.479  0.00  0.00    -0.284 N 
ATOM     16  C   UNL     1       1.328  -4.765   2.850  0.00  0.00    +0.054 A 
ATOM     17  C   UNL     1       1.269  -3.397   2.890  0.00  0.00    +0.032 A 
ATOM     18  S   UNL     1       2.787  -2.883   3.342  0.00  0.00    -0.083 S 
ATOM     19  C   UNL     1       3.584  -4.470   3.512  0.00  0.00    +0.110 A 
ATOM     20  C   UNL     1       2.548  -5.352   3.179  0.00  0.00    +0.025 A 
ATOM     21  H   UNL     1       0.020   0.647   2.751  0.00  0.00    +0.155 HD
ATOM     22  H   UNL     1       0.210  -6.429   2.255  0.00  0.00    +0.155 HD
ENDROOT
BRANCH  20  23
ATOM     23  C   UNL     1       2.739  -6.820   3.178  0.00  0.00    -0.015 A 
ATOM     24  C   UNL     1       2.035  -7.617   4.083  0.00  0.00    +0.012 A 
ATOM     25  C   UNL     1       2.215  -8.983   4.079  0.00  0.00    +0.046 A 
ATOM     26  C   UNL     1       3.095  -9.567   3.177  0.00  0.00    +0.120 A 
ATOM     27  C   UNL     1       3.797  -8.777   2.276  0.00  0.00    +0.046 A 
ATOM     28  C   UNL     1       3.618  -7.411   2.269  0.00  0.00    +0.012 A 
BRANCH  26  29
ATOM     29  O   UNL     1       3.270 -10.915   3.176  0.00  0.00    -0.495 OA
ATOM     30  C   UNL     1       4.190 -11.449   2.222  0.00  0.00    +0.277 C 
ENDBRANCH  26  29
ENDBRANCH  20  23
BRANCH  19  31
ATOM     31  C   UNL     1       4.915  -4.760   3.884  0.00  0.00    +0.394 C 
ATOM     32  O   UNL     1       5.692  -3.848   4.143  0.00  0.00    -0.240 OA
ATOM     33  O   UNL     1       5.293  -5.925   3.949  0.00  0.00    -0.240 OA
ENDBRANCH  19  31
TORSDOF 3
