REMARK  Name = ZINC50398042
REMARK  3 active torsions:
REMARK  status: ('A' for Active; 'I' for Inactive)
REMARK    1  A    between atoms: C_1  and  C_2
REMARK    2  A    between atoms: C_5  and  C_14
REMARK    3  A    between atoms: N_16  and  C_17
REMARK                            x       y       z     vdW  Elec       q    Type
REMARK                         _______ _______ _______ _____ _____    ______ ____
ROOT
ATOM      1  C   UNL     1      -0.022   1.528   0.004  0.00  0.00    +0.028 C 
ATOM      2  C   UNL     1      -0.002  -0.002  -0.004  0.00  0.00    +0.068 C 
ATOM      3  C   UNL     1       0.734  -0.505  -1.252  0.00  0.00    +0.039 C 
ATOM      4  C   UNL     1       2.138   0.100  -1.275  0.00  0.00    +0.108 C 
ATOM      5  C   UNL     1       2.831  -0.129   0.042  0.00  0.00    -0.015 A 
ATOM      6  C   UNL     1       4.213  -0.057   0.093  0.00  0.00    +0.006 A 
ATOM      7  C   UNL     1       4.878  -0.259   1.287  0.00  0.00    +0.000 A 
ATOM      8  C   UNL     1       4.167  -0.535   2.441  0.00  0.00    +0.002 A 
ATOM      9  C   UNL     1       2.789  -0.609   2.399  0.00  0.00    +0.023 A 
ATOM     10  C   UNL     1       2.118  -0.408   1.198  0.00  0.00    +0.031 A 
ATOM     11  N   UNL     1       0.721  -0.497   1.175  0.00  0.00    -0.341 N 
ATOM     12  H   UNL     1       0.238  -0.879   1.925  0.00  0.00    +0.146 HD
ENDROOT
BRANCH   4  13
ATOM     13  C   UNL     1       2.941  -0.546  -2.374  0.00  0.00    +0.221 C 
ATOM     14  O   UNL     1       2.777  -1.719  -2.636  0.00  0.00    -0.275 OA
ATOM     15  N   UNL     1       3.840   0.180  -3.067  0.00  0.00    -0.303 N 
ATOM     16  H   UNL     1       4.025   1.097  -2.811  0.00  0.00    +0.149 HD
BRANCH  15  17
ATOM     17  C   UNL     1       4.540  -0.416  -4.208  0.00  0.00    +0.159 C 
ATOM     18  C   UNL     1       5.875   0.302  -4.418  0.00  0.00    +0.033 C 
ATOM     19  C   UNL     1       6.459  -0.142  -5.764  0.00  0.00    +0.021 C 
ATOM     20  C   UNL     1       5.569   0.397  -6.885  0.00  0.00    +0.104 C 
ATOM     21  N   UNL     1       4.173   0.062  -6.634  0.00  0.00    -0.314 N 
ATOM     22  C   UNL     1       3.691  -0.281  -5.440  0.00  0.00    +0.233 C 
ATOM     23  O   UNL     1       2.502  -0.498  -5.343  0.00  0.00    -0.274 OA
ATOM     24  H   UNL     1       3.556   0.092  -7.382  0.00  0.00    +0.149 HD
ENDBRANCH  15  17
ENDBRANCH   4  13
TORSDOF 2
