REMARK  Name = ZINC02793938
REMARK  11 active torsions:
REMARK  status: ('A' for Active; 'I' for Inactive)
REMARK    1  A    between atoms: C_1  and  C_2
REMARK    2  A    between atoms: C_5  and  N_9
REMARK    3  A    between atoms: C_6  and  C_8
REMARK    4  A    between atoms: N_9  and  C_10
REMARK    5  A    between atoms: C_10  and  N_12
REMARK    6  A    between atoms: N_12  and  N_13
REMARK    7  A    between atoms: C_14  and  C_16
REMARK    8  A    between atoms: C_21  and  C_35
REMARK    9  A    between atoms: C_24  and  C_27
REMARK   10  A    between atoms: C_30  and  C_34
REMARK   11  A    between atoms: C_31  and  C_33
REMARK                            x       y       z     vdW  Elec       q    Type
REMARK                         _______ _______ _______ _____ _____    ______ ____
ROOT
ATOM      1  C   UNL     1      -0.036  -6.891  -0.341  0.00  0.00    +0.150 A 
ATOM      2  C   UNL     1      -0.168  -8.294  -0.448  0.00  0.00    +0.078 A 
ATOM      3  C   UNL     1      -1.482  -8.585  -0.398  0.00  0.00    +0.119 A 
ATOM      4  N   UNL     1      -2.173  -7.413  -0.268  0.00  0.00    -0.238 N 
ATOM      5  N   UNL     1      -1.246  -6.372  -0.228  0.00  0.00    -0.164 NA
ATOM      6  C   UNL     1      -3.634  -7.335  -0.186  0.00  0.00    +0.215 C 
ATOM      7  C   UNL     1      -4.232  -8.632  -0.743  0.00  0.00    +0.063 C 
ATOM      8  C   UNL     1      -3.550  -9.842  -0.095  0.00  0.00    +0.104 C 
ATOM      9  N   UNL     1      -2.120  -9.827  -0.461  0.00  0.00    -0.322 N 
ATOM     10  H   UNL     1      -1.619 -10.760  -0.761  0.00  0.00    +0.148 HD
ENDROOT
BRANCH   8  11
ATOM     11  C   UNL     1      -3.689  -9.764   1.403  0.00  0.00    -0.027 A 
ATOM     12  C   UNL     1      -2.859  -8.932   2.132  0.00  0.00    +0.006 A 
ATOM     13  C   UNL     1      -2.987  -8.861   3.507  0.00  0.00    +0.004 A 
ATOM     14  C   UNL     1      -3.946  -9.619   4.152  0.00  0.00    -0.048 A 
ATOM     15  C   UNL     1      -4.776 -10.449   3.424  0.00  0.00    -0.047 A 
ATOM     16  C   UNL     1      -4.651 -10.518   2.049  0.00  0.00    +0.009 A 
ATOM     17  C   UNL     1      -5.822 -11.275   4.128  0.00  0.00    +0.044 C 
ATOM     18  C   UNL     1      -4.085  -9.540   5.651  0.00  0.00    +0.044 C 
ENDBRANCH   8  11
BRANCH   1  20
ATOM     19  N   UNL     1       1.219  -4.793  -0.240  0.00  0.00    -0.230 N 
ATOM     20  C   UNL     1       1.233  -6.136  -0.349  0.00  0.00    +0.280 C 
ATOM     21  O   UNL     1       2.291  -6.726  -0.454  0.00  0.00    -0.267 OA
ATOM     22  H   UNL     1       0.263  -4.259  -0.145  0.00  0.00    +0.173 HD
BRANCH  19  23
ATOM     23  N   UNL     1       2.424  -4.077  -0.247  0.00  0.00    -0.245 N 
ATOM     24  H   UNL     1       3.381  -4.611  -0.343  0.00  0.00    +0.172 HD
BRANCH  23  25
ATOM     25  C   UNL     1       2.410  -2.734  -0.138  0.00  0.00    +0.151 C 
ATOM     26  S   UNL     1       3.881  -1.859  -0.147  0.00  0.00    -0.017 S 
BRANCH  25  27
ATOM     27  N   UNL     1       1.237  -2.079  -0.021  0.00  0.00    -0.296 N 
ATOM     28  H   UNL     1       0.299  -2.645   0.075  0.00  0.00    +0.154 HD
BRANCH  27  33
ATOM     29  C   UNL     1       1.141   3.593  -0.031  0.00  0.00    +0.044 C 
ATOM     30  C   UNL     1       1.167   2.086  -0.028  0.00  0.00    -0.050 A 
ATOM     31  C   UNL     1       1.946   1.408  -0.948  0.00  0.00    +0.005 A 
ATOM     32  C   UNL     1       1.972   0.027  -0.948  0.00  0.00    +0.024 A 
ATOM     33  C   UNL     1       1.214  -0.680  -0.023  0.00  0.00    +0.036 A 
ATOM     34  C   UNL     1       0.432   0.004   0.898  0.00  0.00    -0.029 A 
ATOM     35  C   UNL     1       0.411   1.385   0.893  0.00  0.00    +0.008 A 
ATOM     36  C   UNL     1      -0.391  -0.760   1.903  0.00  0.00    +0.045 C 
ENDBRANCH  27  33
ENDBRANCH  25  27
ENDBRANCH  23  25
ENDBRANCH  19  23
ENDBRANCH   1  20
BRANCH   6  37
ATOM     37  C   UNL     1      -4.131  -6.146  -1.011  0.00  0.00    +0.412 C 
ATOM     38  F   UNL     1      -5.527  -6.082  -0.942  0.00  0.00    -0.168 F 
ATOM     39  F   UNL     1      -3.584  -4.964  -0.500  0.00  0.00    -0.168 F 
ATOM     40  F   UNL     1      -3.736  -6.305  -2.343  0.00  0.00    -0.168 F 
ENDBRANCH   6  37
TORSDOF 7
