REMARK  Name = ZINC08877793
REMARK  7 active torsions:
REMARK  status: ('A' for Active; 'I' for Inactive)
REMARK    1  A    between atoms: C_1  and  C_2
REMARK    2  A    between atoms: C_2  and  C_30
REMARK    3  A    between atoms: N_5  and  N_9
REMARK    4  A    between atoms: C_10  and  C_12
REMARK    5  A    between atoms: C_12  and  O_13
REMARK    6  A    between atoms: O_13  and  C_14
REMARK    7  A    between atoms: C_14  and  C_16
REMARK                            x       y       z     vdW  Elec       q    Type
REMARK                         _______ _______ _______ _____ _____    ______ ____
ROOT
ATOM      1  N   UNL     1       2.160  11.542  -2.559  0.00  0.00    -0.221 N 
ATOM      2  C   UNL     1       2.561  10.311  -2.184  0.00  0.00    +0.267 C 
ATOM      3  O   UNL     1       3.740  10.082  -2.018  0.00  0.00    -0.271 OA
ATOM      4  H   UNL     1       1.217  11.725  -2.692  0.00  0.00    +0.174 HD
ENDROOT
BRANCH   1   9
ATOM      5  C   UNL     1       4.037  15.432  -4.247  0.00  0.00    +0.047 C 
ATOM      6  C   UNL     1       4.517  14.089  -3.693  0.00  0.00    +0.137 C 
ATOM      7  C   UNL     1       3.495  13.003  -3.966  0.00  0.00    +0.267 C 
ATOM      8  O   UNL     1       3.109  12.617  -5.049  0.00  0.00    -0.271 OA
ATOM      9  N   UNL     1       3.106  12.557  -2.756  0.00  0.00    -0.137 N 
ATOM     10  C   UNL     1       3.729  13.206  -1.766  0.00  0.00    +0.327 C 
ATOM     11  O   UNL     1       3.539  12.982  -0.587  0.00  0.00    -0.251 OA
ATOM     12  N   UNL     1       4.591  14.132  -2.222  0.00  0.00    -0.280 N 
ATOM     13  H   UNL     1       5.150  14.717  -1.687  0.00  0.00    +0.152 HD
BRANCH   6  14
ATOM     14  C   UNL     1       5.855  13.718  -4.281  0.00  0.00    -0.015 A 
ATOM     15  C   UNL     1       5.917  12.925  -5.411  0.00  0.00    +0.006 A 
ATOM     16  C   UNL     1       7.144  12.589  -5.953  0.00  0.00    +0.000 A 
ATOM     17  C   UNL     1       8.308  13.038  -5.359  0.00  0.00    +0.000 A 
ATOM     18  C   UNL     1       8.246  13.827  -4.225  0.00  0.00    +0.000 A 
ATOM     19  C   UNL     1       7.019  14.167  -3.686  0.00  0.00    +0.006 A 
ENDBRANCH   6  14
ENDBRANCH   1   9
BRANCH   2  20
ATOM     20  C   UNL     1       1.543   9.219  -1.972  0.00  0.00    +0.329 C 
BRANCH  20  21
ATOM     21  O   UNL     1       2.220   7.997  -1.575  0.00  0.00    -0.452 OA
BRANCH  21  22
ATOM     22  C   UNL     1       1.448   6.918  -1.345  0.00  0.00    +0.340 C 
ATOM     23  O   UNL     1       0.242   6.995  -1.472  0.00  0.00    -0.245 OA
BRANCH  22  24
ATOM     24  C   UNL     1       2.067   5.641  -0.939  0.00  0.00    +0.060 A 
ATOM     25  C   UNL     1       3.457   5.571  -0.798  0.00  0.00    +0.017 A 
ATOM     26  C   UNL     1       4.097   4.419  -0.423  0.00  0.00    +0.027 A 
ATOM     27  C   UNL     1       3.305   3.295  -0.182  0.00  0.00    +0.047 A 
ATOM     28  C   UNL     1       1.892   3.353  -0.323  0.00  0.00    +0.004 A 
ATOM     29  C   UNL     1       1.250   4.531  -0.704  0.00  0.00    +0.025 A 
ATOM     30  C   UNL     1       1.404   2.028  -0.001  0.00  0.00    -0.019 A 
ATOM     31  C   UNL     1       2.480   1.272   0.302  0.00  0.00    +0.020 A 
ATOM     32  N   UNL     1       3.621   2.025   0.196  0.00  0.00    -0.358 N 
ATOM     33  H   UNL     1       4.520   1.701   0.364  0.00  0.00    +0.166 HD
ATOM     34  C   UNL     1       2.398  -0.184   0.696  0.00  0.00    +0.053 C 
ATOM     35  C   UNL     1       0.953  -0.503   1.094  0.00  0.00    +0.006 C 
ATOM     36  C   UNL     1       0.002  -0.004   0.002  0.00  0.00    +0.005 C 
ATOM     37  C   UNL     1      -0.019   1.529   0.010  0.00  0.00    +0.037 C 
ENDBRANCH  22  24
ENDBRANCH  21  22
ENDBRANCH  20  21
ENDBRANCH   2  20
TORSDOF 6
