REMARK  Name = ZINC58850287
REMARK  6 active torsions:
REMARK  status: ('A' for Active; 'I' for Inactive)
REMARK    1  A    between atoms: C_1  and  O_2
REMARK    2  A    between atoms: O_2  and  C_3
REMARK    3  A    between atoms: C_7  and  N_9
REMARK    4  A    between atoms: N_9  and  S_10
REMARK    5  A    between atoms: S_10  and  C_13
REMARK    6  A    between atoms: C_26  and  C_29
REMARK                            x       y       z     vdW  Elec       q    Type
REMARK                         _______ _______ _______ _____ _____    ______ ____
ROOT
ATOM      1  C   UNL     1      -3.539  -3.832  -2.935  0.00  0.00    +0.109 A 
ATOM      2  C   UNL     1      -3.844  -2.757  -3.750  0.00  0.00    +0.030 A 
ATOM      3  C   UNL     1      -3.290  -2.675  -5.011  0.00  0.00    +0.025 A 
ATOM      4  C   UNL     1      -2.426  -3.668  -5.461  0.00  0.00    +0.031 A 
ATOM      5  C   UNL     1      -2.109  -4.739  -4.640  0.00  0.00    -0.018 A 
ATOM      6  C   UNL     1      -2.675  -4.813  -3.375  0.00  0.00    +0.034 A 
ATOM      7  C   UNL     1      -1.157  -5.802  -5.072  0.00  0.00    +0.049 C 
ATOM      8  C   UNL     1      -1.865  -7.074  -5.465  0.00  0.00    -0.023 C 
ATOM      9  C   UNL     1      -1.248  -7.644  -6.469  0.00  0.00    -0.030 C 
ATOM     10  C   UNL     1      -0.043  -6.832  -6.894  0.00  0.00    +0.033 C 
ATOM     11  C   UNL     1      -0.305  -5.436  -6.285  0.00  0.00    +0.029 C 
ATOM     12  C   UNL     1      -1.038  -4.601  -7.315  0.00  0.00    +0.106 C 
ATOM     13  N   UNL     1      -1.891  -3.581  -6.740  0.00  0.00    -0.336 N 
ATOM     14  H   UNL     1      -2.119  -2.810  -7.284  0.00  0.00    +0.147 HD
ENDROOT
BRANCH  12  15
ATOM     15  C   UNL     1      -1.859  -5.521  -8.181  0.00  0.00    -0.013 A 
ATOM     16  C   UNL     1      -3.120  -5.912  -7.771  0.00  0.00    +0.006 A 
ATOM     17  C   UNL     1      -3.874  -6.755  -8.565  0.00  0.00    +0.000 A 
ATOM     18  C   UNL     1      -3.368  -7.208  -9.769  0.00  0.00    +0.001 A 
ATOM     19  C   UNL     1      -2.108  -6.817 -10.180  0.00  0.00    +0.015 A 
ATOM     20  C   UNL     1      -1.355  -5.969  -9.388  0.00  0.00    +0.023 A 
ATOM     21 BR   UNL     1       0.367  -5.428  -9.952  0.00  0.00    -0.050 Br
ENDBRANCH  12  15
BRANCH   1  22
ATOM     22  S   UNL     1      -4.252  -3.945  -1.328  0.00  0.00    +0.072 S 
ATOM     23  O   UNL     1      -4.231  -5.320  -0.970  0.00  0.00    -0.150 OA
ATOM     24  O   UNL     1      -5.452  -3.185  -1.361  0.00  0.00    -0.150 OA
BRANCH  22  25
ATOM     25  N   UNL     1      -3.228  -3.168  -0.283  0.00  0.00    -0.216 N 
ATOM     26  H   UNL     1      -2.773  -3.669   0.412  0.00  0.00    +0.174 HD
BRANCH  25  31
ATOM     27  C   UNL     1      -1.532   0.091  -0.449  0.00  0.00    +0.122 A 
ATOM     28  C   UNL     1      -2.614   0.938  -0.641  0.00  0.00    +0.046 A 
ATOM     29  C   UNL     1      -3.894   0.421  -0.713  0.00  0.00    +0.005 A 
ATOM     30  C   UNL     1      -4.100  -0.940  -0.595  0.00  0.00    +0.025 A 
ATOM     31  C   UNL     1      -3.020  -1.792  -0.403  0.00  0.00    +0.052 A 
ATOM     32  C   UNL     1      -1.733  -1.276  -0.336  0.00  0.00    +0.070 A 
BRANCH  27  34
ATOM     33  C   UNL     1      -0.140   2.018  -0.504  0.00  0.00    +0.277 C 
ATOM     34  O   UNL     1      -0.274   0.600  -0.379  0.00  0.00    -0.495 OA
ENDBRANCH  27  34
ENDBRANCH  25  31
ENDBRANCH  22  25
ENDBRANCH   1  22
TORSDOF 5
