REMARK  Name = ZINC16779022
REMARK  6 active torsions:
REMARK  status: ('A' for Active; 'I' for Inactive)
REMARK    1  A    between atoms: C_1  and  C_2
REMARK    2  A    between atoms: C_2  and  C_29
REMARK    3  A    between atoms: N_5  and  N_6
REMARK    4  A    between atoms: C_11  and  C_14
REMARK    5  A    between atoms: C_14  and  C_15
REMARK    6  A    between atoms: N_17  and  C_18
REMARK                            x       y       z     vdW  Elec       q    Type
REMARK                         _______ _______ _______ _____ _____    ______ ____
ROOT
ATOM      1  N   UNL     1      -1.072   2.516   3.527  0.00  0.00    -0.125 NA
ATOM      2  C   UNL     1      -0.694   2.887   4.731  0.00  0.00    +0.183 C 
ATOM      3  N   UNL     1      -1.471   3.412   5.744  0.00  0.00    -0.263 N 
ATOM      4  C   UNL     1      -0.967   3.744   6.920  0.00  0.00    +0.233 C 
ATOM      5  O   UNL     1      -1.653   4.200   7.810  0.00  0.00    -0.274 OA
ATOM      6  C   UNL     1       0.528   3.526   7.086  0.00  0.00    +0.149 C 
ATOM      7  S   UNL     1       0.947   2.839   5.435  0.00  0.00    -0.075 S 
ATOM      8  H   UNL     1      -2.549   3.565   5.588  0.00  0.00    +0.157 HD
ENDROOT
BRANCH   1  13
ATOM      9  C   UNL     1       0.052   0.376   0.157  0.00  0.00    +0.040 C 
ATOM     10  C   UNL     1      -0.819   0.845   1.294  0.00  0.00    -0.058 C 
ATOM     11  C   UNL     1      -1.972   1.481   1.037  0.00  0.00    +0.058 C 
ATOM     12  C   UNL     1      -2.777   2.357   1.917  0.00  0.00    +0.162 C 
ATOM     13  N   UNL     1      -2.417   2.628   3.149  0.00  0.00    -0.131 NA
ATOM     14  N   UNL     1      -3.918   2.871   1.364  0.00  0.00    -0.259 N 
ATOM     15  C   UNL     1      -4.263   2.567   0.098  0.00  0.00    +0.282 C 
ATOM     16  O   UNL     1      -5.241   2.939  -0.523  0.00  0.00    -0.262 OA
ATOM     17  S   UNL     1      -2.952   1.492  -0.456  0.00  0.00    -0.028 S 
ATOM     18  C   UNL     1      -0.396   0.599   2.719  0.00  0.00    +0.040 C 
ATOM     19  H   UNL     1      -4.563   3.539   1.954  0.00  0.00    +0.157 HD
ENDBRANCH   1  13
BRANCH   6  20
ATOM     20  C   UNL     1       0.821   2.515   8.197  0.00  0.00    +0.120 C 
BRANCH  20  21
ATOM     21  C   UNL     1       2.307   2.281   8.285  0.00  0.00    +0.219 C 
ATOM     22  O   UNL     1       3.058   2.865   7.533  0.00  0.00    -0.275 OA
ATOM     23  N   UNL     1       2.801   1.422   9.198  0.00  0.00    -0.285 N 
ATOM     24  H   UNL     1       2.116   0.834   9.827  0.00  0.00    +0.155 HD
BRANCH  23  25
ATOM     25  C   UNL     1       4.185   1.278   9.347  0.00  0.00    +0.033 A 
ATOM     26  C   UNL     1       4.724   0.045   9.690  0.00  0.00    +0.024 A 
ATOM     27  C   UNL     1       6.090  -0.095   9.831  0.00  0.00    +0.017 A 
ATOM     28  C   UNL     1       6.922   0.994   9.641  0.00  0.00    +0.018 A 
ATOM     29  C   UNL     1       6.388   2.225   9.305  0.00  0.00    +0.017 A 
ATOM     30  C   UNL     1       5.022   2.370   9.158  0.00  0.00    +0.024 A 
ATOM     31 BR   UNL     1       8.792   0.800   9.843  0.00  0.00    -0.050 Br
ENDBRANCH  23  25
ENDBRANCH  20  21
ENDBRANCH   6  20
TORSDOF 4
