REMARK  Name = ZINC35483474
REMARK  19 active torsions:
REMARK  status: ('A' for Active; 'I' for Inactive)
REMARK    1  A    between atoms: C_1  and  C_2
REMARK    2  A    between atoms: C_2  and  C_3
REMARK    3  A    between atoms: C_3  and  C_4
REMARK    4  A    between atoms: C_4  and  N_5
REMARK    5  A    between atoms: N_5  and  C_6
REMARK    6  A    between atoms: N_5  and  C_10
REMARK    7  A    between atoms: C_6  and  C_7
REMARK    8  A    between atoms: C_7  and  C_8
REMARK    9  A    between atoms: C_8  and  C_9
REMARK   10  A    between atoms: C_10  and  C_11
REMARK   11  A    between atoms: C_11  and  C_12
REMARK   12  A    between atoms: C_12  and  N_13
REMARK   13  A    between atoms: C_14  and  C_29
REMARK   14  A    between atoms: C_31  and  O_39
REMARK   15  A    between atoms: C_32  and  O_37
REMARK   16  A    between atoms: C_33  and  O_35
REMARK   17  A    between atoms: O_35  and  C_36
REMARK   18  A    between atoms: O_37  and  C_38
REMARK   19  A    between atoms: O_39  and  C_40
REMARK                            x       y       z     vdW  Elec       q    Type
REMARK                         _______ _______ _______ _____ _____    ______ ____
ROOT
ATOM      1  N   UNL     1      -2.044  -5.992  -3.177  0.00  0.00    -0.284 N 
ATOM      2  C   UNL     1      -2.940  -6.322  -2.056  0.00  0.00    +0.145 C 
ATOM      3  C   UNL     1      -4.292  -6.516  -2.659  0.00  0.00    +0.072 A 
ATOM      4  C   UNL     1      -5.580  -6.866  -2.051  0.00  0.00    +0.199 A 
ATOM      5  O   UNL     1      -5.765  -6.891  -0.847  0.00  0.00    -0.287 OA
ATOM      6  C   UNL     1      -6.637  -7.187  -3.043  0.00  0.00    +0.064 A 
ATOM      7  C   UNL     1      -7.854  -7.729  -2.628  0.00  0.00    +0.015 A 
ATOM      8  C   UNL     1      -8.815  -8.024  -3.554  0.00  0.00    +0.001 A 
ATOM      9  C   UNL     1      -8.584  -7.787  -4.901  0.00  0.00    +0.004 A 
ATOM     10  C   UNL     1      -7.390  -7.251  -5.328  0.00  0.00    +0.047 A 
ATOM     11  C   UNL     1      -6.394  -6.939  -4.403  0.00  0.00    +0.139 A 
ATOM     12  O   UNL     1      -5.232  -6.404  -4.844  0.00  0.00    -0.450 OA
ATOM     13  C   UNL     1      -4.181  -6.310  -4.005  0.00  0.00    +0.199 A 
ATOM     14  C   UNL     1      -2.777  -5.984  -4.309  0.00  0.00    +0.283 C 
ATOM     15  O   UNL     1      -2.342  -5.743  -5.417  0.00  0.00    -0.267 OA
ENDROOT
BRANCH   2  16
ATOM     16  C   UNL     1      -2.969  -5.188  -1.064  0.00  0.00    -0.015 A 
ATOM     17  C   UNL     1      -2.991  -3.880  -1.512  0.00  0.00    +0.055 A 
ATOM     18  C   UNL     1      -3.017  -2.834  -0.602  0.00  0.00    +0.165 A 
ATOM     19  C   UNL     1      -3.023  -3.101   0.762  0.00  0.00    +0.204 A 
ATOM     20  C   UNL     1      -3.002  -4.417   1.208  0.00  0.00    +0.165 A 
ATOM     21  C   UNL     1      -2.980  -5.458   0.292  0.00  0.00    +0.055 A 
BRANCH  20  22
ATOM     22  O   UNL     1      -3.007  -4.684   2.542  0.00  0.00    -0.491 OA
ATOM     23  C   UNL     1      -2.985  -6.060   2.928  0.00  0.00    +0.277 C 
ENDBRANCH  20  22
BRANCH  19  24
ATOM     24  O   UNL     1      -3.049  -2.077   1.658  0.00  0.00    -0.488 OA
ATOM     25  C   UNL     1      -4.334  -1.613   2.075  0.00  0.00    +0.277 C 
ENDBRANCH  19  24
BRANCH  18  26
ATOM     26  O   UNL     1      -3.038  -1.548  -1.044  0.00  0.00    -0.491 OA
ATOM     27  C   UNL     1      -3.030  -1.348  -2.459  0.00  0.00    +0.277 C 
ENDBRANCH  18  26
ENDBRANCH   2  16
BRANCH   1  28
ATOM     28  C   UNL     1      -0.608  -5.717  -3.079  0.00  0.00    +0.107 C 
BRANCH  28  29
ATOM     29  C   UNL     1      -0.391  -4.219  -2.852  0.00  0.00    +0.000 C 
BRANCH  29  30
ATOM     30  C   UNL     1       1.108  -3.932  -2.749  0.00  0.00    -0.077 C 
BRANCH  30  31
ATOM     31  N   UNL     1       1.317  -2.494  -2.531  0.00  0.00    +0.380 N 
ATOM     32  H   UNL     1       0.856  -1.972  -3.261  0.00  0.00    -0.082 HD
BRANCH  31  33
ATOM     33  C   UNL     1       0.758  -2.110  -1.228  0.00  0.00    -0.079 C 
BRANCH  33  34
ATOM     34  C   UNL     1       0.848  -0.592  -1.061  0.00  0.00    -0.019 C 
BRANCH  34  36
ATOM     35  C   UNL     1       0.239   1.339   0.403  0.00  0.00    +0.004 C 
ATOM     36  C   UNL     1       0.149  -0.179   0.236  0.00  0.00    -0.005 C 
ENDBRANCH  34  36
ENDBRANCH  33  34
ENDBRANCH  31  33
BRANCH  31  37
ATOM     37  C   UNL     1       2.756  -2.199  -2.552  0.00  0.00    -0.079 C 
BRANCH  37  38
ATOM     38  C   UNL     1       3.310  -2.463  -3.954  0.00  0.00    -0.019 C 
BRANCH  38  39
ATOM     39  C   UNL     1       4.776  -2.030  -4.013  0.00  0.00    -0.005 C 
ATOM     40  C   UNL     1       5.330  -2.294  -5.414  0.00  0.00    +0.004 C 
ENDBRANCH  38  39
ENDBRANCH  37  38
ENDBRANCH  31  37
ENDBRANCH  30  31
ENDBRANCH  29  30
ENDBRANCH  28  29
ENDBRANCH   1  28
TORSDOF 14
