REMARK  Name = ZINC26540632
REMARK  8 active torsions:
REMARK  status: ('A' for Active; 'I' for Inactive)
REMARK    1  A    between atoms: C_6  and  S_7
REMARK    2  A    between atoms: S_7  and  N_10
REMARK    3  A    between atoms: N_10  and  C_11
REMARK    4  A    between atoms: C_13  and  N_21
REMARK    5  A    between atoms: C_16  and  N_17
REMARK    6  A    between atoms: N_17  and  C_18
REMARK    7  A    between atoms: C_18  and  C_19
REMARK    8  A    between atoms: C_19  and  O_20
REMARK                            x       y       z     vdW  Elec       q    Type
REMARK                         _______ _______ _______ _____ _____    ______ ____
ROOT
ATOM      1  C   UNL     1      -3.771   1.986   0.200  0.00  0.00    +0.071 A 
ATOM      2  C   UNL     1      -2.514   1.403   0.265  0.00  0.00    +0.059 A 
ATOM      3  C   UNL     1      -1.393   2.196   0.431  0.00  0.00    +0.128 A 
ATOM      4  C   UNL     1      -1.521   3.568   0.538  0.00  0.00    +0.034 A 
ATOM      5  C   UNL     1      -2.770   4.157   0.469  0.00  0.00    +0.027 A 
ATOM      6  C   UNL     1      -3.900   3.370   0.303  0.00  0.00    +0.050 A 
ENDROOT
BRANCH   3   7
ATOM      7  N   UNL     1      -0.052   1.572   0.500  0.00  0.00    +0.056 N 
ATOM      8  O   UNL     1       0.062   0.363   0.410  0.00  0.00    -0.126 OA
ATOM      9  O   UNL     1       0.937   2.269   0.641  0.00  0.00    -0.126 OA
ENDBRANCH   3   7
BRANCH   1  10
ATOM     10  N   UNL     1      -4.907   1.185   0.031  0.00  0.00    -0.214 N 
ATOM     11  H   UNL     1      -5.752   1.549  -0.572  0.00  0.00    +0.174 HD
BRANCH  10  12
ATOM     12  S   UNL     1      -4.980  -0.310   0.740  0.00  0.00    +0.072 S 
ATOM     13  O   UNL     1      -6.288  -0.810   0.500  0.00  0.00    -0.150 OA
ATOM     14  O   UNL     1      -3.811  -1.008   0.335  0.00  0.00    -0.150 OA
BRANCH  12  20
ATOM     15  C   UNL     1      -3.601  -0.075   3.084  0.00  0.00    +0.030 A 
ATOM     16  C   UNL     1      -3.494   0.119   4.448  0.00  0.00    +0.017 A 
ATOM     17  C   UNL     1      -4.632   0.310   5.211  0.00  0.00    +0.018 A 
ATOM     18  C   UNL     1      -5.877   0.311   4.607  0.00  0.00    +0.017 A 
ATOM     19  C   UNL     1      -5.982   0.122   3.242  0.00  0.00    +0.030 A 
ATOM     20  C   UNL     1      -4.844  -0.068   2.480  0.00  0.00    +0.109 A 
ATOM     21 BR   UNL     1      -4.487   0.569   7.079  0.00  0.00    -0.050 Br
ENDBRANCH  12  20
ENDBRANCH  10  12
ENDBRANCH   1  10
BRANCH   6  22
ATOM     22  N   UNL     1      -5.166   3.965   0.238  0.00  0.00    -0.340 N 
ATOM     23  H   UNL     1      -6.061   3.339   0.105  0.00  0.00    +0.146 HD
BRANCH  22  24
ATOM     24  C   UNL     1      -5.299   5.420   0.346  0.00  0.00    +0.129 C 
BRANCH  24  25
ATOM     25  C   UNL     1      -6.776   5.806   0.245  0.00  0.00    +0.174 C 
BRANCH  25  26
ATOM     26  O   UNL     1      -7.484   5.277   1.367  0.00  0.00    -0.393 OA
ATOM     27  H   UNL     1      -8.566   5.453   1.468  0.00  0.00    +0.209 HD
ENDBRANCH  25  26
ENDBRANCH  24  25
ENDBRANCH  22  24
ENDBRANCH   6  22
TORSDOF 8
