REMARK  Name = ZINC36028114
REMARK  14 active torsions:
REMARK  status: ('A' for Active; 'I' for Inactive)
REMARK    1  A    between atoms: C_1  and  C_2
REMARK    2  A    between atoms: C_2  and  C_3
REMARK    3  A    between atoms: C_3  and  C_5
REMARK    4  A    between atoms: C_3  and  C_6
REMARK    5  A    between atoms: N_10  and  C_28
REMARK    6  A    between atoms: N_15  and  S_18
REMARK    7  A    between atoms: S_18  and  C_21
REMARK    8  A    between atoms: C_24  and  C_27
REMARK    9  A    between atoms: C_28  and  C_29
REMARK   10  A    between atoms: C_29  and  C_30
REMARK   11  A    between atoms: C_33  and  O_38
REMARK   12  A    between atoms: C_34  and  O_36
REMARK   13  A    between atoms: O_36  and  C_37
REMARK   14  A    between atoms: O_38  and  C_39
REMARK                            x       y       z     vdW  Elec       q    Type
REMARK                         _______ _______ _______ _____ _____    ______ ____
ROOT
ATOM      1  C   UNL     1      -0.524  -1.760   0.063  0.00  0.00    +0.022 C 
ATOM      2  C   UNL     1      -0.079  -2.364  -1.252  0.00  0.00    +0.201 C 
ATOM      3  O   UNL     1       0.823  -1.953  -1.951  0.00  0.00    -0.277 OA
ATOM      4  N   UNL     1      -0.854  -3.437  -1.514  0.00  0.00    -0.313 N 
ATOM      5  C   UNL     1      -1.825  -3.616  -0.431  0.00  0.00    +0.006 C 
ATOM      6  N   UNL     1      -1.868  -2.336   0.310  0.00  0.00    +0.401 N 
ATOM      7  C   UNL     1      -3.205  -3.929  -1.004  0.00  0.00    +0.023 C 
ATOM      8  C   UNL     1      -3.141  -5.237  -1.799  0.00  0.00    +0.109 C 
ATOM      9  N   UNL     1      -2.583  -6.287  -0.936  0.00  0.00    -0.177 NA
ATOM     10  C   UNL     1      -1.292  -6.050  -0.278  0.00  0.00    +0.109 C 
ATOM     11  C   UNL     1      -1.372  -4.735   0.505  0.00  0.00    +0.023 C 
ATOM     12  H   UNL     1      -2.010  -2.497   1.296  0.00  0.00    -0.082 HD
ATOM     13  H   UNL     1      -2.587  -1.734  -0.061  0.00  0.00    -0.082 HD
ENDROOT
BRANCH   9  14
ATOM     14  S   UNL     1      -3.396  -7.712  -0.710  0.00  0.00    +0.061 S 
ATOM     15  O   UNL     1      -3.066  -8.165   0.596  0.00  0.00    -0.153 OA
ATOM     16  O   UNL     1      -4.737  -7.484  -1.120  0.00  0.00    -0.153 OA
BRANCH  14  17
ATOM     17  C   UNL     1      -2.717  -8.885  -1.836  0.00  0.00    +0.105 A 
ATOM     18  C   UNL     1      -3.226  -8.987  -3.117  0.00  0.00    +0.029 A 
ATOM     19  C   UNL     1      -2.693  -9.907  -4.001  0.00  0.00    +0.005 A 
ATOM     20  C   UNL     1      -1.651 -10.724  -3.604  0.00  0.00    -0.050 A 
ATOM     21  C   UNL     1      -1.141 -10.620  -2.323  0.00  0.00    +0.005 A 
ATOM     22  C   UNL     1      -1.671  -9.698  -1.440  0.00  0.00    +0.029 A 
ATOM     23  C   UNL     1      -1.070 -11.727  -4.567  0.00  0.00    +0.044 C 
ENDBRANCH  14  17
ENDBRANCH   9  14
BRANCH   1  24
ATOM     24  C   UNL     1      -0.609  -0.237  -0.053  0.00  0.00    -0.020 C 
ATOM     25  C   UNL     1      -1.563   0.136  -1.189  0.00  0.00    +0.006 C 
BRANCH  24  27
ATOM     26  C   UNL     1       0.719   1.860  -0.338  0.00  0.00    +0.004 C 
ATOM     27  C   UNL     1       0.781   0.331  -0.346  0.00  0.00    -0.001 C 
ENDBRANCH  24  27
ENDBRANCH   1  24
BRANCH   4  28
ATOM     28  C   UNL     1      -0.743  -4.291  -2.699  0.00  0.00    +0.110 C 
BRANCH  28  29
ATOM     29  C   UNL     1      -1.576  -3.696  -3.836  0.00  0.00    +0.054 C 
BRANCH  29  30
ATOM     30  C   UNL     1      -1.493  -4.595  -5.043  0.00  0.00    -0.042 A 
ATOM     31  C   UNL     1      -0.404  -4.513  -5.891  0.00  0.00    +0.007 A 
ATOM     32  C   UNL     1      -0.323  -5.335  -6.999  0.00  0.00    +0.049 A 
ATOM     33  C   UNL     1      -1.335  -6.244  -7.263  0.00  0.00    +0.161 A 
ATOM     34  C   UNL     1      -2.431  -6.327  -6.409  0.00  0.00    +0.162 A 
ATOM     35  C   UNL     1      -2.504  -5.503  -5.297  0.00  0.00    +0.053 A 
BRANCH  34  36
ATOM     36  O   UNL     1      -3.427  -7.218  -6.663  0.00  0.00    -0.491 OA
ATOM     37  C   UNL     1      -4.576  -7.166  -5.815  0.00  0.00    +0.277 C 
ENDBRANCH  34  36
BRANCH  33  38
ATOM     38  O   UNL     1      -1.257  -7.053  -8.353  0.00  0.00    -0.491 OA
ATOM     39  C   UNL     1      -0.055  -6.991  -9.122  0.00  0.00    +0.277 C 
ENDBRANCH  33  38
ENDBRANCH  29  30
ENDBRANCH  28  29
ENDBRANCH   4  28
TORSDOF 9
