REMARK  Name = ZINC51114134
REMARK  3 active torsions:
REMARK  status: ('A' for Active; 'I' for Inactive)
REMARK    1  A    between atoms: C_3  and  N_21
REMARK    2  A    between atoms: C_4  and  C_8
REMARK    3  A    between atoms: N_21  and  N_22
REMARK                            x       y       z     vdW  Elec       q    Type
REMARK                         _______ _______ _______ _____ _____    ______ ____
ROOT
ATOM      1  C   UNL     1      -0.016   1.432  -0.025  0.00  0.00    +0.022 A 
ATOM      2  C   UNL     1       0.871   1.594   1.020  0.00  0.00    +0.026 A 
ATOM      3  C   UNL     1       2.078   0.907   1.022  0.00  0.00    +0.053 A 
ATOM      4  C   UNL     1       2.390   0.047  -0.043  0.00  0.00    +0.060 A 
ATOM      5  C   UNL     1       1.482  -0.107  -1.094  0.00  0.00    +0.035 A 
ATOM      6  C   UNL     1       0.289   0.584  -1.079  0.00  0.00    +0.042 A 
ATOM      7 CL   UNL     1      -0.838   0.391  -2.385  0.00  0.00    -0.084 Cl
ENDROOT
BRANCH   4   8
ATOM      8  C   UNL     1       3.667  -0.688  -0.054  0.00  0.00    +0.249 C 
ATOM      9  O   UNL     1       4.718  -0.084   0.053  0.00  0.00    -0.270 OA
ATOM     10  N   UNL     1       3.672  -2.030  -0.181  0.00  0.00    -0.290 N 
ATOM     11  C   UNL     1       2.413  -2.755  -0.410  0.00  0.00    +0.136 C 
ATOM     12  C   UNL     1       2.354  -3.904   0.606  0.00  0.00    +0.179 C 
ATOM     13  O   UNL     1       3.533  -4.695   0.461  0.00  0.00    -0.373 OA
ATOM     14  C   UNL     1       4.760  -4.036   0.775  0.00  0.00    +0.139 C 
ATOM     15  C   UNL     1       4.925  -2.769  -0.098  0.00  0.00    +0.105 C 
ATOM     16  C   UNL     1       5.324  -3.332  -1.478  0.00  0.00    +0.025 C 
ATOM     17  C   UNL     1       6.263  -4.511  -1.141  0.00  0.00    +0.004 C 
ATOM     18  C   UNL     1       5.913  -4.954   0.303  0.00  0.00    +0.033 C 
ENDBRANCH   4   8
BRANCH   3  19
ATOM     19  N   UNL     1       2.973   1.069   2.072  0.00  0.00    -0.282 N 
ATOM     20  H   UNL     1       3.780   0.533   2.109  0.00  0.00    +0.166 HD
BRANCH  19  21
ATOM     21  N   UNL     1       2.714   1.983   3.054  0.00  0.00    -0.256 NA
ATOM     22  H   UNL     1       3.449   1.988   3.746  0.00  0.00    +0.140 HD
ATOM     23  H   UNL     1       2.578   2.904   2.664  0.00  0.00    +0.140 HD
ENDBRANCH  19  21
ENDBRANCH   3  19
TORSDOF 3
