REMARK  Name = ZINC33935996
REMARK  10 active torsions:
REMARK  status: ('A' for Active; 'I' for Inactive)
REMARK    1  A    between atoms: C_1  and  C_2
REMARK    2  A    between atoms: C_5  and  N_8
REMARK    3  A    between atoms: C_9  and  C_11
REMARK    4  A    between atoms: C_11  and  C_13
REMARK    5  A    between atoms: C_11  and  N_14
REMARK    6  A    between atoms: C_15  and  C_17
REMARK    7  A    between atoms: C_29  and  C_31
REMARK    8  A    between atoms: C_29  and  C_32
REMARK    9  A    between atoms: C_34  and  C_36
REMARK   10  A    between atoms: C_34  and  C_37
REMARK                            x       y       z     vdW  Elec       q    Type
REMARK                         _______ _______ _______ _____ _____    ______ ____
ROOT
ATOM      1  N   UNL     1       0.420  -6.845   2.495  0.00  0.00    -0.302 N 
ATOM      2  C   UNL     1       0.051  -8.108   2.788  0.00  0.00    +0.245 C 
ATOM      3  O   UNL     1      -0.373  -8.834   1.914  0.00  0.00    -0.273 OA
ATOM      4  H   UNL     1       0.758  -6.264   3.195  0.00  0.00    +0.150 HD
ENDROOT
BRANCH   2   5
ATOM      5  C   UNL     1       0.165  -8.617   4.202  0.00  0.00    +0.238 C 
ATOM      6  C   UNL     1       1.619  -8.672   4.606  0.00  0.00    +0.191 C 
ATOM      7  C   UNL     1       1.725  -9.236   6.059  0.00  0.00    +0.187 C 
ATOM      8  C   UNL     1       1.233 -10.652   5.957  0.00  0.00    +0.209 C 
ATOM      9  C   UNL     1      -0.270 -10.516   5.564  0.00  0.00    +0.286 C 
ATOM     10  O   UNL     1      -0.389  -9.955   4.284  0.00  0.00    -0.333 OA
ATOM     11  O   UNL     1      -0.770 -11.816   5.818  0.00  0.00    -0.318 OA
ATOM     12  C   UNL     1       0.059 -12.353   6.875  0.00  0.00    +0.168 C 
ATOM     13  O   UNL     1       1.121 -11.398   7.172  0.00  0.00    -0.338 OA
ATOM     14  C   UNL     1      -0.791 -12.596   8.123  0.00  0.00    +0.074 C 
ATOM     15  C   UNL     1       0.688 -13.671   6.417  0.00  0.00    +0.074 C 
ATOM     16  O   UNL     1       3.093  -8.991   6.353  0.00  0.00    -0.341 OA
ATOM     17  C   UNL     1       3.456  -7.818   5.588  0.00  0.00    +0.166 C 
ATOM     18  O   UNL     1       2.325  -7.445   4.767  0.00  0.00    -0.340 OA
ATOM     19  C   UNL     1       3.795  -6.668   6.539  0.00  0.00    +0.074 C 
ATOM     20  C   UNL     1       4.667  -8.131   4.708  0.00  0.00    +0.074 C 
ENDBRANCH   2   5
BRANCH   1  21
ATOM     21  C   UNL     1       0.309  -6.349   1.121  0.00  0.00    +0.156 C 
ATOM     22  C   UNL     1       1.561  -6.742   0.335  0.00  0.00    +0.038 C 
BRANCH  21  24
ATOM     23  N   UNL     1       0.059  -4.170  -0.021  0.00  0.00    -0.284 N 
ATOM     24  C   UNL     1       0.175  -4.848   1.138  0.00  0.00    +0.237 C 
ATOM     25  O   UNL     1       0.173  -4.251   2.193  0.00  0.00    -0.273 OA
ATOM     26  H   UNL     1      -0.007  -4.651  -0.861  0.00  0.00    +0.155 HD
BRANCH  23  31
ATOM     27  C   UNL     1      -0.046   1.502   0.014  0.00  0.00    +0.044 C 
ATOM     28  C   UNL     1      -0.018  -0.004   0.005  0.00  0.00    -0.050 A 
ATOM     29  C   UNL     1      -0.605  -0.712   1.038  0.00  0.00    +0.005 A 
ATOM     30  C   UNL     1      -0.581  -2.093   1.033  0.00  0.00    +0.023 A 
ATOM     31  C   UNL     1       0.032  -2.771  -0.013  0.00  0.00    +0.033 A 
ATOM     32  C   UNL     1       0.620  -2.058  -1.049  0.00  0.00    +0.023 A 
ATOM     33  C   UNL     1       0.588  -0.677  -1.040  0.00  0.00    +0.005 A 
ENDBRANCH  23  31
ENDBRANCH  21  24
ENDBRANCH   1  21
TORSDOF 4
