REMARK  Name = ZINC20155053
REMARK  13 active torsions:
REMARK  status: ('A' for Active; 'I' for Inactive)
REMARK    1  A    between atoms: C_1  and  C_2
REMARK    2  A    between atoms: C_2  and  O_3
REMARK    3  A    between atoms: O_3  and  C_4
REMARK    4  A    between atoms: C_4  and  C_6
REMARK    5  A    between atoms: C_9  and  N_12
REMARK    6  A    between atoms: C_13  and  C_15
REMARK    7  A    between atoms: C_17  and  N_35
REMARK    8  A    between atoms: C_20  and  N_21
REMARK    9  A    between atoms: C_22  and  C_24
REMARK   10  A    between atoms: C_24  and  N_25
REMARK   11  A    between atoms: N_25  and  C_26
REMARK   12  A    between atoms: C_26  and  C_28
REMARK   13  A    between atoms: C_26  and  C_29
REMARK                            x       y       z     vdW  Elec       q    Type
REMARK                         _______ _______ _______ _____ _____    ______ ____
ROOT
ATOM      1  C   UNL     1      -3.616   1.850  -0.028  0.00  0.00    +0.060 A 
ATOM      2  C   UNL     1      -2.418   1.133   0.011  0.00  0.00    +0.047 A 
ATOM      3  C   UNL     1      -1.217   1.805   0.087  0.00  0.00    +0.127 A 
ATOM      4  C   UNL     1      -1.192   3.190   0.131  0.00  0.00    +0.034 A 
ATOM      5  C   UNL     1      -2.367   3.912   0.087  0.00  0.00    +0.026 A 
ATOM      6  C   UNL     1      -3.587   3.252   0.011  0.00  0.00    +0.046 A 
ENDROOT
BRANCH   1   8
ATOM      7  N   UNL     1      -4.926  -0.203  -0.248  0.00  0.00    -0.281 N 
ATOM      8  C   UNL     1      -4.905   1.138  -0.109  0.00  0.00    +0.250 C 
ATOM      9  O   UNL     1      -5.948   1.760  -0.052  0.00  0.00    -0.270 OA
ATOM     10  H   UNL     1      -3.987  -0.755  -0.397  0.00  0.00    +0.155 HD
BRANCH   7  14
ATOM     11  C   UNL     1      -8.548  -2.253  -0.112  0.00  0.00    +0.059 A 
ATOM     12  C   UNL     1      -8.414  -1.024   0.540  0.00  0.00    +0.017 A 
ATOM     13  C   UNL     1      -7.216  -0.349   0.493  0.00  0.00    +0.024 A 
ATOM     14  C   UNL     1      -6.138  -0.889  -0.203  0.00  0.00    +0.034 A 
ATOM     15  C   UNL     1      -6.270  -2.109  -0.858  0.00  0.00    +0.024 A 
ATOM     16  C   UNL     1      -7.463  -2.792  -0.811  0.00  0.00    +0.017 A 
BRANCH  11  17
ATOM     17  C   UNL     1      -9.831  -2.980  -0.064  0.00  0.00    +0.339 C 
ATOM     18  O   UNL     1     -10.772  -2.510   0.544  0.00  0.00    -0.245 OA
BRANCH  17  19
ATOM     19  O   UNL     1      -9.958  -4.164  -0.693  0.00  0.00    -0.461 OA
BRANCH  19  21
ATOM     20  C   UNL     1     -11.202  -6.144  -1.373  0.00  0.00    +0.048 C 
ATOM     21  C   UNL     1     -11.249  -4.823  -0.603  0.00  0.00    +0.229 C 
ENDBRANCH  19  21
ENDBRANCH  17  19
ENDBRANCH  11  17
ENDBRANCH   7  14
ENDBRANCH   1   8
BRANCH   6  22
ATOM     22  N   UNL     1      -4.774   3.979  -0.028  0.00  0.00    -0.286 N 
ATOM     23  C   UNL     1      -4.818   5.164  -0.668  0.00  0.00    +0.200 C 
ATOM     24  O   UNL     1      -3.854   5.553  -1.292  0.00  0.00    -0.278 OA
ATOM     25  H   UNL     1      -5.676   3.586   0.464  0.00  0.00    +0.155 HD
BRANCH  23  26
ATOM     26  C   UNL     1      -6.067   6.007  -0.609  0.00  0.00    +0.016 C 
BRANCH  26  27
ATOM     27  N   UNL     1      -5.862   7.239  -1.381  0.00  0.00    +0.389 N 
ATOM     28  H   UNL     1      -5.019   7.803  -0.956  0.00  0.00    -0.084 HD
ATOM     29  H   UNL     1      -5.642   6.984  -2.428  0.00  0.00    -0.084 HD
BRANCH  27  30
ATOM     30  C   UNL     1      -7.061   8.088  -1.346  0.00  0.00    -0.043 C 
ATOM     31  C   UNL     1      -8.034   7.641  -2.439  0.00  0.00    -0.009 C 
BRANCH  30  32
ATOM     32  C   UNL     1      -6.668   9.524  -1.578  0.00  0.00    -0.062 A 
ATOM     33  C   UNL     1      -5.697   9.831  -2.512  0.00  0.00    +0.002 A 
ATOM     34  C   UNL     1      -5.339  11.149  -2.729  0.00  0.00    +0.000 A 
ATOM     35  C   UNL     1      -5.946  12.158  -2.005  0.00  0.00    +0.000 A 
ATOM     36  C   UNL     1      -6.914  11.850  -1.067  0.00  0.00    +0.000 A 
ATOM     37  C   UNL     1      -7.275  10.532  -0.854  0.00  0.00    +0.002 A 
ENDBRANCH  30  32
ENDBRANCH  27  30
ENDBRANCH  26  27
ENDBRANCH  23  26
ENDBRANCH   6  22
BRANCH   3  38
ATOM     38  N   UNL     1       0.051   1.043   0.129  0.00  0.00    +0.056 N 
ATOM     39  O   UNL     1       0.032  -0.174   0.096  0.00  0.00    -0.126 OA
ATOM     40  O   UNL     1       1.115   1.634   0.191  0.00  0.00    -0.126 OA
ENDBRANCH   3  38
TORSDOF 11
