REMARK  Name = ZINC20528321
REMARK  9 active torsions:
REMARK  status: ('A' for Active; 'I' for Inactive)
REMARK    1  A    between atoms: C_1  and  C_2
REMARK    2  A    between atoms: C_2  and  C_4
REMARK    3  A    between atoms: C_2  and  N_10
REMARK    4  A    between atoms: C_11  and  C_13
REMARK    5  A    between atoms: C_13  and  S_14
REMARK    6  A    between atoms: S_14  and  C_15
REMARK    7  A    between atoms: N_19  and  N_20
REMARK    8  A    between atoms: N_21  and  N_22
REMARK    9  A    between atoms: C_23  and  C_24
REMARK                            x       y       z     vdW  Elec       q    Type
REMARK                         _______ _______ _______ _____ _____    ______ ____
ROOT
ATOM      1  C   UNL     1       0.639   3.495   0.015  0.00  0.00    +0.210 A 
ATOM      2  N   UNL     1      -0.673   3.478   0.027  0.00  0.00    -0.119 NA
ATOM      3  N   UNL     1      -1.088   2.139   0.018  0.00  0.00    -0.109 NA
ATOM      4  C   UNL     1      -0.017   1.383   0.010  0.00  0.00    +0.254 A 
ATOM      5  N   UNL     1       1.078   2.202   0.004  0.00  0.00    -0.211 N 
ATOM      6  N   UNL     1       0.002  -0.004   0.002  0.00  0.00    -0.204 N 
ATOM      7  H   UNL     1       0.962  -0.541  -0.010  0.00  0.00    +0.177 HD
ENDROOT
BRANCH   5   8
ATOM      8  N   UNL     1       2.383   1.797  -0.011  0.00  0.00    -0.294 N 
ATOM      9  H   UNL     1       2.626   0.725  -0.019  0.00  0.00    +0.163 HD
ATOM     10  H   UNL     1       3.190   2.544  -0.014  0.00  0.00    +0.163 HD
ENDBRANCH   5   8
BRANCH   6  11
ATOM     11  N   UNL     1      -1.202  -0.721   0.010  0.00  0.00    -0.188 NA
ATOM     12  C   UNL     1      -1.184  -2.019   0.003  0.00  0.00    +0.138 C 
BRANCH  12  13
ATOM     13  C   UNL     1      -2.450  -2.774   0.011  0.00  0.00    -0.005 A 
ATOM     14  C   UNL     1      -3.671  -2.095   0.032  0.00  0.00    +0.011 A 
ATOM     15  C   UNL     1      -4.853  -2.807   0.033  0.00  0.00    +0.020 A 
ATOM     16  C   UNL     1      -4.830  -4.191   0.026  0.00  0.00    +0.041 A 
ATOM     17  C   UNL     1      -3.623  -4.871   0.011  0.00  0.00    +0.020 A 
ATOM     18  C   UNL     1      -2.435  -4.171   0.003  0.00  0.00    +0.011 A 
ATOM     19 CL   UNL     1      -6.322  -5.080   0.034  0.00  0.00    -0.084 Cl
ENDBRANCH  12  13
ENDBRANCH   6  11
BRANCH   1  20
ATOM     20  S   UNL     1       1.655   4.934   0.013  0.00  0.00    -0.075 S 
BRANCH  20  21
ATOM     21  C   UNL     1       0.471   6.308   0.032  0.00  0.00    +0.173 C 
BRANCH  21  23
ATOM     22  N   UNL     1       0.540   8.781   0.045  0.00  0.00    -0.308 N 
ATOM     23  C   UNL     1       1.219   7.616   0.032  0.00  0.00    +0.224 C 
ATOM     24  O   UNL     1       2.431   7.622   0.021  0.00  0.00    -0.275 OA
ATOM     25  H   UNL     1      -0.560   8.776   0.055  0.00  0.00    +0.149 HD
BRANCH  22  27
ATOM     26  C   UNL     1       1.616  10.441  -1.393  0.00  0.00    +0.033 C 
ATOM     27  C   UNL     1       1.267  10.053   0.045  0.00  0.00    +0.100 C 
BRANCH  27  28
ATOM     28  C   UNL     1       0.404  11.124   0.659  0.00  0.00    -0.027 A 
ATOM     29  C   UNL     1      -0.948  11.171   0.375  0.00  0.00    +0.005 A 
ATOM     30  C   UNL     1      -1.740  12.151   0.942  0.00  0.00    +0.000 A 
ATOM     31  C   UNL     1      -1.179  13.091   1.786  0.00  0.00    +0.000 A 
ATOM     32  C   UNL     1       0.174  13.048   2.067  0.00  0.00    +0.000 A 
ATOM     33  C   UNL     1       0.966  12.065   1.503  0.00  0.00    +0.005 A 
ENDBRANCH  27  28
ENDBRANCH  22  27
ENDBRANCH  21  23
ENDBRANCH  20  21
ENDBRANCH   1  20
TORSDOF 8
