REMARK  Name = ZINC14943917
REMARK  14 active torsions:
REMARK  status: ('A' for Active; 'I' for Inactive)
REMARK    1  A    between atoms: C_1  and  C_2
REMARK    2  A    between atoms: C_2  and  C_3
REMARK    3  A    between atoms: C_6  and  C_9
REMARK    4  A    between atoms: C_11  and  C_32
REMARK    5  A    between atoms: N_14  and  O_15
REMARK    6  A    between atoms: C_17  and  C_30
REMARK    7  A    between atoms: C_17  and  O_31
REMARK    8  A    between atoms: C_18  and  C_20
REMARK    9  A    between atoms: C_20  and  O_22
REMARK   10  A    between atoms: O_22  and  C_23
REMARK   11  A    between atoms: C_23  and  C_24
REMARK   12  A    between atoms: C_32  and  O_34
REMARK   13  A    between atoms: O_34  and  C_35
REMARK   14  A    between atoms: C_35  and  C_36
REMARK                            x       y       z     vdW  Elec       q    Type
REMARK                         _______ _______ _______ _____ _____    ______ ____
ROOT
ATOM      1  C   UNL     1       2.310  -0.146  -5.010  0.00  0.00    +0.055 C 
ATOM      2  C   UNL     1       3.680  -0.791  -5.243  0.00  0.00    +0.154 C 
ATOM      3  C   UNL     1       3.505  -2.294  -5.272  0.00  0.00    +0.074 C 
ATOM      4  N   UNL     1       3.974  -2.990  -6.238  0.00  0.00    -0.096 NA
ATOM      5  C   UNL     1       2.762  -2.952  -4.131  0.00  0.00    +0.090 C 
ATOM      6  C   UNL     1       1.425  -2.228  -3.938  0.00  0.00    +0.082 C 
ATOM      7  C   UNL     1       1.680  -0.732  -3.745  0.00  0.00    +0.138 C 
ATOM      8  C   UNL     1       0.547  -2.440  -5.173  0.00  0.00    +0.042 C 
ENDROOT
BRANCH   1  12
ATOM      9  C   UNL     1       2.787   4.073  -4.542  0.00  0.00    -0.048 A 
ATOM     10  C   UNL     1       3.107   3.222  -3.501  0.00  0.00    +0.004 A 
ATOM     11  C   UNL     1       2.952   1.857  -3.652  0.00  0.00    +0.004 A 
ATOM     12  C   UNL     1       2.478   1.343  -4.844  0.00  0.00    -0.042 A 
ATOM     13  C   UNL     1       2.157   2.194  -5.885  0.00  0.00    +0.004 A 
ATOM     14  C   UNL     1       2.308   3.560  -5.732  0.00  0.00    +0.004 A 
BRANCH   9  16
ATOM     15  C   UNL     1       1.663   6.162  -3.820  0.00  0.00    +0.009 C 
ATOM     16  C   UNL     1       2.955   5.562  -4.377  0.00  0.00    +0.032 C 
ENDBRANCH   9  16
ENDBRANCH   1  12
BRANCH   4  17
ATOM     17  O   UNL     1       4.668  -2.355  -7.297  0.00  0.00    -0.409 OA
ATOM     18  H   UNL     1       4.984  -2.963  -7.979  0.00  0.00    +0.328 HD
ENDBRANCH   4  17
BRANCH   7  19
ATOM     19  C   UNL     1       0.375  -0.033  -3.466  0.00  0.00    +0.314 C 
ATOM     20  O   UNL     1      -0.011   0.843  -4.202  0.00  0.00    -0.250 OA
BRANCH  19  21
ATOM     21  O   UNL     1      -0.359  -0.384  -2.398  0.00  0.00    -0.460 OA
BRANCH  21  22
ATOM     22  C   UNL     1      -1.586   0.321  -2.194  0.00  0.00    +0.267 C 
BRANCH  22  23
ATOM     23  C   UNL     1      -2.268  -0.206  -0.958  0.00  0.00    -0.010 A 
ATOM     24  C   UNL     1      -3.153  -1.263  -1.054  0.00  0.00    +0.007 A 
ATOM     25  C   UNL     1      -3.779  -1.746   0.081  0.00  0.00    +0.000 A 
ATOM     26  C   UNL     1      -3.518  -1.172   1.311  0.00  0.00    +0.000 A 
ATOM     27  C   UNL     1      -2.632  -0.115   1.407  0.00  0.00    +0.000 A 
ATOM     28  C   UNL     1      -2.003   0.365   0.273  0.00  0.00    +0.007 A 
ENDBRANCH  22  23
ENDBRANCH  21  22
ENDBRANCH  19  21
ENDBRANCH   7  19
BRANCH   6  29
ATOM     29  O   UNL     1       0.762  -2.751  -2.786  0.00  0.00    -0.388 OA
ATOM     30  H   UNL     1       0.569  -3.697  -2.839  0.00  0.00    +0.210 HD
ENDBRANCH   6  29
BRANCH   2  31
ATOM     31  C   UNL     1       4.617  -0.409  -4.125  0.00  0.00    +0.317 C 
ATOM     32  O   UNL     1       4.578  -1.004  -3.075  0.00  0.00    -0.250 OA
BRANCH  31  33
ATOM     33  O   UNL     1       5.494   0.593  -4.298  0.00  0.00    -0.459 OA
BRANCH  33  34
ATOM     34  C   UNL     1       6.351   0.901  -3.197  0.00  0.00    +0.267 C 
BRANCH  34  35
ATOM     35  C   UNL     1       7.259   2.043  -3.572  0.00  0.00    -0.010 A 
ATOM     36  C   UNL     1       8.483   1.788  -4.162  0.00  0.00    +0.007 A 
ATOM     37  C   UNL     1       9.317   2.835  -4.506  0.00  0.00    +0.000 A 
ATOM     38  C   UNL     1       8.926   4.139  -4.262  0.00  0.00    +0.000 A 
ATOM     39  C   UNL     1       7.702   4.394  -3.674  0.00  0.00    +0.000 A 
ATOM     40  C   UNL     1       6.866   3.347  -3.333  0.00  0.00    +0.007 A 
ENDBRANCH  34  35
ENDBRANCH  33  34
ENDBRANCH  31  33
ENDBRANCH   2  31
TORSDOF 12
