REMARK  Name = ZINC16848372
REMARK  9 active torsions:
REMARK  status: ('A' for Active; 'I' for Inactive)
REMARK    1  A    between atoms: C_4  and  S_7
REMARK    2  A    between atoms: S_7  and  N_10
REMARK    3  A    between atoms: C_13  and  C_16
REMARK    4  A    between atoms: C_16  and  C_17
REMARK    5  A    between atoms: C_17  and  C_18
REMARK    6  A    between atoms: N_20  and  C_21
REMARK    7  A    between atoms: C_21  and  C_22
REMARK    8  A    between atoms: C_25  and  S_28
REMARK    9  A    between atoms: S_28  and  N_31
REMARK                            x       y       z     vdW  Elec       q    Type
REMARK                         _______ _______ _______ _____ _____    ______ ____
ROOT
ATOM      1  C   UNL     1      -2.182   1.613  -1.160  0.00  0.00    +0.102 C 
ENDROOT
BRANCH   1   2
ATOM      2  C   UNL     1      -3.488   2.366  -1.150  0.00  0.00    +0.214 C 
ATOM      3  O   UNL     1      -3.708   3.187  -0.284  0.00  0.00    -0.276 OA
ATOM      4  N   UNL     1      -4.411   2.128  -2.103  0.00  0.00    -0.311 N 
ATOM      5  H   UNL     1      -4.235   1.472  -2.795  0.00  0.00    +0.149 HD
BRANCH   4   6
ATOM      6  C   UNL     1      -5.679   2.860  -2.092  0.00  0.00    +0.139 C 
BRANCH   6   7
ATOM      7  C   UNL     1      -6.528   2.411  -3.254  0.00  0.00    -0.030 A 
ATOM      8  C   UNL     1      -6.434   3.061  -4.470  0.00  0.00    +0.007 A 
ATOM      9  C   UNL     1      -7.209   2.647  -5.537  0.00  0.00    +0.029 A 
ATOM     10  C   UNL     1      -8.084   1.587  -5.386  0.00  0.00    +0.105 A 
ATOM     11  C   UNL     1      -8.181   0.940  -4.168  0.00  0.00    +0.029 A 
ATOM     12  C   UNL     1      -7.403   1.352  -3.103  0.00  0.00    +0.007 A 
BRANCH  10  13
ATOM     13  S   UNL     1      -9.075   1.062  -6.745  0.00  0.00    +0.056 S 
ATOM     14  O   UNL     1      -8.401   1.479  -7.924  0.00  0.00    -0.153 OA
ATOM     15  O   UNL     1      -9.412  -0.297  -6.500  0.00  0.00    -0.153 OA
BRANCH  13  16
ATOM     16  N   UNL     1     -10.490   1.919  -6.680  0.00  0.00    -0.204 NA
ATOM     17  H   UNL     1     -10.632   2.568  -5.972  0.00  0.00    +0.144 HD
ATOM     18  H   UNL     1     -11.177   1.774  -7.349  0.00  0.00    +0.144 HD
ENDBRANCH  13  16
ENDBRANCH  10  13
ENDBRANCH   6   7
ENDBRANCH   4   6
ENDBRANCH   1   2
BRANCH   1  19
ATOM     19  C   UNL     1      -1.321   2.069   0.020  0.00  0.00    +0.065 C 
BRANCH  19  23
ATOM     20  N   UNL     1       1.346  -2.042  -0.022  0.00  0.00    -0.194 N 
ATOM     21  C   UNL     1       1.140  -0.671  -0.012  0.00  0.00    +0.178 A 
ATOM     22  N   UNL     1       0.002  -0.004   0.002  0.00  0.00    -0.229 NA
ATOM     23  C   UNL     1      -0.016   1.316   0.009  0.00  0.00    +0.051 A 
ATOM     24  C   UNL     1       1.166   1.978   0.002  0.00  0.00    +0.071 A 
ATOM     25  S   UNL     1       2.314   0.609  -0.017  0.00  0.00    -0.059 S 
ATOM     26  H   UNL     1       0.588  -2.646  -0.018  0.00  0.00    +0.176 HD
BRANCH  20  27
ATOM     27  S   UNL     1       2.888  -2.647  -0.040  0.00  0.00    +0.074 S 
ATOM     28  O   UNL     1       2.768  -4.063  -0.019  0.00  0.00    -0.150 OA
ATOM     29  O   UNL     1       3.583  -1.956  -1.068  0.00  0.00    -0.150 OA
BRANCH  27  33
ATOM     30  C   UNL     1       4.839  -1.457   3.867  0.00  0.00    +0.000 A 
ATOM     31  C   UNL     1       4.149  -2.651   3.775  0.00  0.00    +0.002 A 
ATOM     32  C   UNL     1       3.553  -3.014   2.582  0.00  0.00    +0.029 A 
ATOM     33  C   UNL     1       3.647  -2.184   1.481  0.00  0.00    +0.109 A 
ATOM     34  C   UNL     1       4.342  -0.992   1.572  0.00  0.00    +0.029 A 
ATOM     35  C   UNL     1       4.933  -0.626   2.767  0.00  0.00    +0.002 A 
ENDBRANCH  27  33
ENDBRANCH  20  27
ENDBRANCH  19  23
ENDBRANCH   1  19
TORSDOF 9
