REMARK  Name = ZINC03658642
REMARK  7 active torsions:
REMARK  status: ('A' for Active; 'I' for Inactive)
REMARK    1  A    between atoms: C_1  and  C_2
REMARK    2  A    between atoms: C_6  and  N_8
REMARK    3  A    between atoms: C_9  and  C_11
REMARK    4  A    between atoms: N_22  and  C_37
REMARK    5  A    between atoms: C_23  and  C_25
REMARK    6  A    between atoms: N_27  and  C_28
REMARK    7  A    between atoms: C_34  and  C_36
REMARK                            x       y       z     vdW  Elec       q    Type
REMARK                         _______ _______ _______ _____ _____    ______ ____
ROOT
ATOM      1  C   UNL     1       1.039  -5.903   3.903  0.00  0.00    +0.123 C 
ATOM      2  C   UNL     1      -0.211  -5.030   4.247  0.00  0.00    +0.155 C 
ATOM      3  C   UNL     1      -1.123  -5.052   3.015  0.00  0.00    +0.004 C 
ATOM      4  C   UNL     1      -1.681  -6.268   2.954  0.00  0.00    +0.009 C 
ATOM      5  C   UNL     1      -1.085  -6.987   4.111  0.00  0.00    +0.127 C 
ATOM      6  C   UNL     1       0.417  -7.304   3.763  0.00  0.00    +0.128 C 
ATOM      7  C   UNL     1       0.787  -8.273   4.851  0.00  0.00    +0.224 C 
ATOM      8  O   UNL     1       1.911  -8.470   5.262  0.00  0.00    -0.275 OA
ATOM      9  N   UNL     1      -0.334  -8.891   5.301  0.00  0.00    -0.283 N 
ATOM     10  C   UNL     1      -1.559  -8.310   4.627  0.00  0.00    +0.199 C 
ATOM     11  O   UNL     1      -0.927  -5.954   5.144  0.00  0.00    -0.358 OA
ENDROOT
BRANCH   9  12
ATOM     12  C   UNL     1      -0.346  -9.984   6.277  0.00  0.00    +0.077 C 
ATOM     13  C   UNL     1       0.284  -9.506   7.587  0.00  0.00    +0.022 C 
ATOM     14  C   UNL     1       0.271 -10.647   8.605  0.00  0.00    +0.002 C 
ATOM     15  C   UNL     1       1.072 -11.830   8.056  0.00  0.00    +0.000 C 
ATOM     16  C   UNL     1       0.442 -12.308   6.746  0.00  0.00    +0.002 C 
ATOM     17  C   UNL     1       0.454 -11.166   5.728  0.00  0.00    +0.022 C 
ENDBRANCH   9  12
BRANCH   1  19
ATOM     18  N   UNL     1       2.211  -4.231   2.507  0.00  0.00    -0.285 N 
ATOM     19  C   UNL     1       1.666  -5.460   2.607  0.00  0.00    +0.224 C 
ATOM     20  O   UNL     1       1.680  -6.209   1.653  0.00  0.00    -0.275 OA
ATOM     21  H   UNL     1       2.257  -3.657   3.287  0.00  0.00    +0.155 HD
BRANCH  18  27
ATOM     22  C   UNL     1       2.945  -0.561  -0.680  0.00  0.00    +0.044 C 
ATOM     23  C   UNL     1       3.078  -2.011  -0.292  0.00  0.00    -0.049 A 
ATOM     24  C   UNL     1       3.695  -2.902  -1.151  0.00  0.00    +0.003 A 
ATOM     25  C   UNL     1       3.820  -4.233  -0.799  0.00  0.00    +0.002 A 
ATOM     26  C   UNL     1       3.329  -4.677   0.413  0.00  0.00    +0.023 A 
ATOM     27  C   UNL     1       2.710  -3.785   1.278  0.00  0.00    +0.034 A 
ATOM     28  C   UNL     1       2.590  -2.447   0.923  0.00  0.00    +0.026 A 
ENDBRANCH  18  27
ENDBRANCH   1  19
BRANCH  10  29
ATOM     29  C   UNL     1      -2.041  -9.178   3.493  0.00  0.00    +0.237 C 
ATOM     30  O   UNL     1      -1.271  -9.934   2.939  0.00  0.00    -0.274 OA
ATOM     31  N   UNL     1      -3.327  -9.113   3.095  0.00  0.00    -0.311 N 
ATOM     32  H   UNL     1      -3.960  -8.567   3.587  0.00  0.00    +0.149 HD
BRANCH  31  33
ATOM     33  C   UNL     1      -3.768  -9.869   1.920  0.00  0.00    +0.076 C 
ATOM     34  C   UNL     1      -3.640  -8.992   0.673  0.00  0.00    +0.022 C 
ATOM     35  C   UNL     1      -4.511  -7.745   0.834  0.00  0.00    +0.002 C 
ATOM     36  C   UNL     1      -5.971  -8.162   1.015  0.00  0.00    +0.000 C 
ATOM     37  C   UNL     1      -6.100  -9.039   2.263  0.00  0.00    +0.005 C 
ATOM     38  C   UNL     1      -5.229 -10.286   2.102  0.00  0.00    +0.006 C 
ATOM     39  C   UNL     1      -5.358 -11.162   3.349  0.00  0.00    +0.009 C 
ENDBRANCH  31  33
ENDBRANCH  10  29
TORSDOF 5
