REMARK  Name = ZINC63153481
REMARK  8 active torsions:
REMARK  status: ('A' for Active; 'I' for Inactive)
REMARK    1  A    between atoms: C_1  and  C_2
REMARK    2  A    between atoms: C_2  and  O_3
REMARK    3  A    between atoms: O_3  and  C_4
REMARK    4  A    between atoms: C_4  and  C_5
REMARK    5  A    between atoms: C_5  and  S_6
REMARK    6  A    between atoms: S_6  and  N_9
REMARK    7  A    between atoms: N_9  and  C_10
REMARK    8  A    between atoms: C_13  and  N_17
REMARK                            x       y       z     vdW  Elec       q    Type
REMARK                         _______ _______ _______ _____ _____    ______ ____
ROOT
ATOM      1  C   UNL     1       2.622  -5.710   4.487  0.00  0.00    +0.102 A 
ATOM      2  C   UNL     1       3.377  -6.610   3.746  0.00  0.00    +0.045 A 
ATOM      3  C   UNL     1       3.541  -7.907   4.192  0.00  0.00    +0.040 A 
ATOM      4  C   UNL     1       2.951  -8.312   5.383  0.00  0.00    +0.027 A 
ATOM      5  C   UNL     1       2.196  -7.413   6.124  0.00  0.00    +0.040 A 
ATOM      6  C   UNL     1       2.037  -6.114   5.681  0.00  0.00    +0.045 A 
ATOM      7 BR   UNL     1       1.016  -4.887   6.695  0.00  0.00    -0.048 Br
ATOM      8 BR   UNL     1       4.180  -6.059   2.125  0.00  0.00    -0.048 Br
ENDROOT
BRANCH   4   9
ATOM      9  N   UNL     1       3.116  -9.626   5.834  0.00  0.00    -0.358 N 
ATOM     10  H   UNL     1       3.643 -10.255   5.316  0.00  0.00    +0.142 HD
ATOM     11  H   UNL     1       2.704  -9.909   6.666  0.00  0.00    +0.142 HD
ENDBRANCH   4   9
BRANCH   1  12
ATOM     12  N   UNL     1       2.456  -4.395   4.035  0.00  0.00    -0.100 NA
BRANCH  12  13
ATOM     13  S   UNL     1       1.485  -4.085   2.729  0.00  0.00    +0.065 S 
ATOM     14  O   UNL     1       0.208  -4.588   3.100  0.00  0.00    -0.153 OA
ATOM     15  O   UNL     1       2.184  -4.631   1.620  0.00  0.00    -0.153 OA
BRANCH  13  16
ATOM     16  C   UNL     1       1.433  -2.276   2.606  0.00  0.00    +0.218 C 
BRANCH  16  17
ATOM     17  C   UNL     1       0.554  -1.871   1.421  0.00  0.00    +0.184 C 
BRANCH  17  18
ATOM     18  O   UNL     1       0.513  -0.446   1.324  0.00  0.00    -0.378 OA
BRANCH  18  20
ATOM     19  C   UNL     1      -0.258   1.570   0.236  0.00  0.00    +0.034 C 
ATOM     20  C   UNL     1      -0.286   0.040   0.243  0.00  0.00    +0.156 C 
ENDBRANCH  18  20
ENDBRANCH  17  18
ENDBRANCH  16  17
ENDBRANCH  13  16
ENDBRANCH  12  13
ENDBRANCH   1  12
TORSDOF 7
