REMARK  Name = ZINC41001784
REMARK  16 active torsions:
REMARK  status: ('A' for Active; 'I' for Inactive)
REMARK    1  A    between atoms: C_1  and  C_2
REMARK    2  A    between atoms: C_2  and  O_3
REMARK    3  A    between atoms: O_3  and  C_4
REMARK    4  A    between atoms: C_6  and  C_14
REMARK    5  A    between atoms: C_9  and  O_10
REMARK    6  A    between atoms: O_10  and  C_11
REMARK    7  A    between atoms: C_11  and  C_12
REMARK    8  A    between atoms: C_16  and  C_28
REMARK    9  A    between atoms: C_17  and  C_27
REMARK   10  A    between atoms: C_22  and  S_24
REMARK   11  A    between atoms: S_24  and  C_25
REMARK   12  A    between atoms: C_25  and  C_26
REMARK   13  A    between atoms: C_28  and  O_30
REMARK   14  A    between atoms: O_30  and  C_31
REMARK   15  A    between atoms: C_31  and  C_32
REMARK   16  A    between atoms: C_31  and  C_33
REMARK                            x       y       z     vdW  Elec       q    Type
REMARK                         _______ _______ _______ _____ _____    ______ ____
ROOT
ATOM      1  C   UNL     1      -0.342  -4.986   0.485  0.00  0.00    +0.179 C 
ATOM      2  C   UNL     1       0.706  -5.804   1.190  0.00  0.00    +0.082 C 
ATOM      3  C   UNL     1       0.942  -7.095   0.904  0.00  0.00    +0.020 C 
ATOM      4  N   UNL     1       0.230  -7.774  -0.052  0.00  0.00    -0.287 N 
ATOM      5  C   UNL     1      -0.921  -7.171  -0.540  0.00  0.00    +0.219 A 
ATOM      6  N   UNL     1      -1.206  -5.868  -0.294  0.00  0.00    -0.220 N 
ATOM      7  N   UNL     1      -2.424  -5.601  -0.918  0.00  0.00    -0.141 NA
ATOM      8  C   UNL     1      -2.805  -6.718  -1.499  0.00  0.00    +0.210 A 
ATOM      9  N   UNL     1      -1.886  -7.667  -1.266  0.00  0.00    -0.187 NA
ATOM     10  C   UNL     1       2.024  -7.822   1.660  0.00  0.00    +0.061 C 
ATOM     11  H   UNL     1       0.521  -8.641  -0.376  0.00  0.00    +0.155 HD
ENDROOT
BRANCH   1  14
ATOM     12  C   UNL     1       0.739  -1.731  -1.102  0.00  0.00    +0.163 A 
ATOM     13  C   UNL     1       0.124  -2.642  -0.257  0.00  0.00    +0.055 A 
ATOM     14  C   UNL     1       0.327  -3.997  -0.436  0.00  0.00    -0.014 A 
ATOM     15  C   UNL     1       1.143  -4.449  -1.457  0.00  0.00    +0.025 A 
ATOM     16  C   UNL     1       1.760  -3.546  -2.304  0.00  0.00    +0.063 A 
ATOM     17  C   UNL     1       1.555  -2.185  -2.133  0.00  0.00    +0.176 A 
ATOM     18 BR   UNL     1       2.876  -4.167  -3.698  0.00  0.00    -0.046 Br
BRANCH  12  19
ATOM     19  O   UNL     1       0.541  -0.397  -0.927  0.00  0.00    -0.489 OA
BRANCH  19  21
ATOM     20  C   UNL     1      -0.412   1.522   0.191  0.00  0.00    +0.048 C 
ATOM     21  C   UNL     1      -0.309  -0.004   0.153  0.00  0.00    +0.226 C 
ENDBRANCH  19  21
ENDBRANCH  12  19
BRANCH  17  22
ATOM     22  O   UNL     1       2.156  -1.296  -2.968  0.00  0.00    -0.487 OA
BRANCH  22  23
ATOM     23  C   UNL     1       3.451  -0.823  -2.590  0.00  0.00    +0.226 C 
ATOM     24  C   UNL     1       3.962   0.161  -3.644  0.00  0.00    +0.048 C 
ENDBRANCH  22  23
ENDBRANCH  17  22
ENDBRANCH   1  14
BRANCH   2  25
ATOM     25  C   UNL     1       1.478  -5.186   2.198  0.00  0.00    +0.339 C 
ATOM     26  O   UNL     1       1.027  -5.063   3.321  0.00  0.00    -0.245 OA
BRANCH  25  27
ATOM     27  O   UNL     1       2.717  -4.730   1.915  0.00  0.00    -0.459 OA
BRANCH  27  28
ATOM     28  C   UNL     1       3.442  -4.116   2.983  0.00  0.00    +0.171 C 
ATOM     29  C   UNL     1       4.254  -5.178   3.726  0.00  0.00    +0.052 C 
ATOM     30  C   UNL     1       4.387  -3.056   2.414  0.00  0.00    +0.052 C 
ENDBRANCH  27  28
ENDBRANCH  25  27
ENDBRANCH   2  25
BRANCH   8  31
ATOM     31  S   UNL     1      -4.284  -6.933  -2.432  0.00  0.00    -0.085 S 
BRANCH  31  32
ATOM     32  C   UNL     1      -4.225  -8.669  -2.955  0.00  0.00    +0.074 C 
ATOM     33  C   UNL     1      -5.468  -8.994  -3.786  0.00  0.00    +0.016 C 
ENDBRANCH  31  32
ENDBRANCH   8  31
TORSDOF 10
