REMARK  Name = ZINC12877228
REMARK  9 active torsions:
REMARK  status: ('A' for Active; 'I' for Inactive)
REMARK    1  A    between atoms: C_1  and  O_2
REMARK    2  A    between atoms: O_2  and  C_3
REMARK    3  A    between atoms: C_6  and  C_11
REMARK    4  A    between atoms: C_8  and  O_9
REMARK    5  A    between atoms: O_9  and  C_10
REMARK    6  A    between atoms: C_11  and  C_12
REMARK    7  A    between atoms: C_12  and  N_13
REMARK    8  A    between atoms: C_18  and  C_35
REMARK    9  A    between atoms: C_35  and  C_36
REMARK                            x       y       z     vdW  Elec       q    Type
REMARK                         _______ _______ _______ _____ _____    ______ ____
ROOT
ATOM      1  N   UNL     1       2.216   7.285  -1.123  0.00  0.00    -0.241 N 
ATOM      2  C   UNL     1       2.143   8.616  -1.018  0.00  0.00    +0.224 C 
ATOM      3  O   UNL     1       1.619   9.220  -0.106  0.00  0.00    -0.275 OA
ATOM      4  C   UNL     1       2.816   9.252  -2.213  0.00  0.00    +0.073 C 
ATOM      5  C   UNL     1       1.754   9.958  -3.082  0.00  0.00    -0.049 C 
ATOM      6  C   UNL     1       2.444   8.117  -4.343  0.00  0.00    +0.050 C 
ATOM      7  C   UNL     1       3.291   8.031  -3.049  0.00  0.00    +0.088 C 
ATOM      8  C   UNL     1       2.845   6.847  -2.220  0.00  0.00    +0.225 C 
ATOM      9  O   UNL     1       3.027   5.683  -2.505  0.00  0.00    -0.275 OA
ATOM     10  C   UNL     1       3.218   8.760  -5.458  0.00  0.00    -0.026 A 
ATOM     11  C   UNL     1       3.819   9.990  -5.608  0.00  0.00    +0.024 A 
ATOM     12  C   UNL     1       4.476  10.301  -6.786  0.00  0.00    +0.041 A 
ATOM     13  C   UNL     1       4.528   9.372  -7.811  0.00  0.00    +0.022 A 
ATOM     14  C   UNL     1       3.927   8.139  -7.664  0.00  0.00    +0.025 A 
ATOM     15  C   UNL     1       3.264   7.819  -6.482  0.00  0.00    +0.036 A 
ATOM     16  N   UNL     1       2.589   6.656  -6.099  0.00  0.00    -0.286 N 
ATOM     17  C   UNL     1       2.079   6.751  -4.856  0.00  0.00    +0.211 C 
ATOM     18  O   UNL     1       1.448   5.900  -4.266  0.00  0.00    -0.277 OA
ATOM     19 CL   UNL     1       5.234  11.851  -6.978  0.00  0.00    -0.084 Cl
ATOM     20  H   UNL     1       2.499   5.872  -6.663  0.00  0.00    +0.155 HD
ATOM     21  N   UNL     1       1.279   8.907  -3.984  0.00  0.00    +0.394 N 
ATOM     22  H   UNL     1       0.860   9.323  -4.824  0.00  0.00    -0.083 HD
ATOM     23  H   UNL     1       0.584   8.319  -3.510  0.00  0.00    -0.083 HD
ENDROOT
BRANCH   1  24
ATOM     24  C   UNL     1       1.657   6.379  -0.116  0.00  0.00    +0.121 C 
BRANCH  24  25
ATOM     25  C   UNL     1       0.206   6.050  -0.474  0.00  0.00    +0.054 C 
BRANCH  25  29
ATOM     26  C   UNL     1      -1.427   3.411   2.468  0.00  0.00    +0.161 A 
ATOM     27  C   UNL     1      -1.532   4.784   2.629  0.00  0.00    +0.049 A 
ATOM     28  C   UNL     1      -1.003   5.634   1.677  0.00  0.00    +0.007 A 
ATOM     29  C   UNL     1      -0.368   5.119   0.562  0.00  0.00    -0.042 A 
ATOM     30  C   UNL     1      -0.254   3.751   0.398  0.00  0.00    +0.053 A 
ATOM     31  C   UNL     1      -0.787   2.893   1.346  0.00  0.00    +0.162 A 
BRANCH  26  33
ATOM     32  C   UNL     1      -2.588   3.176   4.530  0.00  0.00    +0.277 C 
ATOM     33  O   UNL     1      -1.946   2.574   3.405  0.00  0.00    -0.491 OA
ENDBRANCH  26  33
BRANCH  31  34
ATOM     34  O   UNL     1      -0.682   1.547   1.184  0.00  0.00    -0.491 OA
ATOM     35  C   UNL     1      -0.013   1.086   0.008  0.00  0.00    +0.277 C 
ENDBRANCH  31  34
ENDBRANCH  25  29
ENDBRANCH  24  25
ENDBRANCH   1  24
BRANCH   5  36
ATOM     36  C   UNL     1       0.621  10.495  -2.205  0.00  0.00    +0.080 C 
BRANCH  36  37
ATOM     37  C   UNL     1      -0.341  11.284  -3.055  0.00  0.00    +0.209 C 
ATOM     38  O   UNL     1      -0.140  11.406  -4.245  0.00  0.00    -0.276 OA
ATOM     39  N   UNL     1      -1.425  11.856  -2.493  0.00  0.00    -0.329 N 
ATOM     40  H   UNL     1      -1.585  11.759  -1.541  0.00  0.00    +0.145 HD
ATOM     41  H   UNL     1      -2.044  12.364  -3.040  0.00  0.00    +0.145 HD
ENDBRANCH  36  37
ENDBRANCH   5  36
TORSDOF 7
