REMARK  Name = ZINC32929382
REMARK  9 active torsions:
REMARK  status: ('A' for Active; 'I' for Inactive)
REMARK    1  A    between atoms: C_1  and  C_2
REMARK    2  A    between atoms: C_2  and  O_3
REMARK    3  A    between atoms: O_3  and  C_4
REMARK    4  A    between atoms: C_4  and  C_6
REMARK    5  A    between atoms: C_9  and  N_31
REMARK    6  A    between atoms: C_10  and  C_16
REMARK    7  A    between atoms: C_14  and  C_15
REMARK    8  A    between atoms: N_18  and  C_19
REMARK    9  A    between atoms: C_20  and  C_29
REMARK                            x       y       z     vdW  Elec       q    Type
REMARK                         _______ _______ _______ _____ _____    ______ ____
ROOT
ATOM      1  C   UNL     1       2.765   3.920  -0.266  0.00  0.00    +0.081 A 
ATOM      2  C   UNL     1       1.469   3.416  -0.267  0.00  0.00    +0.029 A 
ATOM      3  C   UNL     1       1.271   2.042  -0.005  0.00  0.00    +0.030 A 
ATOM      4  C   UNL     1       0.019   1.300   0.045  0.00  0.00    +0.053 A 
ATOM      5  C   UNL     1       0.070  -0.049   0.321  0.00  0.00    +0.097 A 
ATOM      6  S   UNL     1       1.811  -0.365   0.523  0.00  0.00    -0.062 S 
ATOM      7  C   UNL     1       2.434   1.274   0.242  0.00  0.00    +0.111 A 
ATOM      8  N   UNL     1       3.646   1.793   0.234  0.00  0.00    -0.244 NA
ATOM      9  C   UNL     1       3.849   3.070  -0.008  0.00  0.00    +0.053 A 
ATOM     10  C   UNL     1       5.252   3.620  -0.008  0.00  0.00    +0.066 C 
ENDROOT
BRANCH   5  11
ATOM     11  C   UNL     1      -1.006  -0.965   0.421  0.00  0.00    +0.257 C 
ATOM     12  O   UNL     1      -2.150  -0.582   0.253  0.00  0.00    -0.269 OA
ATOM     13  N   UNL     1      -0.764  -2.261   0.702  0.00  0.00    -0.274 N 
ATOM     14  H   UNL     1       0.269  -2.607   0.854  0.00  0.00    +0.156 HD
BRANCH  13  15
ATOM     15  C   UNL     1      -1.817  -3.158   0.799  0.00  0.00    +0.090 A 
ATOM     16  C   UNL     1      -1.770  -4.514   1.077  0.00  0.00    +0.084 A 
ATOM     17  C   UNL     1      -3.031  -5.240   1.126  0.00  0.00    -0.018 A 
ATOM     18  C   UNL     1      -4.129  -4.492   0.881  0.00  0.00    -0.004 A 
ATOM     19  S   UNL     1      -3.511  -2.853   0.611  0.00  0.00    -0.077 S 
ATOM     20  C   UNL     1      -5.556  -4.943   0.845  0.00  0.00    +0.043 C 
ATOM     21  C   UNL     1      -5.855  -5.774   2.100  0.00  0.00    +0.005 C 
ATOM     22  C   UNL     1      -5.538  -7.235   1.800  0.00  0.00    +0.001 C 
ATOM     23  C   UNL     1      -4.364  -7.329   0.827  0.00  0.00    +0.005 C 
ATOM     24  C   UNL     1      -3.107  -6.728   1.446  0.00  0.00    +0.037 C 
BRANCH  16  25
ATOM     25  C   UNL     1      -0.523  -5.180   1.307  0.00  0.00    +0.102 C 
ATOM     26  N   UNL     1       0.466  -5.708   1.490  0.00  0.00    -0.191 NA
ENDBRANCH  16  25
ENDBRANCH  13  15
ENDBRANCH   5  11
BRANCH   4  27
ATOM     27  N   UNL     1      -1.193   1.933  -0.185  0.00  0.00    -0.356 N 
ATOM     28  H   UNL     1      -2.130   1.359  -0.143  0.00  0.00    +0.142 HD
ATOM     29  H   UNL     1      -1.217   3.010  -0.409  0.00  0.00    +0.142 HD
ENDBRANCH   4  27
BRANCH   1  30
ATOM     30  C   UNL     1       3.000   5.351  -0.537  0.00  0.00    +0.341 C 
ATOM     31  O   UNL     1       4.135   5.770  -0.649  0.00  0.00    -0.245 OA
BRANCH  30  32
ATOM     32  O   UNL     1       1.955   6.193  -0.660  0.00  0.00    -0.461 OA
BRANCH  32  34
ATOM     33  C   UNL     1       0.958   8.383  -1.033  0.00  0.00    +0.048 C 
ATOM     34  C   UNL     1       2.260   7.588  -0.926  0.00  0.00    +0.229 C 
ENDBRANCH  32  34
ENDBRANCH  30  32
ENDBRANCH   1  30
TORSDOF 7
