REMARK  Name = ZINC17576772
REMARK  8 active torsions:
REMARK  status: ('A' for Active; 'I' for Inactive)
REMARK    1  A    between atoms: C_1  and  C_2
REMARK    2  A    between atoms: C_3  and  C_33
REMARK    3  A    between atoms: C_9  and  C_12
REMARK    4  A    between atoms: N_14  and  N_15
REMARK    5  A    between atoms: C_16  and  C_18
REMARK    6  A    between atoms: C_23  and  N_24
REMARK    7  A    between atoms: N_24  and  S_25
REMARK    8  A    between atoms: S_25  and  C_28
REMARK                            x       y       z     vdW  Elec       q    Type
REMARK                         _______ _______ _______ _____ _____    ______ ____
ROOT
ATOM      1  N   UNL     1      -4.732   1.276   0.322  0.00  0.00    -0.230 N 
ATOM      2  C   UNL     1      -5.953   1.840   0.235  0.00  0.00    +0.262 C 
ATOM      3  O   UNL     1      -6.059   3.043   0.092  0.00  0.00    -0.269 OA
ATOM      4  H   UNL     1      -4.648   0.317   0.436  0.00  0.00    +0.173 HD
ENDROOT
BRANCH   2   5
ATOM      5  C   UNL     1      -7.161   0.998   0.313  0.00  0.00    +0.060 A 
ATOM      6  C   UNL     1      -7.045  -0.385   0.476  0.00  0.00    +0.015 A 
ATOM      7  C   UNL     1      -8.177  -1.165   0.549  0.00  0.00    +0.001 A 
ATOM      8  C   UNL     1      -9.434  -0.587   0.460  0.00  0.00    +0.002 A 
ATOM      9  C   UNL     1      -9.565   0.776   0.298  0.00  0.00    +0.025 A 
ATOM     10  C   UNL     1      -8.435   1.581   0.228  0.00  0.00    +0.060 A 
BRANCH  10  11
ATOM     11  N   UNL     1      -8.565   2.955   0.071  0.00  0.00    -0.215 N 
ATOM     12  H   UNL     1      -7.922   3.445  -0.466  0.00  0.00    +0.174 HD
BRANCH  11  13
ATOM     13  S   UNL     1      -9.817   3.757   0.799  0.00  0.00    +0.079 S 
ATOM     14  O   UNL     1      -9.601   5.143   0.567  0.00  0.00    -0.149 OA
ATOM     15  O   UNL     1     -11.010   3.095   0.401  0.00  0.00    -0.149 OA
BRANCH  13  16
ATOM     16  C   UNL     1      -9.657   3.506   2.535  0.00  0.00    +0.146 A 
ATOM     17  C   UNL     1      -8.984   4.250   3.447  0.00  0.00    +0.036 A 
ATOM     18  C   UNL     1      -8.997   3.858   4.773  0.00  0.00    +0.010 A 
ATOM     19  C   UNL     1      -9.683   2.742   5.122  0.00  0.00    +0.047 A 
ATOM     20  S   UNL     1     -10.346   2.210   3.552  0.00  0.00    -0.077 S 
ENDBRANCH  13  16
ENDBRANCH  11  13
ENDBRANCH  10  11
ENDBRANCH   2   5
BRANCH   1  23
ATOM     21  C   UNL     1      -2.363   1.513   0.335  0.00  0.00    +0.260 C 
ATOM     22  O   UNL     1      -2.258   0.310   0.478  0.00  0.00    -0.269 OA
ATOM     23  N   UNL     1      -3.584   2.077   0.248  0.00  0.00    -0.230 N 
ATOM     24  H   UNL     1      -3.669   3.036   0.134  0.00  0.00    +0.173 HD
BRANCH  21  33
ATOM     25  C   UNL     1       3.343   0.973   0.484  0.00  0.00    +0.046 C 
ATOM     26  C   UNL     1       2.681   2.317   0.317  0.00  0.00    -0.022 A 
ATOM     27  C   UNL     1       3.298   3.501   0.186  0.00  0.00    +0.017 A 
ATOM     28  N   UNL     1       2.371   4.499   0.057  0.00  0.00    -0.358 N 
ATOM     29  H   UNL     1       2.579   5.441  -0.051  0.00  0.00    +0.166 HD
ATOM     30  C   UNL     1       1.103   3.972   0.102  0.00  0.00    +0.047 A 
ATOM     31  C   UNL     1       1.240   2.579   0.267  0.00  0.00    +0.004 A 
ATOM     32  C   UNL     1       0.107   1.773   0.347  0.00  0.00    +0.023 A 
ATOM     33  C   UNL     1      -1.154   2.356   0.258  0.00  0.00    +0.039 A 
ATOM     34  C   UNL     1      -1.276   3.743   0.099  0.00  0.00    +0.015 A 
ATOM     35  C   UNL     1      -0.169   4.535   0.020  0.00  0.00    +0.027 A 
ATOM     36  C   UNL     1       4.792   3.702   0.182  0.00  0.00    +0.063 C 
ENDBRANCH  21  33
ENDBRANCH   1  23
TORSDOF 6
