REMARK  Name = ZINC12309504
REMARK  11 active torsions:
REMARK  status: ('A' for Active; 'I' for Inactive)
REMARK    1  A    between atoms: C_1  and  C_2
REMARK    2  A    between atoms: C_2  and  C_3
REMARK    3  A    between atoms: C_9  and  N_10
REMARK    4  A    between atoms: N_10  and  O_11
REMARK    5  A    between atoms: O_11  and  C_12
REMARK    6  A    between atoms: C_12  and  C_13
REMARK    7  A    between atoms: N_15  and  C_16
REMARK    8  A    between atoms: C_19  and  C_22
REMARK    9  A    between atoms: C_22  and  C_24
REMARK   10  A    between atoms: N_27  and  C_32
REMARK   11  A    between atoms: N_30  and  C_31
REMARK                            x       y       z     vdW  Elec       q    Type
REMARK                         _______ _______ _______ _____ _____    ______ ____
ROOT
ATOM      1  C   UNL     1       1.469   6.548   0.269  0.00  0.00    -0.006 A 
ATOM      2  C   UNL     1       2.655   5.950   0.465  0.00  0.00    +0.090 A 
ATOM      3  N   UNL     1       2.749   4.677   0.959  0.00  0.00    -0.347 N 
ATOM      4  H   UNL     1       3.716   4.299   1.326  0.00  0.00    +0.167 HD
ATOM      5  C   UNL     1       1.677   3.843   1.016  0.00  0.00    +0.129 A 
ATOM      6  C   UNL     1       0.393   4.352   0.845  0.00  0.00    +0.106 A 
ATOM      7  C   UNL     1       0.239   5.798   0.594  0.00  0.00    +0.082 A 
ATOM      8  C   UNL     1      -0.718   3.480   0.915  0.00  0.00    +0.268 A 
ATOM      9  O   UNL     1      -1.850   3.904   0.772  0.00  0.00    -0.267 OA
ATOM     10  N   UNL     1      -0.498   2.166   1.138  0.00  0.00    -0.263 N 
ATOM     11  C   UNL     1       0.750   1.695   1.302  0.00  0.00    +0.333 A 
ATOM     12  O   UNL     1       0.911   0.507   1.504  0.00  0.00    -0.246 OA
ATOM     13  N   UNL     1       1.828   2.499   1.244  0.00  0.00    -0.282 N 
ATOM     14  C   UNL     1       3.169   1.936   1.424  0.00  0.00    +0.155 C 
ATOM     15  C   UNL     1      -1.634   1.244   1.208  0.00  0.00    +0.157 C 
ENDROOT
BRANCH   1  17
ATOM     16  C   UNL     1       1.330   7.911  -1.798  0.00  0.00    +0.009 C 
ATOM     17  C   UNL     1       1.394   7.953  -0.269  0.00  0.00    +0.035 C 
ENDBRANCH   1  17
BRANCH   7  18
ATOM     18  N   UNL     1      -0.933   6.388   0.657  0.00  0.00    -0.264 N 
ATOM     19  H   UNL     1      -1.102   7.334   0.120  0.00  0.00    +0.194 HD
BRANCH  18  20
ATOM     20  O   UNL     1      -1.979   5.807   1.414  0.00  0.00    -0.265 OA
BRANCH  20  21
ATOM     21  C   UNL     1      -3.196   6.555   1.393  0.00  0.00    +0.288 C 
BRANCH  21  22
ATOM     22  C   UNL     1      -4.234   5.849   2.228  0.00  0.00    +0.246 C 
ATOM     23  O   UNL     1      -3.958   4.808   2.785  0.00  0.00    -0.273 OA
ATOM     24  N   UNL     1      -5.469   6.375   2.354  0.00  0.00    -0.284 N 
ATOM     25  H   UNL     1      -5.742   7.278   1.789  0.00  0.00    +0.155 HD
BRANCH  24  26
ATOM     26  C   UNL     1      -6.398   5.774   3.200  0.00  0.00    +0.033 A 
ATOM     27  C   UNL     1      -7.290   6.561   3.923  0.00  0.00    +0.024 A 
ATOM     28  C   UNL     1      -8.209   5.974   4.753  0.00  0.00    +0.013 A 
ATOM     29  C   UNL     1      -8.244   4.580   4.882  0.00  0.00    +0.017 A 
ATOM     30  C   UNL     1      -7.341   3.792   4.157  0.00  0.00    +0.013 A 
ATOM     31  C   UNL     1      -6.428   4.387   3.325  0.00  0.00    +0.024 A 
BRANCH  29  32
ATOM     32  C   UNL     1      -9.223   3.947   5.774  0.00  0.00    +0.160 C 
ATOM     33  O   UNL     1      -9.320   2.738   5.808  0.00  0.00    -0.292 OA
ATOM     34  C   UNL     1     -10.109   4.798   6.646  0.00  0.00    +0.091 C 
ENDBRANCH  29  32
ENDBRANCH  24  26
ENDBRANCH  21  22
ENDBRANCH  20  21
ENDBRANCH  18  20
ENDBRANCH   7  18
TORSDOF 7
