REMARK  Name = ZINC43253060
REMARK  12 active torsions:
REMARK  status: ('A' for Active; 'I' for Inactive)
REMARK    1  A    between atoms: C_1  and  N_2
REMARK    2  A    between atoms: N_2  and  C_3
REMARK    3  A    between atoms: N_2  and  C_4
REMARK    4  A    between atoms: C_7  and  C_10
REMARK    5  A    between atoms: N_18  and  C_21
REMARK    6  A    between atoms: N_28  and  C_29
REMARK    7  A    between atoms: C_29  and  C_30
REMARK    8  A    between atoms: N_32  and  C_33
REMARK    9  A    between atoms: C_33  and  C_34
REMARK   10  A    between atoms: C_34  and  C_35
REMARK   11  A    between atoms: C_38  and  O_41
REMARK   12  A    between atoms: O_41  and  C_42
REMARK                            x       y       z     vdW  Elec       q    Type
REMARK                         _______ _______ _______ _____ _____    ______ ____
ROOT
ATOM      1  C   UNL     1      -4.870  -2.906   0.033  0.00  0.00    +0.130 C 
ATOM      2  C   UNL     1      -5.554  -2.818  -1.325  0.00  0.00    +0.139 C 
ATOM      3  C   UNL     1      -6.359  -1.486  -1.081  0.00  0.00    +0.241 C 
ATOM      4  C   UNL     1      -6.685  -1.093  -2.439  0.00  0.00    +0.254 C 
ATOM      5  O   UNL     1      -7.682  -0.518  -2.819  0.00  0.00    -0.272 OA
ATOM      6  N   UNL     1      -5.625  -1.511  -3.201  0.00  0.00    -0.236 N 
ATOM      7  C   UNL     1      -4.791  -2.380  -2.536  0.00  0.00    +0.230 C 
ATOM      8  O   UNL     1      -3.672  -2.720  -2.854  0.00  0.00    -0.275 OA
ATOM      9  O   UNL     1      -6.969  -1.714   0.123  0.00  0.00    -0.282 OA
ATOM     10  N   UNL     1      -5.852  -2.275   0.969  0.00  0.00    -0.170 NA
ENDROOT
BRANCH   1  14
ATOM     11  C   UNL     1      -1.198  -0.719   0.010  0.00  0.00    +0.029 A 
ATOM     12  C   UNL     1      -1.194  -2.089  -0.220  0.00  0.00    +0.023 A 
ATOM     13  C   UNL     1      -2.382  -2.792  -0.211  0.00  0.00    +0.007 A 
ATOM     14  C   UNL     1      -3.575  -2.135   0.025  0.00  0.00    -0.027 A 
ATOM     15  C   UNL     1      -3.583  -0.771   0.254  0.00  0.00    +0.007 A 
ATOM     16  C   UNL     1      -2.398  -0.062   0.252  0.00  0.00    +0.023 A 
BRANCH  11  18
ATOM     17  C   UNL     1      -0.004   1.440   0.250  0.00  0.00    +0.129 C 
ATOM     18  N   UNL     1       0.002  -0.004   0.002  0.00  0.00    -0.336 N 
ATOM     19  C   UNL     1       1.266  -0.698  -0.254  0.00  0.00    +0.129 C 
ENDBRANCH  11  18
ENDBRANCH   1  14
BRANCH   6  20
ATOM     20  C   UNL     1      -5.407  -1.087  -4.587  0.00  0.00    +0.084 C 
ATOM     21  C   UNL     1      -5.255   0.434  -4.638  0.00  0.00    +0.023 C 
ATOM     22  C   UNL     1      -5.027   0.876  -6.085  0.00  0.00    +0.002 C 
ATOM     23  C   UNL     1      -6.223   0.454  -6.941  0.00  0.00    +0.000 C 
ATOM     24  C   UNL     1      -6.375  -1.067  -6.890  0.00  0.00    +0.002 C 
ATOM     25  C   UNL     1      -6.603  -1.509  -5.443  0.00  0.00    +0.023 C 
ENDBRANCH   6  20
BRANCH  10  26
ATOM     26  C   UNL     1      -6.369  -3.258   1.931  0.00  0.00    +0.211 C 
BRANCH  26  27
ATOM     27  C   UNL     1      -7.258  -2.564   2.930  0.00  0.00    +0.229 C 
ATOM     28  O   UNL     1      -7.443  -1.368   2.849  0.00  0.00    -0.274 OA
ATOM     29  N   UNL     1      -7.847  -3.272   3.914  0.00  0.00    -0.314 N 
ATOM     30  H   UNL     1      -7.699  -4.229   3.978  0.00  0.00    +0.149 HD
BRANCH  29  31
ATOM     31  C   UNL     1      -8.712  -2.597   4.885  0.00  0.00    +0.109 C 
BRANCH  31  32
ATOM     32  C   UNL     1      -9.250  -3.621   5.887  0.00  0.00    +0.054 C 
BRANCH  32  33
ATOM     33  C   UNL     1     -10.139  -2.927   6.886  0.00  0.00    -0.046 A 
ATOM     34  C   UNL     1      -9.598  -2.409   8.049  0.00  0.00    +0.007 A 
ATOM     35  C   UNL     1     -10.411  -1.773   8.967  0.00  0.00    +0.046 A 
ATOM     36  C   UNL     1     -11.771  -1.653   8.721  0.00  0.00    +0.120 A 
ATOM     37  C   UNL     1     -12.311  -2.172   7.554  0.00  0.00    +0.046 A 
ATOM     38  C   UNL     1     -11.493  -2.803   6.636  0.00  0.00    +0.007 A 
BRANCH  36  39
ATOM     39  O   UNL     1     -12.572  -1.027   9.623  0.00  0.00    -0.495 OA
ATOM     40  C   UNL     1     -13.963  -0.940   9.304  0.00  0.00    +0.277 C 
ENDBRANCH  36  39
ENDBRANCH  32  33
ENDBRANCH  31  32
ENDBRANCH  29  31
ENDBRANCH  26  27
ENDBRANCH  10  26
TORSDOF 9
