REMARK  Name = ZINC09542138
REMARK  9 active torsions:
REMARK  status: ('A' for Active; 'I' for Inactive)
REMARK    1  A    between atoms: C_1  and  C_2
REMARK    2  A    between atoms: C_2  and  C_3
REMARK    3  A    between atoms: C_6  and  C_9
REMARK    4  A    between atoms: C_11  and  C_24
REMARK    5  A    between atoms: C_13  and  C_16
REMARK    6  A    between atoms: C_21  and  O_22
REMARK    7  A    between atoms: C_27  and  C_30
REMARK    8  A    between atoms: C_30  and  O_32
REMARK    9  A    between atoms: O_32  and  C_33
REMARK                            x       y       z     vdW  Elec       q    Type
REMARK                         _______ _______ _______ _____ _____    ______ ____
ROOT
ATOM      1  C   UNL     1       5.363  -1.862   1.411  0.00  0.00    +0.040 C 
ATOM      2  N   UNL     1       5.595  -2.672   0.448  0.00  0.00    -0.299 NA
ATOM      3  C   UNL     1       4.812  -2.728  -0.780  0.00  0.00    +0.081 C 
ATOM      4  C   UNL     1       3.711  -0.715  -0.037  0.00  0.00    -0.028 C 
ATOM      5  C   UNL     1       4.236  -0.867   1.394  0.00  0.00    +0.044 C 
ATOM      6  N   UNL     1       3.512  -2.064  -0.602  0.00  0.00    +0.401 N 
ATOM      7  H   UNL     1       2.932  -2.619   0.038  0.00  0.00    -0.081 HD
ATOM      8  H   UNL     1       3.041  -1.987  -1.511  0.00  0.00    -0.081 HD
ENDROOT
BRANCH   4   9
ATOM      9  C   UNL     1       2.397   0.023  -0.020  0.00  0.00    -0.018 A 
ATOM     10  C   UNL     1       1.208  -0.681  -0.013  0.00  0.00    +0.020 A 
ATOM     11  C   UNL     1       0.002  -0.004   0.002  0.00  0.00    +0.018 A 
ATOM     12  C   UNL     1      -0.017   1.379   0.010  0.00  0.00    +0.019 A 
ATOM     13  C   UNL     1       1.169   2.087   0.002  0.00  0.00    +0.047 A 
ATOM     14  C   UNL     1       2.380   1.410  -0.013  0.00  0.00    +0.119 A 
ATOM     15 BR   UNL     1      -1.623  -0.971   0.012  0.00  0.00    -0.050 Br
BRANCH  14  16
ATOM     16  O   UNL     1       3.548   2.104  -0.020  0.00  0.00    -0.507 OA
ATOM     17  H   UNL     1       3.878   2.310  -0.906  0.00  0.00    +0.292 HD
ENDBRANCH  14  16
ENDBRANCH   4   9
BRANCH   1  21
ATOM     18  C   UNL     1       7.894  -1.992   4.817  0.00  0.00    -0.048 A 
ATOM     19  C   UNL     1       8.119  -2.855   3.759  0.00  0.00    +0.004 A 
ATOM     20  C   UNL     1       7.300  -2.818   2.649  0.00  0.00    +0.010 A 
ATOM     21  C   UNL     1       6.243  -1.907   2.596  0.00  0.00    -0.004 A 
ATOM     22  C   UNL     1       6.026  -1.036   3.664  0.00  0.00    +0.010 A 
ATOM     23  C   UNL     1       6.849  -1.087   4.771  0.00  0.00    +0.004 A 
BRANCH  18  25
ATOM     24  C   UNL     1       9.968  -1.080   5.826  0.00  0.00    +0.009 C 
ATOM     25  C   UNL     1       8.792  -2.039   6.027  0.00  0.00    +0.032 C 
ENDBRANCH  18  25
ENDBRANCH   1  21
BRANCH   3  26
ATOM     26  C   UNL     1       4.582  -4.169  -1.157  0.00  0.00    -0.040 A 
ATOM     27  C   UNL     1       3.432  -4.526  -1.839  0.00  0.00    +0.004 A 
ATOM     28  C   UNL     1       3.217  -5.843  -2.192  0.00  0.00    +0.015 A 
ATOM     29  C   UNL     1       4.157  -6.816  -1.849  0.00  0.00    +0.059 A 
ATOM     30  C   UNL     1       5.312  -6.449  -1.156  0.00  0.00    +0.015 A 
ATOM     31  C   UNL     1       5.517  -5.129  -0.814  0.00  0.00    +0.004 A 
BRANCH  29  32
ATOM     32  C   UNL     1       3.930  -8.229  -2.218  0.00  0.00    +0.339 C 
ATOM     33  O   UNL     1       4.750  -9.074  -1.918  0.00  0.00    -0.245 OA
BRANCH  32  34
ATOM     34  O   UNL     1       2.815  -8.580  -2.887  0.00  0.00    -0.464 OA
ATOM     35  C   UNL     1       2.658  -9.985  -3.216  0.00  0.00    +0.280 C 
ENDBRANCH  32  34
ENDBRANCH  29  32
ENDBRANCH   3  26
TORSDOF 7
