REMARK  Name = ZINC09611195
REMARK  5 active torsions:
REMARK  status: ('A' for Active; 'I' for Inactive)
REMARK    1  A    between atoms: C_1  and  C_2
REMARK    2  A    between atoms: C_11  and  C_13
REMARK    3  A    between atoms: N_15  and  C_16
REMARK    4  A    between atoms: C_19  and  S_22
REMARK    5  A    between atoms: S_22  and  N_25
REMARK                            x       y       z     vdW  Elec       q    Type
REMARK                         _______ _______ _______ _____ _____    ______ ____
ROOT
ATOM      1  C   UNL     1       5.052   2.056  -0.032  0.00  0.00    +0.255 C 
ATOM      2  O   UNL     1       5.447   0.905  -0.033  0.00  0.00    -0.269 OA
ATOM      3  N   UNL     1       5.937   3.072  -0.038  0.00  0.00    -0.281 N 
ATOM      4  H   UNL     1       5.624   3.988  -0.105  0.00  0.00    +0.155 HD
ENDROOT
BRANCH   1  15
ATOM      5  C   UNL     1      -1.664   7.471  -0.004  0.00  0.00    +0.044 C 
ATOM      6  C   UNL     1      -1.528   5.970  -0.004  0.00  0.00    -0.050 A 
ATOM      7  C   UNL     1      -2.663   5.174   0.002  0.00  0.00    +0.007 A 
ATOM      8  C   UNL     1      -2.554   3.799   0.003  0.00  0.00    +0.047 A 
ATOM      9  C   UNL     1      -1.303   3.199  -0.004  0.00  0.00    +0.140 A 
ATOM     10  C   UNL     1      -0.150   4.004  -0.010  0.00  0.00    +0.032 A 
ATOM     11  C   UNL     1      -0.277   5.395  -0.010  0.00  0.00    +0.016 A 
ATOM     12  C   UNL     1       1.158   3.361  -0.015  0.00  0.00    +0.038 A 
ATOM     13  C   UNL     1       1.266   1.957  -0.015  0.00  0.00    +0.075 A 
ATOM     14  C   UNL     1       2.571   1.454  -0.020  0.00  0.00    +0.036 A 
ATOM     15  C   UNL     1       3.612   2.337  -0.026  0.00  0.00    +0.076 A 
ATOM     16  S   UNL     1       2.787   3.918  -0.023  0.00  0.00    -0.083 S 
ATOM     17  C   UNL     1      -0.015   1.213  -0.008  0.00  0.00    +0.346 A 
ATOM     18  O   UNL     1       0.002  -0.003  -0.007  0.00  0.00    -0.244 OA
ATOM     19  O   UNL     1      -1.189   1.853  -0.008  0.00  0.00    -0.422 OA
ENDBRANCH   1  15
BRANCH   3  20
ATOM     20  C   UNL     1       7.307   2.807   0.053  0.00  0.00    +0.034 A 
ATOM     21  C   UNL     1       8.141   3.679   0.741  0.00  0.00    +0.025 A 
ATOM     22  C   UNL     1       9.493   3.411   0.833  0.00  0.00    +0.030 A 
ATOM     23  C   UNL     1      10.018   2.282   0.233  0.00  0.00    +0.105 A 
ATOM     24  C   UNL     1       9.191   1.414  -0.457  0.00  0.00    +0.030 A 
ATOM     25  C   UNL     1       7.838   1.673  -0.549  0.00  0.00    +0.025 A 
BRANCH  23  26
ATOM     26  S   UNL     1      11.744   1.947   0.347  0.00  0.00    +0.056 S 
ATOM     27  O   UNL     1      12.212   2.622   1.507  0.00  0.00    -0.153 OA
ATOM     28  O   UNL     1      11.899   0.546   0.167  0.00  0.00    -0.153 OA
BRANCH  26  29
ATOM     29  N   UNL     1      12.471   2.676  -0.950  0.00  0.00    -0.204 NA
ATOM     30  H   UNL     1      11.937   3.170  -1.591  0.00  0.00    +0.144 HD
ATOM     31  H   UNL     1      13.431   2.608  -1.069  0.00  0.00    +0.144 HD
ENDBRANCH  26  29
ENDBRANCH  23  26
ENDBRANCH   3  20
TORSDOF 4
