REMARK  Name = ZINC12492027
REMARK  11 active torsions:
REMARK  status: ('A' for Active; 'I' for Inactive)
REMARK    1  A    between atoms: C_1  and  C_2
REMARK    2  A    between atoms: C_2  and  C_3
REMARK    3  A    between atoms: C_2  and  C_4
REMARK    4  A    between atoms: C_2  and  C_5
REMARK    5  A    between atoms: C_8  and  C_11
REMARK    6  A    between atoms: N_13  and  C_14
REMARK    7  A    between atoms: C_17  and  C_20
REMARK    8  A    between atoms: N_22  and  N_23
REMARK    9  A    between atoms: C_24  and  C_26
REMARK   10  A    between atoms: C_26  and  C_27
REMARK   11  A    between atoms: C_26  and  C_33
REMARK                            x       y       z     vdW  Elec       q    Type
REMARK                         _______ _______ _______ _____ _____    ______ ____
ROOT
ATOM      1  C   UNL     1       5.037   5.992   0.457  0.00  0.00    +0.260 C 
ATOM      2  O   UNL     1       5.202   7.197   0.488  0.00  0.00    -0.269 OA
ATOM      3  N   UNL     1       6.100   5.168   0.387  0.00  0.00    -0.230 N 
ATOM      4  H   UNL     1       5.968   4.207   0.361  0.00  0.00    +0.173 HD
ENDROOT
BRANCH   1   8
ATOM      5  C   UNL     1       1.107   4.386   0.564  0.00  0.00    +0.034 A 
ATOM      6  C   UNL     1       2.204   3.532   0.498  0.00  0.00    +0.024 A 
ATOM      7  C   UNL     1       3.479   4.050   0.457  0.00  0.00    +0.015 A 
ATOM      8  C   UNL     1       3.671   5.434   0.494  0.00  0.00    +0.038 A 
ATOM      9  C   UNL     1       2.567   6.288   0.567  0.00  0.00    +0.015 A 
ATOM     10  C   UNL     1       1.295   5.764   0.601  0.00  0.00    +0.024 A 
BRANCH   5  13
ATOM     11  C   UNL     1      -0.466   2.726  -0.074  0.00  0.00    +0.248 C 
ATOM     12  O   UNL     1       0.376   2.216  -0.787  0.00  0.00    -0.270 OA
ATOM     13  N   UNL     1      -0.182   3.858   0.599  0.00  0.00    -0.282 N 
ATOM     14  H   UNL     1      -0.877   4.309   1.105  0.00  0.00    +0.155 HD
BRANCH  11  18
ATOM     15  C   UNL     1      -4.301   0.938   0.297  0.00  0.00    -0.042 A 
ATOM     16  C   UNL     1      -3.345   0.355  -0.517  0.00  0.00    +0.005 A 
ATOM     17  C   UNL     1      -2.098   0.931  -0.642  0.00  0.00    +0.013 A 
ATOM     18  C   UNL     1      -1.801   2.104   0.055  0.00  0.00    +0.037 A 
ATOM     19  C   UNL     1      -2.768   2.684   0.877  0.00  0.00    +0.013 A 
ATOM     20  C   UNL     1      -4.013   2.101   0.989  0.00  0.00    +0.005 A 
BRANCH  15  22
ATOM     21  C   UNL     1      -5.511  -1.113   0.987  0.00  0.00    +0.015 C 
ATOM     22  C   UNL     1      -5.661   0.303   0.429  0.00  0.00    -0.013 C 
ATOM     23  C   UNL     1      -6.523   1.138   1.379  0.00  0.00    +0.015 C 
ATOM     24  C   UNL     1      -6.331   0.242  -0.946  0.00  0.00    +0.015 C 
ENDBRANCH  15  22
ENDBRANCH  11  18
ENDBRANCH   5  13
ENDBRANCH   1   8
BRANCH   3  25
ATOM     25  N   UNL     1       7.397   5.698   0.351  0.00  0.00    -0.233 N 
ATOM     26  C   UNL     1       8.460   4.873   0.281  0.00  0.00    +0.241 C 
ATOM     27  O   UNL     1       8.295   3.672   0.249  0.00  0.00    -0.273 OA
ATOM     28  H   UNL     1       7.529   6.659   0.376  0.00  0.00    +0.173 HD
BRANCH  26  29
ATOM     29  C   UNL     1       9.855   5.443   0.242  0.00  0.00    +0.136 C 
BRANCH  29  30
ATOM     30  C   UNL     1      10.102   6.251   1.490  0.00  0.00    -0.031 A 
ATOM     31  C   UNL     1       9.822   5.710   2.731  0.00  0.00    +0.005 A 
ATOM     32  C   UNL     1      10.053   6.449   3.876  0.00  0.00    +0.000 A 
ATOM     33  C   UNL     1      10.555   7.733   3.780  0.00  0.00    +0.000 A 
ATOM     34  C   UNL     1      10.829   8.277   2.539  0.00  0.00    +0.000 A 
ATOM     35  C   UNL     1      10.603   7.536   1.394  0.00  0.00    +0.005 A 
ENDBRANCH  29  30
BRANCH  29  36
ATOM     36  C   UNL     1      10.855   4.319   0.166  0.00  0.00    -0.031 A 
ATOM     37  C   UNL     1      10.821   3.298   1.097  0.00  0.00    +0.005 A 
ATOM     38  C   UNL     1      11.736   2.264   1.023  0.00  0.00    +0.000 A 
ATOM     39  C   UNL     1      12.691   2.257   0.025  0.00  0.00    +0.000 A 
ATOM     40  C   UNL     1      12.729   3.280  -0.903  0.00  0.00    +0.000 A 
ATOM     41  C   UNL     1      11.811   4.312  -0.833  0.00  0.00    +0.005 A 
ENDBRANCH  29  36
ENDBRANCH  26  29
ENDBRANCH   3  25
TORSDOF 8
