REMARK  Name = ZINC08829653
REMARK  10 active torsions:
REMARK  status: ('A' for Active; 'I' for Inactive)
REMARK    1  A    between atoms: C_1  and  C_2
REMARK    2  A    between atoms: C_4  and  C_32
REMARK    3  A    between atoms: C_5  and  C_31
REMARK    4  A    between atoms: C_6  and  S_9
REMARK    5  A    between atoms: C_7  and  C_8
REMARK    6  A    between atoms: S_9  and  N_12
REMARK    7  A    between atoms: C_17  and  C_18
REMARK    8  A    between atoms: C_17  and  N_65
REMARK    9  A    between atoms: N_23  and  C_24
REMARK   10  A    between atoms: C_24  and  C_25
REMARK                            x       y       z     vdW  Elec       q    Type
REMARK                         _______ _______ _______ _____ _____    ______ ____
ROOT
ATOM      1  N   UNL     1      -0.389   4.402  -1.798  0.00  0.00    -0.180 NA
ATOM      2  C   UNL     1       0.087   3.058  -2.163  0.00  0.00    +0.091 C 
ATOM      3  C   UNL     1       0.874   2.483  -0.980  0.00  0.00    -0.061 C 
ATOM      4  C   UNL     1      -0.279   3.929   0.591  0.00  0.00    -0.061 C 
ATOM      5  C   UNL     1      -1.112   4.563  -0.528  0.00  0.00    +0.091 C 
ATOM      6  N   UNL     1       0.018   2.526   0.226  0.00  0.00    +0.387 N 
ATOM      7  H   UNL     1      -0.865   2.041   0.025  0.00  0.00    -0.081 HD
ENDROOT
BRANCH   1   8
ATOM      8  S   UNL     1      -0.117   5.698  -2.792  0.00  0.00    +0.061 S 
ATOM      9  O   UNL     1      -0.166   6.857  -1.971  0.00  0.00    -0.153 OA
ATOM     10  O   UNL     1       1.017   5.372  -3.583  0.00  0.00    -0.153 OA
BRANCH   8  16
ATOM     11  C   UNL     1      -4.728   7.717  -4.203  0.00  0.00    +0.044 C 
ATOM     12  C   UNL     1      -3.598   6.763  -4.494  0.00  0.00    -0.045 A 
ATOM     13  C   UNL     1      -3.636   5.971  -5.627  0.00  0.00    +0.007 A 
ATOM     14  C   UNL     1      -2.600   5.096  -5.894  0.00  0.00    -0.045 A 
ATOM     15  C   UNL     1      -1.525   5.012  -5.028  0.00  0.00    -0.021 A 
ATOM     16  C   UNL     1      -1.487   5.804  -3.896  0.00  0.00    +0.112 A 
ATOM     17  C   UNL     1      -2.526   6.676  -3.626  0.00  0.00    -0.021 A 
ATOM     18  C   UNL     1      -2.486   7.535  -2.389  0.00  0.00    +0.046 C 
ATOM     19  C   UNL     1      -0.396   4.058  -5.319  0.00  0.00    +0.046 C 
ATOM     20  C   UNL     1      -2.642   4.233  -7.129  0.00  0.00    +0.044 C 
ENDBRANCH   8  16
ENDBRANCH   1   8
BRANCH   6  21
ATOM     21  C   UNL     1       0.694   1.845   1.349  0.00  0.00    +0.019 C 
BRANCH  21  22
ATOM     22  C   UNL     1       1.968   2.562   1.715  0.00  0.00    +0.204 C 
ATOM     23  O   UNL     1       2.287   3.571   1.123  0.00  0.00    -0.277 OA
ATOM     24  N   UNL     1       2.752   2.083   2.701  0.00  0.00    -0.242 N 
ATOM     25  C   UNL     1       3.890   2.725   3.029  0.00  0.00    +0.306 C 
ATOM     26  O   UNL     1       4.210   3.736   2.435  0.00  0.00    -0.252 OA
ATOM     27  N   UNL     1       4.675   2.245   4.015  0.00  0.00    -0.295 N 
ATOM     28  H   UNL     1       2.496   1.276   3.175  0.00  0.00    +0.159 HD
ATOM     29  H   UNL     1       4.419   1.438   4.488  0.00  0.00    +0.151 HD
BRANCH  27  30
ATOM     30  C   UNL     1       5.913   2.943   4.371  0.00  0.00    +0.141 C 
BRANCH  30  31
ATOM     31  C   UNL     1       6.598   2.208   5.493  0.00  0.00    -0.030 A 
ATOM     32  C   UNL     1       6.316   2.534   6.807  0.00  0.00    +0.005 A 
ATOM     33  C   UNL     1       6.941   1.856   7.837  0.00  0.00    +0.000 A 
ATOM     34  C   UNL     1       7.857   0.860   7.553  0.00  0.00    +0.000 A 
ATOM     35  C   UNL     1       8.143   0.538   6.240  0.00  0.00    +0.000 A 
ATOM     36  C   UNL     1       7.514   1.212   5.210  0.00  0.00    +0.005 A 
ENDBRANCH  30  31
ENDBRANCH  27  30
ENDBRANCH  21  22
ENDBRANCH   6  21
TORSDOF 6
