REMARK  Name = ZINC39694885
REMARK  7 active torsions:
REMARK  status: ('A' for Active; 'I' for Inactive)
REMARK    1  A    between atoms: C_1  and  C_2
REMARK    2  A    between atoms: C_4  and  C_37
REMARK    3  A    between atoms: C_6  and  C_8
REMARK    4  A    between atoms: C_8  and  N_9
REMARK    5  A    between atoms: C_10  and  C_12
REMARK    6  A    between atoms: C_23  and  C_25
REMARK    7  A    between atoms: C_28  and  C_30
REMARK                            x       y       z     vdW  Elec       q    Type
REMARK                         _______ _______ _______ _____ _____    ______ ____
ROOT
ATOM      1  C   UNL     1       3.127  -3.974   4.472  0.00  0.00    +0.100 C 
ATOM      2  C   UNL     1       3.874  -2.629   4.617  0.00  0.00    +0.121 C 
ATOM      3  N   UNL     1       3.762  -2.292   6.056  0.00  0.00    -0.294 N 
ATOM      4  C   UNL     1       3.931  -3.590   6.753  0.00  0.00    +0.115 C 
ATOM      5  C   UNL     1       3.170  -4.603   5.875  0.00  0.00    -0.004 C 
ATOM      6  C   UNL     1       1.754  -4.802   6.408  0.00  0.00    -0.010 C 
ATOM      7  C   UNL     1       1.821  -5.481   7.779  0.00  0.00    -0.082 C 
ATOM      8  N   UNL     1       2.505  -6.773   7.654  0.00  0.00    +0.379 N 
ATOM      9  C   UNL     1       3.895  -6.566   7.230  0.00  0.00    -0.082 C 
ATOM     10  C   UNL     1       3.916  -5.933   5.836  0.00  0.00    -0.010 C 
ATOM     11  C   UNL     1       3.554  -1.080   6.607  0.00  0.00    +0.282 C 
ATOM     12  O   UNL     1       3.486  -0.965   7.817  0.00  0.00    -0.267 OA
ATOM     13  H   UNL     1       2.494  -7.245   8.546  0.00  0.00    -0.086 HD
ATOM     14  H   UNL     1       2.027  -7.341   6.971  0.00  0.00    -0.086 HD
ENDROOT
BRANCH  11  15
ATOM     15  C   UNL     1       3.409   0.099   5.750  0.00  0.00    +0.190 A 
ATOM     16  C   UNL     1       3.199   1.391   6.180  0.00  0.00    +0.055 A 
ATOM     17  C   UNL     1       3.123   2.190   5.035  0.00  0.00    +0.051 A 
ATOM     18  C   UNL     1       3.287   1.366   3.958  0.00  0.00    +0.139 A 
ATOM     19  O   UNL     1       3.464   0.110   4.401  0.00  0.00    -0.450 OA
BRANCH  18  20
ATOM     20  C   UNL     1       3.277   1.786   2.543  0.00  0.00    +0.052 A 
ATOM     21  C   UNL     1       2.244   2.589   2.056  0.00  0.00    +0.014 A 
ATOM     22  C   UNL     1       2.241   2.978   0.733  0.00  0.00    +0.001 A 
ATOM     23  C   UNL     1       3.259   2.575  -0.113  0.00  0.00    +0.003 A 
ATOM     24  C   UNL     1       4.287   1.780   0.359  0.00  0.00    +0.039 A 
ATOM     25  C   UNL     1       4.307   1.387   1.685  0.00  0.00    +0.134 A 
ATOM     26  F   UNL     1       5.314   0.616   2.147  0.00  0.00    -0.205 F 
ENDBRANCH  18  20
ENDBRANCH  11  15
BRANCH   1  28
ATOM     27  N   UNL     1       1.048  -4.676   3.331  0.00  0.00    -0.311 N 
ATOM     28  C   UNL     1       1.701  -3.739   4.046  0.00  0.00    +0.218 C 
ATOM     29  O   UNL     1       1.141  -2.706   4.346  0.00  0.00    -0.275 OA
ATOM     30  H   UNL     1       1.496  -5.502   3.091  0.00  0.00    +0.149 HD
BRANCH  27  31
ATOM     31  C   UNL     1      -0.339  -4.447   2.916  0.00  0.00    +0.139 C 
BRANCH  31  37
ATOM     32  C   UNL     1      -0.954  -6.816  -1.449  0.00  0.00    +0.044 C 
ATOM     33  C   UNL     1      -1.127  -6.771   0.047  0.00  0.00    -0.050 A 
ATOM     34  C   UNL     1      -1.740  -7.822   0.703  0.00  0.00    +0.006 A 
ATOM     35  C   UNL     1      -1.899  -7.781   2.076  0.00  0.00    -0.050 A 
ATOM     36  C   UNL     1      -1.445  -6.689   2.792  0.00  0.00    +0.008 A 
ATOM     37  C   UNL     1      -0.832  -5.638   2.136  0.00  0.00    -0.030 A 
ATOM     38  C   UNL     1      -0.669  -5.681   0.764  0.00  0.00    +0.008 A 
ATOM     39  C   UNL     1      -2.567  -8.927   2.792  0.00  0.00    +0.044 C 
ENDBRANCH  31  37
ENDBRANCH  27  31
ENDBRANCH   1  28
TORSDOF 5
