REMARK  Name = ZINC09481605
REMARK  10 active torsions:
REMARK  status: ('A' for Active; 'I' for Inactive)
REMARK    1  A    between atoms: C_1  and  C_2
REMARK    2  A    between atoms: C_2  and  N_61
REMARK    3  A    between atoms: C_3  and  C_4
REMARK    4  A    between atoms: C_3  and  N_61
REMARK    5  A    between atoms: C_10  and  C_16
REMARK    6  A    between atoms: C_11  and  C_15
REMARK    7  A    between atoms: C_19  and  C_22
REMARK    8  A    between atoms: C_23  and  C_24
REMARK    9  A    between atoms: C_23  and  N_61
REMARK   10  A    between atoms: N_26  and  C_27
REMARK                            x       y       z     vdW  Elec       q    Type
REMARK                         _______ _______ _______ _____ _____    ______ ____
ROOT
ATOM      1  C   UNL     1      -1.857  -1.945  -0.219  0.00  0.00    +0.094 A 
ATOM      2  N   UNL     1      -3.092  -2.445   0.041  0.00  0.00    -0.312 N 
ATOM      3  H   UNL     1      -3.795  -1.845   0.336  0.00  0.00    +0.170 HD
ATOM      4  C   UNL     1      -3.362  -3.755  -0.108  0.00  0.00    +0.260 A 
ATOM      5  O   UNL     1      -4.477  -4.188   0.125  0.00  0.00    -0.267 OA
ATOM      6  C   UNL     1      -2.317  -4.634  -0.538  0.00  0.00    +0.080 A 
ATOM      7  C   UNL     1      -2.357  -6.074  -0.765  0.00  0.00    +0.007 A 
ATOM      8  C   UNL     1      -1.229  -6.700  -1.176  0.00  0.00    -0.003 A 
ATOM      9  S   UNL     1      -0.038  -5.378  -1.282  0.00  0.00    -0.073 S 
ATOM     10  C   UNL     1      -1.073  -4.028  -0.777  0.00  0.00    +0.116 A 
ATOM     11  N   UNL     1      -0.883  -2.722  -0.613  0.00  0.00    -0.229 NA
ATOM     12  C   UNL     1      -1.028  -8.164  -1.473  0.00  0.00    +0.052 C 
ENDROOT
BRANCH   7  13
ATOM     13  C   UNL     1      -3.610  -6.837  -0.550  0.00  0.00    -0.016 A 
ATOM     14  C   UNL     1      -4.153  -6.945   0.729  0.00  0.00    +0.009 A 
ATOM     15  C   UNL     1      -5.322  -7.652   0.922  0.00  0.00    +0.004 A 
ATOM     16  C   UNL     1      -5.949  -8.263  -0.149  0.00  0.00    -0.050 A 
ATOM     17  C   UNL     1      -5.411  -8.164  -1.420  0.00  0.00    +0.004 A 
ATOM     18  C   UNL     1      -4.246  -7.455  -1.626  0.00  0.00    +0.009 A 
ATOM     19  C   UNL     1      -7.222  -9.040   0.069  0.00  0.00    +0.044 C 
ENDBRANCH   7  13
BRANCH   1  20
ATOM     20  C   UNL     1      -1.603  -0.470  -0.044  0.00  0.00    -0.003 C 
BRANCH  20  21
ATOM     21  N   UNL     1      -0.187  -0.189  -0.361  0.00  0.00    +0.390 N 
ATOM     22  H   UNL     1       0.409  -0.828   0.178  0.00  0.00    -0.081 HD
BRANCH  21  24
ATOM     23  C   UNL     1      -0.873   0.468  -2.643  0.00  0.00    -0.017 C 
ATOM     24  C   UNL     1       0.061  -0.405  -1.803  0.00  0.00    -0.081 C 
ENDBRANCH  21  24
BRANCH  21  25
ATOM     25  C   UNL     1       0.147   1.203   0.006  0.00  0.00    +0.019 C 
BRANCH  25  26
ATOM     26  C   UNL     1       1.646   1.354   0.021  0.00  0.00    +0.197 C 
ATOM     27  O   UNL     1       2.355   0.386  -0.153  0.00  0.00    -0.278 OA
ATOM     28  N   UNL     1       2.199   2.566   0.227  0.00  0.00    -0.312 N 
ATOM     29  H   UNL     1       1.632   3.341   0.366  0.00  0.00    +0.149 HD
BRANCH  28  30
ATOM     30  C   UNL     1       3.657   2.713   0.242  0.00  0.00    +0.095 C 
ATOM     31  C   UNL     1       4.168   2.875  -1.199  0.00  0.00    +0.046 C 
ATOM     32  C   UNL     1       5.652   3.339  -1.137  0.00  0.00    +0.168 C 
ATOM     33  S   UNL     1       5.569   4.548   0.250  0.00  0.00    -0.029 S 
ATOM     34  O   UNL     1       5.334   5.845  -0.281  0.00  0.00    -0.174 OA
ATOM     35  O   UNL     1       6.677   4.336   1.114  0.00  0.00    -0.174 OA
ATOM     36  C   UNL     1       4.040   3.955   1.081  0.00  0.00    +0.188 C 
ENDBRANCH  28  30
ENDBRANCH  25  26
ENDBRANCH  21  25
ENDBRANCH  20  21
ENDBRANCH   1  20
TORSDOF 7
