REMARK  Name = ZINC31767920
REMARK  10 active torsions:
REMARK  status: ('A' for Active; 'I' for Inactive)
REMARK    1  A    between atoms: C_1  and  C_2
REMARK    2  A    between atoms: C_2  and  C_28
REMARK    3  A    between atoms: N_5  and  C_9
REMARK    4  A    between atoms: C_9  and  C_10
REMARK    5  A    between atoms: N_12  and  C_13
REMARK    6  A    between atoms: C_15  and  C_24
REMARK    7  A    between atoms: N_17  and  C_18
REMARK    8  A    between atoms: C_24  and  C_25
REMARK    9  A    between atoms: C_24  and  C_26
REMARK   10  A    between atoms: C_24  and  C_27
REMARK                            x       y       z     vdW  Elec       q    Type
REMARK                         _______ _______ _______ _____ _____    ______ ____
ROOT
ATOM      1  C   UNL     1      -2.585  -3.391   1.260  0.00  0.00    +0.236 C 
ATOM      2  O   UNL     1      -1.707  -3.759   0.508  0.00  0.00    -0.274 OA
ATOM      3  N   UNL     1      -3.573  -4.239   1.608  0.00  0.00    -0.269 N 
ATOM      4  H   UNL     1      -4.275  -3.944   2.209  0.00  0.00    +0.156 HD
ENDROOT
BRANCH   3   5
ATOM      5  C   UNL     1      -3.587  -5.538   1.103  0.00  0.00    +0.129 A 
ATOM      6  C   UNL     1      -2.669  -6.085   0.259  0.00  0.00    +0.069 A 
ATOM      7  C   UNL     1      -3.055  -7.403   0.001  0.00  0.00    +0.071 A 
ATOM      8  N   UNL     1      -4.160  -7.649   0.658  0.00  0.00    -0.169 NA
ATOM      9  N   UNL     1      -4.518  -6.495   1.368  0.00  0.00    -0.218 N 
BRANCH   9  10
ATOM     10  C   UNL     1      -5.637  -6.351   2.199  0.00  0.00    +0.067 A 
ATOM     11  C   UNL     1      -5.562  -5.558   3.336  0.00  0.00    +0.028 A 
ATOM     12  C   UNL     1      -6.667  -5.418   4.153  0.00  0.00    +0.002 A 
ATOM     13  C   UNL     1      -7.847  -6.066   3.840  0.00  0.00    +0.000 A 
ATOM     14  C   UNL     1      -7.925  -6.857   2.708  0.00  0.00    +0.002 A 
ATOM     15  C   UNL     1      -6.826  -6.996   1.884  0.00  0.00    +0.028 A 
ENDBRANCH   9  10
BRANCH   7  16
ATOM     16  C   UNL     1      -2.322  -8.377  -0.885  0.00  0.00    +0.006 C 
ATOM     17  C   UNL     1      -1.070  -8.880  -0.165  0.00  0.00    +0.017 C 
ATOM     18  C   UNL     1      -3.236  -9.562  -1.206  0.00  0.00    +0.017 C 
ATOM     19  C   UNL     1      -1.918  -7.679  -2.185  0.00  0.00    +0.017 C 
ENDBRANCH   7  16
ENDBRANCH   3   5
BRANCH   1  20
ATOM     20  C   UNL     1      -2.569  -1.986   1.805  0.00  0.00    +0.214 C 
BRANCH  20  25
ATOM     21  C   UNL     1      -0.019   1.526   0.010  0.00  0.00    +0.047 C 
ATOM     22  C   UNL     1       0.002  -0.004   0.002  0.00  0.00    +0.135 C 
ATOM     23  C   UNL     1      -1.403  -0.557   0.139  0.00  0.00    +0.251 C 
ATOM     24  O   UNL     1      -2.332  -0.392  -0.621  0.00  0.00    -0.272 OA
ATOM     25  N   UNL     1      -1.403  -1.272   1.282  0.00  0.00    -0.215 N 
ATOM     26  C   UNL     1      -0.206  -1.247   1.879  0.00  0.00    +0.310 C 
ATOM     27  O   UNL     1       0.040  -1.819   2.924  0.00  0.00    -0.252 OA
ATOM     28  N   UNL     1       0.695  -0.520   1.195  0.00  0.00    -0.281 N 
ATOM     29  H   UNL     1       1.621  -0.365   1.440  0.00  0.00    +0.152 HD
BRANCH  22  30
ATOM     30  C   UNL     1       0.657  -0.517  -1.255  0.00  0.00    -0.015 A 
ATOM     31  C   UNL     1      -0.108  -0.772  -2.378  0.00  0.00    +0.009 A 
ATOM     32  C   UNL     1       0.491  -1.242  -3.531  0.00  0.00    +0.039 A 
ATOM     33  C   UNL     1       1.859  -1.457  -3.561  0.00  0.00    +0.123 A 
ATOM     34  C   UNL     1       2.624  -1.202  -2.436  0.00  0.00    +0.039 A 
ATOM     35  C   UNL     1       2.023  -0.727  -1.285  0.00  0.00    +0.009 A 
ATOM     36  F   UNL     1       2.446  -1.917  -4.688  0.00  0.00    -0.205 F 
ENDBRANCH  22  30
ENDBRANCH  20  25
ENDBRANCH   1  20
TORSDOF 6
