REMARK  Name = ZINC02629278
REMARK  14 active torsions:
REMARK  status: ('A' for Active; 'I' for Inactive)
REMARK    1  A    between atoms: C_1  and  C_2
REMARK    2  A    between atoms: C_2  and  C_4
REMARK    3  A    between atoms: C_2  and  O_31
REMARK    4  A    between atoms: C_4  and  C_6
REMARK    5  A    between atoms: C_4  and  N_20
REMARK    6  A    between atoms: C_6  and  O_8
REMARK    7  A    between atoms: O_8  and  C_9
REMARK    8  A    between atoms: C_9  and  C_10
REMARK    9  A    between atoms: C_10  and  C_12
REMARK   10  A    between atoms: C_12  and  C_14
REMARK   11  A    between atoms: C_12  and  C_16
REMARK   12  A    between atoms: C_16  and  N_45
REMARK   13  A    between atoms: N_20  and  S_21
REMARK   14  A    between atoms: S_21  and  C_24
REMARK                            x       y       z     vdW  Elec       q    Type
REMARK                         _______ _______ _______ _____ _____    ______ ____
ROOT
ATOM      1  C   UNL     1       0.093   1.118  -0.044  0.00  0.00    +0.213 C 
ENDROOT
BRANCH   1   3
ATOM      2  C   UNL     1       1.496   3.144  -0.454  0.00  0.00    +0.040 C 
ATOM      3  C   UNL     1       1.524   1.638  -0.187  0.00  0.00    +0.141 C 
BRANCH   3   4
ATOM      4  O   UNL     1       2.247   1.382   1.019  0.00  0.00    -0.390 OA
ATOM      5  H   UNL     1       2.378   0.442   1.207  0.00  0.00    +0.210 HD
ENDBRANCH   3   4
ENDBRANCH   1   3
BRANCH   1   6
ATOM      6  C   UNL     1      -0.570   1.788   1.132  0.00  0.00    +0.329 C 
ATOM      7  O   UNL     1      -1.568   2.448   0.968  0.00  0.00    -0.249 OA
BRANCH   6   8
ATOM      8  O   UNL     1      -0.051   1.650   2.362  0.00  0.00    -0.456 OA
BRANCH   8   9
ATOM      9  C   UNL     1      -0.742   2.323   3.448  0.00  0.00    +0.308 C 
BRANCH   9  10
ATOM     10  C   UNL     1      -0.019   2.057   4.744  0.00  0.00    +0.193 C 
ATOM     11  O   UNL     1       0.975   1.371   4.752  0.00  0.00    -0.292 OA
BRANCH  10  12
ATOM     12  C   UNL     1      -0.538   2.646   6.030  0.00  0.00    +0.202 C 
BRANCH  12  13
ATOM     13  C   UNL     1      -0.020   4.015   6.186  0.00  0.00    +0.080 C 
ATOM     14  N   UNL     1       0.379   5.072   6.307  0.00  0.00    -0.195 NA
ENDBRANCH  12  13
BRANCH  12  15
ATOM     15  C   UNL     1      -0.080   1.801   7.191  0.00  0.00    +0.003 C 
ATOM     16  C   UNL     1      -0.969   1.231   7.983  0.00  0.00    +0.028 C 
BRANCH  15  19
ATOM     17  H   UNL     1       1.930   2.041   6.845  0.00  0.00    +0.120 HD
ATOM     18  H   UNL     1       1.571   1.077   8.174  0.00  0.00    +0.120 HD
ATOM     19  N   UNL     1       1.282   1.847   7.591  0.00  0.00    -0.419 NA
ATOM     20  H   UNL     1       1.372   2.663   8.207  0.00  0.00    +0.120 HD
ENDBRANCH  15  19
ENDBRANCH  12  15
ENDBRANCH  10  12
ENDBRANCH   9  10
ENDBRANCH   8   9
ENDBRANCH   6   8
ENDBRANCH   1   6
BRANCH   1  21
ATOM     21  N   UNL     1      -0.660   1.419  -1.265  0.00  0.00    -0.174 NA
ATOM     22  H   UNL     1      -1.067   2.292  -1.381  0.00  0.00    +0.149 HD
BRANCH  21  23
ATOM     23  S   UNL     1      -0.816   0.269  -2.446  0.00  0.00    +0.059 S 
ATOM     24  O   UNL     1      -1.610   0.847  -3.473  0.00  0.00    -0.153 OA
ATOM     25  O   UNL     1       0.487  -0.244  -2.688  0.00  0.00    -0.153 OA
BRANCH  23  26
ATOM     26  C   UNL     1      -1.759  -1.054  -1.764  0.00  0.00    +0.105 A 
ATOM     27  C   UNL     1      -1.121  -2.099  -1.124  0.00  0.00    +0.030 A 
ATOM     28  C   UNL     1      -1.861  -3.135  -0.584  0.00  0.00    +0.022 A 
ATOM     29  C   UNL     1      -3.240  -3.129  -0.694  0.00  0.00    +0.041 A 
ATOM     30  C   UNL     1      -3.878  -2.085  -1.340  0.00  0.00    +0.022 A 
ATOM     31  C   UNL     1      -3.137  -1.048  -1.874  0.00  0.00    +0.030 A 
ATOM     32 CL   UNL     1      -4.170  -4.432  -0.022  0.00  0.00    -0.084 Cl
ENDBRANCH  23  26
ENDBRANCH  21  23
ENDBRANCH   1  21
TORSDOF 13
