REMARK  Name = ZINC48160976
REMARK  7 active torsions:
REMARK  status: ('A' for Active; 'I' for Inactive)
REMARK    1  A    between atoms: C_1  and  C_2
REMARK    2  A    between atoms: C_2  and  C_4
REMARK    3  A    between atoms: C_2  and  N_14
REMARK    4  A    between atoms: N_17  and  C_18
REMARK    5  A    between atoms: C_21  and  C_24
REMARK    6  A    between atoms: N_26  and  C_27
REMARK    7  A    between atoms: C_27  and  C_28
REMARK                            x       y       z     vdW  Elec       q    Type
REMARK                         _______ _______ _______ _____ _____    ______ ____
ROOT
ATOM      1  N   UNL     1      -1.371  -0.516   0.012  0.00  0.00    -0.293 N 
ATOM      2  C   UNL     1      -2.052  -0.640  -1.144  0.00  0.00    +0.304 C 
ATOM      3  O   UNL     1      -1.526  -0.329  -2.196  0.00  0.00    -0.252 OA
ATOM      4  N   UNL     1      -3.315  -1.109  -1.135  0.00  0.00    -0.269 N 
ATOM      5  H   UNL     1      -1.790  -0.765   0.851  0.00  0.00    +0.151 HD
ATOM      6  H   UNL     1      -3.711  -1.420  -0.306  0.00  0.00    +0.156 HD
ENDROOT
BRANCH   4   7
ATOM      7  C   UNL     1      -4.053  -1.147  -2.317  0.00  0.00    +0.035 A 
ATOM      8  C   UNL     1      -3.419  -1.431  -3.523  0.00  0.00    +0.024 A 
ATOM      9  C   UNL     1      -4.144  -1.470  -4.692  0.00  0.00    +0.015 A 
ATOM     10  C   UNL     1      -5.520  -1.224  -4.667  0.00  0.00    +0.037 A 
ATOM     11  C   UNL     1      -6.154  -0.939  -3.455  0.00  0.00    +0.015 A 
ATOM     12  C   UNL     1      -5.423  -0.907  -2.289  0.00  0.00    +0.024 A 
BRANCH  10  13
ATOM     13  C   UNL     1      -6.301  -1.264  -5.919  0.00  0.00    +0.244 C 
ATOM     14  O   UNL     1      -5.748  -1.511  -6.973  0.00  0.00    -0.270 OA
ATOM     15  N   UNL     1      -7.627  -1.026  -5.893  0.00  0.00    -0.308 N 
ATOM     16  H   UNL     1      -8.069  -0.829  -5.052  0.00  0.00    +0.149 HD
BRANCH  15  17
ATOM     17  C   UNL     1      -8.403  -1.066  -7.136  0.00  0.00    +0.131 C 
BRANCH  17  18
ATOM     18  C   UNL     1      -9.849  -0.768  -6.835  0.00  0.00    -0.016 C 
ATOM     19  C   UNL     1     -10.462   0.203  -7.464  0.00  0.00    +0.005 C 
ENDBRANCH  17  18
ENDBRANCH  15  17
ENDBRANCH  10  13
ENDBRANCH   4   7
BRANCH   1  21
ATOM     20  C   UNL     1      -0.021   1.523   0.022  0.00  0.00    +0.033 C 
ATOM     21  C   UNL     1       0.003  -0.007   0.002  0.00  0.00    +0.102 C 
BRANCH  21  22
ATOM     22  C   UNL     1       0.736  -0.514   1.218  0.00  0.00    -0.027 A 
ATOM     23  C   UNL     1       0.090  -0.581   2.439  0.00  0.00    +0.007 A 
ATOM     24  C   UNL     1       0.755  -1.044   3.555  0.00  0.00    +0.024 A 
ATOM     25  C   UNL     1       2.085  -1.450   3.459  0.00  0.00    +0.037 A 
ATOM     26  C   UNL     1       2.722  -1.378   2.227  0.00  0.00    -0.017 A 
ATOM     27  C   UNL     1       2.055  -0.920   1.113  0.00  0.00    +0.011 A 
ATOM     28  C   UNL     1       4.131  -1.880   2.447  0.00  0.00    +0.133 C 
ATOM     29  C   UNL     1       4.173  -2.223   3.920  0.00  0.00    +0.222 C 
ATOM     30  O   UNL     1       5.124  -2.666   4.530  0.00  0.00    -0.275 OA
ATOM     31  N   UNL     1       2.959  -1.947   4.426  0.00  0.00    -0.285 N 
ATOM     32  H   UNL     1       2.719  -2.078   5.356  0.00  0.00    +0.155 HD
ENDBRANCH  21  22
ENDBRANCH   1  21
TORSDOF 6
