REMARK  Name = ZINC64176322
REMARK  7 active torsions:
REMARK  status: ('A' for Active; 'I' for Inactive)
REMARK    1  A    between atoms: C_1  and  C_2
REMARK    2  A    between atoms: N_10  and  N_11
REMARK    3  A    between atoms: C_12  and  C_14
REMARK    4  A    between atoms: C_18  and  S_20
REMARK    5  A    between atoms: S_20  and  N_23
REMARK    6  A    between atoms: N_23  and  C_24
REMARK    7  A    between atoms: C_24  and  C_25
REMARK                            x       y       z     vdW  Elec       q    Type
REMARK                         _______ _______ _______ _____ _____    ______ ____
ROOT
ATOM      1  C   UNL     1      -4.705  -4.184   3.747  0.00  0.00    +0.040 A 
ATOM      2  C   UNL     1      -5.533  -3.816   2.685  0.00  0.00    +0.013 A 
ATOM      3  C   UNL     1      -6.833  -4.274   2.638  0.00  0.00    +0.003 A 
ATOM      4  C   UNL     1      -7.318  -5.095   3.641  0.00  0.00    +0.028 A 
ATOM      5  C   UNL     1      -6.502  -5.463   4.696  0.00  0.00    +0.106 A 
ATOM      6  C   UNL     1      -5.198  -5.017   4.752  0.00  0.00    +0.041 A 
ENDROOT
BRANCH   1   8
ATOM      7  N   UNL     1      -2.837  -2.893   2.831  0.00  0.00    -0.230 N 
ATOM      8  C   UNL     1      -3.310  -3.697   3.803  0.00  0.00    +0.260 C 
ATOM      9  O   UNL     1      -2.589  -4.023   4.726  0.00  0.00    -0.269 OA
ATOM     10  H   UNL     1      -3.412  -2.633   2.094  0.00  0.00    +0.173 HD
BRANCH   7  19
ATOM     11  C   UNL     1      -0.019   1.526   0.010  0.00  0.00    +0.044 C 
ATOM     12  C   UNL     1       0.002  -0.004   0.002  0.00  0.00    +0.210 C 
ATOM     13  C   UNL     1      -1.432  -0.493  -0.073  0.00  0.00    +0.265 C 
ATOM     14  O   UNL     1      -2.166  -0.178  -0.989  0.00  0.00    -0.271 OA
ATOM     15  N   UNL     1      -1.851  -1.291   0.921  0.00  0.00    -0.145 NA
ATOM     16  C   UNL     1      -1.036  -1.618   1.901  0.00  0.00    +0.218 C 
ATOM     17  N   UNL     1       0.254  -1.195   1.995  0.00  0.00    -0.253 N 
ATOM     18  N   UNL     1       0.791  -0.456   1.161  0.00  0.00    -0.197 NA
ATOM     19  N   UNL     1      -1.515  -2.432   2.884  0.00  0.00    -0.235 N 
ATOM     20  H   UNL     1      -0.940  -2.692   3.621  0.00  0.00    +0.173 HD
ATOM     21  H   UNL     1       0.780  -1.488   2.756  0.00  0.00    +0.191 HD
ENDBRANCH   7  19
ENDBRANCH   1   8
BRANCH   5  22
ATOM     22  S   UNL     1      -7.129  -6.508   5.968  0.00  0.00    +0.059 S 
ATOM     23  O   UNL     1      -6.338  -6.263   7.123  0.00  0.00    -0.153 OA
ATOM     24  O   UNL     1      -8.541  -6.349   5.965  0.00  0.00    -0.153 OA
BRANCH  22  25
ATOM     25  N   UNL     1      -6.828  -8.071   5.511  0.00  0.00    -0.185 NA
ATOM     26  H   UNL     1      -7.565  -8.672   5.322  0.00  0.00    +0.148 HD
BRANCH  25  27
ATOM     27  C   UNL     1      -5.447  -8.546   5.392  0.00  0.00    +0.148 C 
BRANCH  27  28
ATOM     28  C   UNL     1      -5.437 -10.051   5.331  0.00  0.00    +0.005 A 
ATOM     29  C   UNL     1      -5.502 -10.862   4.246  0.00  0.00    +0.012 A 
ATOM     30  C   UNL     1      -5.476 -12.232   4.430  0.00  0.00    +0.008 A 
ATOM     31  C   UNL     1      -5.387 -12.724   5.690  0.00  0.00    +0.045 A 
ATOM     32  S   UNL     1      -5.329 -11.230   6.667  0.00  0.00    -0.100 S 
ENDBRANCH  27  28
ENDBRANCH  25  27
ENDBRANCH  22  25
ENDBRANCH   5  22
TORSDOF 6
