REMARK  Name = ZINC06078215
REMARK  14 active torsions:
REMARK  status: ('A' for Active; 'I' for Inactive)
REMARK    1  A    between atoms: C_1  and  C_2
REMARK    2  A    between atoms: C_2  and  N_66
REMARK    3  A    between atoms: C_3  and  C_4
REMARK    4  A    between atoms: C_3  and  N_66
REMARK    5  A    between atoms: C_5  and  C_6
REMARK    6  A    between atoms: C_5  and  N_66
REMARK    7  A    between atoms: C_6  and  C_7
REMARK    8  A    between atoms: C_7  and  N_8
REMARK    9  A    between atoms: N_8  and  C_9
REMARK   10  A    between atoms: N_8  and  C_25
REMARK   11  A    between atoms: C_9  and  C_10
REMARK   12  A    between atoms: C_25  and  N_27
REMARK   13  A    between atoms: N_27  and  C_28
REMARK   14  A    between atoms: C_32  and  C_34
REMARK                            x       y       z     vdW  Elec       q    Type
REMARK                         _______ _______ _______ _____ _____    ______ ____
ROOT
ATOM      1  N   UNL     1       1.757   2.375   0.074  0.00  0.00    -0.308 N 
ENDROOT
BRANCH   1   2
ATOM      2  C   UNL     1       0.593   2.230   0.738  0.00  0.00    +0.137 C 
ATOM      3  S   UNL     1       0.573   2.273   2.450  0.00  0.00    -0.018 S 
BRANCH   2   4
ATOM      4  N   UNL     1      -0.555   2.052   0.055  0.00  0.00    -0.297 N 
ATOM      5  H   UNL     1      -0.536   1.968  -0.911  0.00  0.00    +0.154 HD
BRANCH   4   6
ATOM      6  C   UNL     1      -1.773   1.988   0.739  0.00  0.00    +0.033 A 
ATOM      7  C   UNL     1      -1.881   1.233   1.901  0.00  0.00    +0.023 A 
ATOM      8  C   UNL     1      -3.083   1.176   2.576  0.00  0.00    +0.002 A 
ATOM      9  C   UNL     1      -4.184   1.861   2.092  0.00  0.00    +0.003 A 
ATOM     10  C   UNL     1      -4.081   2.609   0.934  0.00  0.00    -0.049 A 
ATOM     11  C   UNL     1      -2.880   2.674   0.256  0.00  0.00    +0.026 A 
ATOM     12  C   UNL     1      -5.283   3.353   0.410  0.00  0.00    +0.044 C 
ENDBRANCH   4   6
ENDBRANCH   2   4
ENDBRANCH   1   2
BRANCH   1  13
ATOM     13  C   UNL     1       3.005   2.569   0.817  0.00  0.00    +0.105 C 
BRANCH  13  14
ATOM     14  C   UNL     1       3.240   4.065   1.037  0.00  0.00    +0.000 C 
BRANCH  14  15
ATOM     15  C   UNL     1       4.543   4.267   1.813  0.00  0.00    -0.077 C 
BRANCH  15  16
ATOM     16  N   UNL     1       4.767   5.716   1.999  0.00  0.00    +0.379 N 
ATOM     17  H   UNL     1       4.693   6.185   1.089  0.00  0.00    -0.082 HD
BRANCH  16  19
ATOM     18  C   UNL     1       3.786   5.560   4.263  0.00  0.00    -0.017 C 
ATOM     19  C   UNL     1       3.744   6.272   2.910  0.00  0.00    -0.082 C 
ENDBRANCH  16  19
BRANCH  16  20
ATOM     20  C   UNL     1       6.117   5.952   2.553  0.00  0.00    -0.082 C 
ATOM     21  C   UNL     1       6.409   7.454   2.520  0.00  0.00    -0.017 C 
ENDBRANCH  16  20
ENDBRANCH  15  16
ENDBRANCH  14  15
ENDBRANCH  13  14
ENDBRANCH   1  13
BRANCH   1  22
ATOM     22  C   UNL     1       1.774   2.339  -1.390  0.00  0.00    +0.147 C 
BRANCH  22  23
ATOM     23  C   UNL     1       1.976   0.920  -1.855  0.00  0.00    +0.035 A 
ATOM     24  C   UNL     1       0.902   0.152  -2.171  0.00  0.00    +0.020 A 
ATOM     25  C   UNL     1       1.131  -1.221  -2.620  0.00  0.00    +0.003 A 
ATOM     26  C   UNL     1       0.061  -2.057  -2.960  0.00  0.00    +0.059 A 
ATOM     27  C   UNL     1       0.308  -3.346  -3.380  0.00  0.00    +0.167 A 
ATOM     28  C   UNL     1       1.623  -3.820  -3.467  0.00  0.00    +0.168 A 
ATOM     29  C   UNL     1       2.686  -3.000  -3.133  0.00  0.00    +0.075 A 
ATOM     30  C   UNL     1       2.453  -1.698  -2.708  0.00  0.00    +0.053 A 
ATOM     31  N   UNL     1       3.502  -0.866  -2.372  0.00  0.00    -0.322 N 
ATOM     32  H   UNL     1       4.440  -1.206  -2.434  0.00  0.00    +0.169 HD
ATOM     33  C   UNL     1       3.280   0.395  -1.961  0.00  0.00    +0.254 A 
ATOM     34  O   UNL     1       4.231   1.102  -1.673  0.00  0.00    -0.268 OA
ATOM     35  O   UNL     1       1.589  -5.112  -3.903  0.00  0.00    -0.453 OA
ATOM     36  C   UNL     1       0.280  -5.292  -4.474  0.00  0.00    +0.466 C 
ATOM     37  O   UNL     1      -0.539  -4.346  -3.763  0.00  0.00    -0.453 OA
ENDBRANCH  22  23
ENDBRANCH   1  22
TORSDOF 11
