REMARK  Name = ZINC31158852
REMARK  12 active torsions:
REMARK  status: ('A' for Active; 'I' for Inactive)
REMARK    1  A    between atoms: C_1  and  C_2
REMARK    2  A    between atoms: C_2  and  C_10
REMARK    3  A    between atoms: C_5  and  C_8
REMARK    4  A    between atoms: C_5  and  C_9
REMARK    5  A    between atoms: C_11  and  C_12
REMARK    6  A    between atoms: C_17  and  O_18
REMARK    7  A    between atoms: C_19  and  C_27
REMARK    8  A    between atoms: C_19  and  O_35
REMARK    9  A    between atoms: C_20  and  O_25
REMARK   10  A    between atoms: O_25  and  C_26
REMARK   11  A    between atoms: C_30  and  O_33
REMARK   12  A    between atoms: O_33  and  C_34
REMARK                            x       y       z     vdW  Elec       q    Type
REMARK                         _______ _______ _______ _____ _____    ______ ____
ROOT
ATOM      1  C   UNL     1       2.286  -2.394  -1.878  0.00  0.00    +0.017 A 
ATOM      2  C   UNL     1       1.719  -1.833  -3.024  0.00  0.00    +0.013 A 
ATOM      3  C   UNL     1       2.376  -1.921  -4.231  0.00  0.00    +0.024 A 
ATOM      4  C   UNL     1       3.602  -2.574  -4.317  0.00  0.00    +0.043 A 
ATOM      5  C   UNL     1       4.180  -3.119  -3.179  0.00  0.00    +0.054 A 
ATOM      6  C   UNL     1       3.529  -3.034  -1.960  0.00  0.00    +0.132 A 
ATOM      7  C   UNL     1       5.532  -3.782  -3.260  0.00  0.00    +0.155 C 
ATOM      8  C   UNL     1       5.689  -4.463  -4.621  0.00  0.00    +0.244 C 
ATOM      9  C   UNL     1       5.291  -3.508  -5.715  0.00  0.00    +0.250 C 
ATOM     10  O   UNL     1       5.908  -3.500  -6.759  0.00  0.00    -0.272 OA
ATOM     11  N   UNL     1       4.258  -2.666  -5.547  0.00  0.00    -0.283 N 
ATOM     12  H   UNL     1       3.963  -2.114  -6.289  0.00  0.00    +0.155 HD
ENDROOT
BRANCH   7  13
ATOM     13  C   UNL     1       6.611  -2.744  -3.091  0.00  0.00    -0.008 A 
ATOM     14  C   UNL     1       7.638  -2.957  -2.191  0.00  0.00    +0.010 A 
ATOM     15  C   UNL     1       8.629  -2.007  -2.034  0.00  0.00    +0.046 A 
ATOM     16  C   UNL     1       8.591  -0.838  -2.780  0.00  0.00    +0.120 A 
ATOM     17  C   UNL     1       7.559  -0.627  -3.683  0.00  0.00    +0.046 A 
ATOM     18  C   UNL     1       6.574  -1.583  -3.840  0.00  0.00    +0.010 A 
BRANCH  16  19
ATOM     19  O   UNL     1       9.564   0.099  -2.626  0.00  0.00    -0.495 OA
ATOM     20  C   UNL     1       9.462   1.277  -3.427  0.00  0.00    +0.277 C 
ENDBRANCH  16  19
ENDBRANCH   7  13
BRANCH   1  22
ATOM     21  C   UNL     1       0.403  -1.700  -0.509  0.00  0.00    +0.008 C 
ATOM     22  C   UNL     1       1.581  -2.308  -0.584  0.00  0.00    +0.010 C 
BRANCH  21  24
ATOM     23  C   UNL     1      -0.526  -0.143   1.182  0.00  0.00    +0.046 C 
ATOM     24  C   UNL     1      -0.316  -1.612   0.812  0.00  0.00    +0.085 C 
ATOM     25  C   UNL     1      -1.675  -2.310   0.702  0.00  0.00    +0.039 C 
ATOM     26  C   UNL     1      -2.374  -2.269   2.064  0.00  0.00    +0.012 C 
ATOM     27  C   UNL     1      -1.467  -2.924   3.111  0.00  0.00    -0.011 C 
ATOM     28  C   UNL     1      -0.117  -2.203   3.128  0.00  0.00    +0.167 C 
ATOM     29  O   UNL     1       0.465  -2.252   1.824  0.00  0.00    -0.369 OA
ATOM     30  C   UNL     1      -2.121  -2.819   4.490  0.00  0.00    +0.013 C 
ATOM     31  C   UNL     1      -1.256  -4.396   2.754  0.00  0.00    +0.013 C 
ENDBRANCH  21  24
ENDBRANCH   1  22
BRANCH   6  32
ATOM     32  O   UNL     1       4.090  -3.575  -0.849  0.00  0.00    -0.506 OA
ATOM     33  H   UNL     1       3.847  -4.498  -0.694  0.00  0.00    +0.292 HD
ENDBRANCH   6  32
BRANCH   8  34
ATOM     34  O   UNL     1       4.853  -5.620  -4.673  0.00  0.00    -0.367 OA
ATOM     35  C   UNL     1       5.357  -6.664  -5.508  0.00  0.00    +0.195 C 
ENDBRANCH   8  34
BRANCH   7  36
ATOM     36  O   UNL     1       5.646  -4.759  -2.224  0.00  0.00    -0.376 OA
ATOM     37  H   UNL     1       6.452  -5.291  -2.272  0.00  0.00    +0.211 HD
ENDBRANCH   7  36
TORSDOF 7
