REMARK  Name = ZINC64046769
REMARK  11 active torsions:
REMARK  status: ('A' for Active; 'I' for Inactive)
REMARK    1  A    between atoms: C_1  and  C_2
REMARK    2  A    between atoms: C_4  and  C_12
REMARK    3  A    between atoms: C_18  and  C_20
REMARK    4  A    between atoms: C_20  and  N_21
REMARK    5  A    between atoms: C_22  and  C_24
REMARK    6  A    between atoms: C_26  and  O_34
REMARK    7  A    between atoms: C_27  and  O_32
REMARK    8  A    between atoms: C_28  and  O_30
REMARK    9  A    between atoms: O_30  and  C_31
REMARK   10  A    between atoms: O_32  and  C_33
REMARK   11  A    between atoms: O_34  and  C_35
REMARK                            x       y       z     vdW  Elec       q    Type
REMARK                         _______ _______ _______ _____ _____    ______ ____
ROOT
ATOM      1  C   UNL     1       0.379  -0.285  -2.575  0.00  0.00    +0.079 A 
ATOM      2  C   UNL     1       1.196  -0.730  -3.606  0.00  0.00    +0.076 A 
ATOM      3  S   UNL     1       0.358  -0.230  -4.976  0.00  0.00    -0.060 S 
ATOM      4  C   UNL     1      -1.030   0.543  -4.167  0.00  0.00    +0.165 A 
ATOM      5  N   UNL     1      -0.752   0.356  -2.895  0.00  0.00    -0.225 NA
ATOM      6  N   UNL     1      -2.126   1.176  -4.734  0.00  0.00    -0.263 N 
ATOM      7  C   UNL     1      -2.236   1.262  -6.075  0.00  0.00    +0.236 C 
ATOM      8  O   UNL     1      -1.375   0.787  -6.785  0.00  0.00    -0.274 OA
ATOM      9  H   UNL     1      -2.814   1.557  -4.166  0.00  0.00    +0.157 HD
ENDROOT
BRANCH   1  12
ATOM     10  C   UNL     1       1.782  -2.769  -1.166  0.00  0.00    +0.035 C 
ATOM     11  C   UNL     1       1.898  -1.315  -0.705  0.00  0.00    +0.109 C 
ATOM     12  C   UNL     1       0.728  -0.508  -1.226  0.00  0.00    +0.009 C 
ATOM     13  C   UNL     1       0.068  -0.033  -0.096  0.00  0.00    +0.005 A 
ATOM     14  C   UNL     1      -1.082   0.770   0.069  0.00  0.00    +0.010 A 
ATOM     15  C   UNL     1      -1.509   1.086   1.318  0.00  0.00    +0.001 A 
ATOM     16  C   UNL     1      -0.837   0.636   2.457  0.00  0.00    +0.002 A 
ATOM     17  C   UNL     1       0.273  -0.138   2.373  0.00  0.00    +0.026 A 
ATOM     18  C   UNL     1       0.779  -0.510   1.101  0.00  0.00    +0.043 A 
ATOM     19  N   UNL     1       1.824  -1.241   0.757  0.00  0.00    -0.377 N 
ATOM     20  H   UNL     1       2.443  -1.662   1.373  0.00  0.00    +0.160 HD
ENDBRANCH   1  12
BRANCH   7  21
ATOM     21  C   UNL     1      -3.426   1.950  -6.691  0.00  0.00    +0.200 C 
BRANCH  21  22
ATOM     22  N   UNL     1      -3.311   1.911  -8.151  0.00  0.00    -0.303 N 
ATOM     23  C   UNL     1      -4.269   2.469  -8.918  0.00  0.00    +0.245 C 
ATOM     24  O   UNL     1      -5.229   3.005  -8.398  0.00  0.00    -0.270 OA
ATOM     25  H   UNL     1      -2.546   1.484  -8.566  0.00  0.00    +0.150 HD
BRANCH  23  26
ATOM     26  C   UNL     1      -4.153   2.430 -10.389  0.00  0.00    +0.044 A 
ATOM     27  C   UNL     1      -3.054   1.809 -10.988  0.00  0.00    +0.062 A 
ATOM     28  C   UNL     1      -2.948   1.774 -12.366  0.00  0.00    +0.166 A 
ATOM     29  C   UNL     1      -3.935   2.355 -13.156  0.00  0.00    +0.204 A 
ATOM     30  C   UNL     1      -5.032   2.974 -12.562  0.00  0.00    +0.166 A 
ATOM     31  C   UNL     1      -5.145   3.007 -11.185  0.00  0.00    +0.062 A 
BRANCH  30  32
ATOM     32  O   UNL     1      -5.994   3.542 -13.337  0.00  0.00    -0.491 OA
ATOM     33  C   UNL     1      -7.091   4.160 -12.661  0.00  0.00    +0.277 C 
ENDBRANCH  30  32
BRANCH  29  34
ATOM     34  O   UNL     1      -3.829   2.319 -14.511  0.00  0.00    -0.488 OA
ATOM     35  C   UNL     1      -4.412   1.198 -15.178  0.00  0.00    +0.277 C 
ENDBRANCH  29  34
BRANCH  28  36
ATOM     36  O   UNL     1      -1.878   1.170 -12.949  0.00  0.00    -0.491 OA
ATOM     37  C   UNL     1      -0.903   0.594 -12.078  0.00  0.00    +0.277 C 
ENDBRANCH  28  36
ENDBRANCH  23  26
ENDBRANCH  21  22
ENDBRANCH   7  21
TORSDOF 7
