REMARK  Name = ZINC12433541
REMARK  7 active torsions:
REMARK  status: ('A' for Active; 'I' for Inactive)
REMARK    1  A    between atoms: C_1  and  C_2
REMARK    2  A    between atoms: C_9  and  C_20
REMARK    3  A    between atoms: C_10  and  C_11
REMARK    4  A    between atoms: C_11  and  N_58
REMARK    5  A    between atoms: C_12  and  C_13
REMARK    6  A    between atoms: C_12  and  N_58
REMARK    7  A    between atoms: C_13  and  N_14
REMARK                            x       y       z     vdW  Elec       q    Type
REMARK                         _______ _______ _______ _____ _____    ______ ____
ROOT
ATOM      1  C   UNL     1       1.528   8.856   5.404  0.00  0.00    +0.044 C 
ATOM      2  C   UNL     1       1.896   8.204   4.096  0.00  0.00    -0.046 A 
ATOM      3  C   UNL     1       3.067   8.589   3.420  0.00  0.00    +0.021 A 
ATOM      4  C   UNL     1       3.400   8.009   2.249  0.00  0.00    +0.093 A 
ATOM      5  N   UNL     1       2.607   7.040   1.702  0.00  0.00    -0.305 N 
ATOM      6  C   UNL     1       1.457   6.642   2.338  0.00  0.00    +0.139 A 
ATOM      7  C   UNL     1       1.097   7.241   3.565  0.00  0.00    +0.050 A 
ATOM      8  N   UNL     1       0.881   5.702   1.609  0.00  0.00    -0.223 NA
ATOM      9  C   UNL     1       1.627   5.478   0.512  0.00  0.00    +0.146 A 
ATOM     10  C   UNL     1       2.714   6.304   0.561  0.00  0.00    +0.039 A 
ENDROOT
BRANCH   9  11
ATOM     11  C   UNL     1       1.328   4.504  -0.556  0.00  0.00    +0.267 C 
ATOM     12  O   UNL     1       2.136   4.306  -1.442  0.00  0.00    -0.268 OA
ATOM     13  N   UNL     1       0.158   3.834  -0.547  0.00  0.00    -0.296 N 
ATOM     14  C   UNL     1      -0.140   2.918  -1.666  0.00  0.00    +0.108 C 
ATOM     15  C   UNL     1      -0.771   1.600  -1.183  0.00  0.00    +0.019 C 
ATOM     16  C   UNL     1      -0.089   1.129   0.078  0.00  0.00    +0.002 C 
ATOM     17  C   UNL     1      -0.836   1.676   1.291  0.00  0.00    +0.002 C 
ATOM     18  C   UNL     1      -0.434   3.033   1.688  0.00  0.00    +0.019 C 
ATOM     19  C   UNL     1      -0.752   4.041   0.557  0.00  0.00    +0.108 C 
ENDBRANCH   9  11
BRANCH  10  20
ATOM     20  C   UNL     1       3.821   6.389  -0.458  0.00  0.00    -0.025 C 
BRANCH  20  21
ATOM     21  N   UNL     1       4.888   5.438  -0.093  0.00  0.00    +0.384 N 
ATOM     22  H   UNL     1       4.502   4.487  -0.075  0.00  0.00    -0.085 HD
ATOM     23  H   UNL     1       5.251   5.678   0.837  0.00  0.00    -0.085 HD
BRANCH  21  24
ATOM     24  C   UNL     1       5.987   5.499  -1.075  0.00  0.00    -0.063 C 
BRANCH  24  25
ATOM     25  C   UNL     1       7.077   4.505  -0.670  0.00  0.00    +0.090 C 
BRANCH  25  26
ATOM     26  N   UNL     1       8.173   4.559  -1.641  0.00  0.00    -0.286 N 
ATOM     27  C   UNL     1       8.278   3.736  -2.854  0.00  0.00    +0.128 C 
ATOM     28  C   UNL     1       9.600   4.195  -3.500  0.00  0.00    +0.124 C 
ATOM     29  N   UNL     1      10.103   5.223  -2.576  0.00  0.00    -0.298 N 
ATOM     30  C   UNL     1       9.241   5.363  -1.561  0.00  0.00    +0.302 C 
ATOM     31  O   UNL     1       9.412   6.150  -0.650  0.00  0.00    -0.253 OA
ATOM     32  H   UNL     1      10.929   5.720  -2.685  0.00  0.00    +0.150 HD
ENDBRANCH  25  26
ENDBRANCH  24  25
ENDBRANCH  21  24
ENDBRANCH  20  21
ENDBRANCH  10  20
TORSDOF 6
