REMARK  Name = ZINC32943370
REMARK  10 active torsions:
REMARK  status: ('A' for Active; 'I' for Inactive)
REMARK    1  A    between atoms: C_1  and  C_2
REMARK    2  A    between atoms: C_5  and  C_9
REMARK    3  A    between atoms: C_9  and  N_11
REMARK    4  A    between atoms: N_13  and  C_14
REMARK    5  A    between atoms: C_17  and  C_20
REMARK    6  A    between atoms: C_20  and  C_21
REMARK    7  A    between atoms: C_20  and  C_22
REMARK    8  A    between atoms: N_23  and  C_24
REMARK    9  A    between atoms: C_24  and  C_25
REMARK   10  A    between atoms: C_25  and  C_26
REMARK                            x       y       z     vdW  Elec       q    Type
REMARK                         _______ _______ _______ _____ _____    ______ ____
ROOT
ATOM      1  N   UNL     1       1.654  -4.852   0.877  0.00  0.00    -0.143 NA
ATOM      2  C   UNL     1       0.871  -5.920   0.850  0.00  0.00    +0.194 C 
ATOM      3  N   UNL     1       0.139  -6.257   1.952  0.00  0.00    -0.328 N 
ATOM      4  N   UNL     1       0.796  -6.682  -0.278  0.00  0.00    -0.357 N 
ATOM      5  H   UNL     1      -0.358  -7.090   1.968  0.00  0.00    +0.169 HD
ATOM      6  H   UNL     1       1.250  -6.398  -1.087  0.00  0.00    +0.162 HD
ENDROOT
BRANCH   3   7
ATOM      7  C   UNL     1       0.105  -5.402   3.058  0.00  0.00    +0.042 A 
ATOM      8  C   UNL     1       0.088  -4.026   2.874  0.00  0.00    +0.026 A 
ATOM      9  C   UNL     1       0.056  -3.184   3.968  0.00  0.00    +0.006 A 
ATOM     10  C   UNL     1       0.039  -3.710   5.247  0.00  0.00    -0.045 A 
ATOM     11  C   UNL     1       0.056  -5.080   5.434  0.00  0.00    +0.006 A 
ATOM     12  C   UNL     1       0.083  -5.928   4.344  0.00  0.00    +0.026 A 
BRANCH  10  13
ATOM     13  C   UNL     1       0.004  -2.789   6.439  0.00  0.00    +0.013 C 
ATOM     14  C   UNL     1      -1.257  -3.066   7.260  0.00  0.00    +0.012 C 
ATOM     15  C   UNL     1       1.241  -3.030   7.306  0.00  0.00    +0.012 C 
ENDBRANCH  10  13
ENDBRANCH   3   7
BRANCH   1  16
ATOM     16  C   UNL     1       2.540  -4.646  -0.106  0.00  0.00    +0.270 C 
ATOM     17  O   UNL     1       2.702  -5.493  -0.968  0.00  0.00    -0.268 OA
BRANCH  16  22
ATOM     18  C   UNL     1       5.585   0.239  -0.270  0.00  0.00    +0.047 C 
ATOM     19  C   UNL     1       4.788  -1.040  -0.226  0.00  0.00    -0.015 A 
ATOM     20  C   UNL     1       4.973  -2.000  -1.204  0.00  0.00    +0.007 A 
ATOM     21  C   UNL     1       4.246  -3.173  -1.170  0.00  0.00    +0.013 A 
ATOM     22  C   UNL     1       3.323  -3.390  -0.147  0.00  0.00    +0.042 A 
ATOM     23  C   UNL     1       3.140  -2.419   0.837  0.00  0.00    +0.051 A 
ATOM     24  C   UNL     1       3.877  -1.250   0.796  0.00  0.00    +0.127 A 
ATOM     25  F   UNL     1       3.704  -0.310   1.751  0.00  0.00    -0.205 F 
ENDBRANCH  16  22
ENDBRANCH   1  16
BRANCH   4  26
ATOM     26  C   UNL     1       0.030  -7.931  -0.269  0.00  0.00    +0.120 C 
BRANCH  26  27
ATOM     27  C   UNL     1       0.212  -8.651  -1.607  0.00  0.00    +0.058 C 
BRANCH  27  28
ATOM     28  C   UNL     1      -0.671  -9.872  -1.644  0.00  0.00    -0.021 A 
ATOM     29  C   UNL     1      -0.315 -11.126  -1.325  0.00  0.00    +0.087 A 
ATOM     30  N   UNL     1      -1.381 -11.968  -1.481  0.00  0.00    -0.360 N 
ATOM     31  H   UNL     1      -1.367 -12.923  -1.310  0.00  0.00    +0.165 HD
ATOM     32  C   UNL     1      -2.479 -11.259  -1.915  0.00  0.00    +0.047 A 
ATOM     33  C   UNL     1      -2.084  -9.913  -2.031  0.00  0.00    +0.003 A 
ATOM     34  C   UNL     1      -3.003  -8.951  -2.451  0.00  0.00    +0.010 A 
ATOM     35  C   UNL     1      -4.285  -9.321  -2.746  0.00  0.00    +0.001 A 
ATOM     36  C   UNL     1      -4.681 -10.646  -2.630  0.00  0.00    +0.002 A 
ATOM     37  C   UNL     1      -3.787 -11.614  -2.225  0.00  0.00    +0.026 A 
ENDBRANCH  27  28
ENDBRANCH  26  27
ENDBRANCH   4  26
TORSDOF 7
