REMARK  Name = ZINC36211550
REMARK  9 active torsions:
REMARK  status: ('A' for Active; 'I' for Inactive)
REMARK    1  A    between atoms: C_1  and  C_2
REMARK    2  A    between atoms: C_2  and  C_3
REMARK    3  A    between atoms: C_3  and  C_5
REMARK    4  A    between atoms: C_3  and  N_6
REMARK    5  A    between atoms: C_7  and  C_9
REMARK    6  A    between atoms: C_9  and  C_11
REMARK    7  A    between atoms: C_9  and  N_26
REMARK    8  A    between atoms: C_17  and  C_19
REMARK    9  A    between atoms: C_27  and  C_29
REMARK                            x       y       z     vdW  Elec       q    Type
REMARK                         _______ _______ _______ _____ _____    ______ ____
ROOT
ATOM      1  C   UNL     1      -5.446   0.325  -2.865  0.00  0.00    +0.162 C 
ENDROOT
BRANCH   1   2
ATOM      2  C   UNL     1      -4.615   1.586  -3.108  0.00  0.00    +0.021 C 
ATOM      3  C   UNL     1      -4.920   2.616  -2.018  0.00  0.00    +0.025 C 
ATOM      4  C   UNL     1      -4.061   3.863  -2.245  0.00  0.00    +0.108 C 
ATOM      5  N   UNL     1      -4.284   4.349  -3.614  0.00  0.00    -0.298 N 
ATOM      6  C   UNL     1      -4.107   3.414  -4.733  0.00  0.00    +0.108 C 
ATOM      7  C   UNL     1      -4.966   2.171  -4.478  0.00  0.00    +0.025 C 
ATOM      8  C   UNL     1      -4.646   5.628  -3.838  0.00  0.00    +0.247 C 
ATOM      9  O   UNL     1      -4.761   6.036  -4.978  0.00  0.00    -0.270 OA
BRANCH   8  10
ATOM     10  C   UNL     1      -4.902   6.534  -2.699  0.00  0.00    +0.037 A 
ATOM     11  C   UNL     1      -3.964   6.652  -1.673  0.00  0.00    +0.014 A 
ATOM     12  C   UNL     1      -4.209   7.500  -0.613  0.00  0.00    +0.021 A 
ATOM     13  C   UNL     1      -5.383   8.232  -0.565  0.00  0.00    +0.041 A 
ATOM     14  C   UNL     1      -6.318   8.119  -1.581  0.00  0.00    +0.021 A 
ATOM     15  C   UNL     1      -6.082   7.279  -2.649  0.00  0.00    +0.014 A 
ATOM     16 CL   UNL     1      -5.685   9.296   0.773  0.00  0.00    -0.084 Cl
ENDBRANCH   8  10
ENDBRANCH   1   2
BRANCH   1  18
ATOM     17  N   UNL     1      -3.837  -0.639  -1.252  0.00  0.00    -0.311 N 
ATOM     18  C   UNL     1      -5.101  -0.252  -1.516  0.00  0.00    +0.234 C 
ATOM     19  O   UNL     1      -5.960  -0.368  -0.668  0.00  0.00    -0.274 OA
ATOM     20  H   UNL     1      -3.150  -0.546  -1.930  0.00  0.00    +0.149 HD
BRANCH  17  21
ATOM     21  C   UNL     1      -3.502  -1.200   0.059  0.00  0.00    +0.070 C 
ATOM     22  C   UNL     1      -3.806  -2.699   0.066  0.00  0.00    +0.028 C 
BRANCH  21  24
ATOM     23  C   UNL     1      -1.733   0.519   0.459  0.00  0.00    +0.005 C 
ATOM     24  C   UNL     1      -2.014  -0.980   0.342  0.00  0.00    +0.018 C 
ENDBRANCH  21  24
ENDBRANCH  17  21
ENDBRANCH   1  18
BRANCH   1  25
ATOM     25  N   UNL     1      -6.871   0.664  -2.900  0.00  0.00    -0.300 N 
ATOM     26  C   UNL     1      -7.781  -0.279  -3.215  0.00  0.00    +0.245 C 
ATOM     27  O   UNL     1      -7.419  -1.412  -3.468  0.00  0.00    -0.270 OA
ATOM     28  H   UNL     1      -7.159   1.568  -2.698  0.00  0.00    +0.150 HD
BRANCH  26  29
ATOM     29  C   UNL     1      -9.216   0.063  -3.251  0.00  0.00    +0.040 A 
ATOM     30  C   UNL     1      -9.633   1.365  -2.965  0.00  0.00    +0.017 A 
ATOM     31  C   UNL     1     -10.973   1.683  -3.000  0.00  0.00    +0.050 A 
ATOM     32  C   UNL     1     -11.913   0.713  -3.318  0.00  0.00    +0.166 A 
ATOM     33  C   UNL     1     -11.504  -0.590  -3.604  0.00  0.00    +0.167 A 
ATOM     34  C   UNL     1     -10.161  -0.913  -3.576  0.00  0.00    +0.062 A 
ATOM     35  O   UNL     1     -12.608  -1.343  -3.882  0.00  0.00    -0.453 OA
ATOM     36  C   UNL     1     -13.724  -0.593  -3.366  0.00  0.00    +0.466 C 
ATOM     37  O   UNL     1     -13.272   0.773  -3.419  0.00  0.00    -0.453 OA
ENDBRANCH  26  29
ENDBRANCH   1  25
TORSDOF 7
