REMARK  Name = ZINC20622955
REMARK  5 active torsions:
REMARK  status: ('A' for Active; 'I' for Inactive)
REMARK    1  A    between atoms: C_1  and  O_2
REMARK    2  A    between atoms: O_2  and  C_3
REMARK    3  A    between atoms: C_6  and  C_9
REMARK    4  A    between atoms: C_9  and  N_10
REMARK    5  A    between atoms: C_13  and  C_20
REMARK                            x       y       z     vdW  Elec       q    Type
REMARK                         _______ _______ _______ _____ _____    ______ ____
ROOT
ATOM      1  N   UNL     1       0.002  -0.004   0.002  0.00  0.00    -0.256 N 
ATOM      2  C   UNL     1       1.173  -0.672  -0.013  0.00  0.00    +0.263 A 
ATOM      3  O   UNL     1       1.183  -1.891  -0.020  0.00  0.00    -0.267 OA
ATOM      4  C   UNL     1       2.381   0.047  -0.021  0.00  0.00    +0.073 A 
ATOM      5  C   UNL     1       2.341   1.409  -0.013  0.00  0.00    +0.260 A 
ATOM      6  N   UNL     1       1.128   2.050   0.002  0.00  0.00    -0.275 N 
ATOM      7  H   UNL     1       1.086   3.149   0.009  0.00  0.00    +0.173 HD
ATOM      8  C   UNL     1      -0.016   1.341   0.009  0.00  0.00    +0.332 A 
ATOM      9  O   UNL     1      -1.082   1.926   0.018  0.00  0.00    -0.246 OA
ATOM     10  O   UNL     1       3.487   2.123  -0.020  0.00  0.00    -0.267 OA
ENDROOT
BRANCH   4  11
ATOM     11  C   UNL     1       3.702  -0.679  -0.038  0.00  0.00    +0.018 C 
ATOM     12  C   UNL     1       3.865  -1.466   1.240  0.00  0.00    +0.011 A 
ATOM     13  C   UNL     1       4.333  -2.738   1.265  0.00  0.00    -0.022 A 
ATOM     14  C   UNL     1       4.342  -3.161   2.647  0.00  0.00    +0.004 A 
ATOM     15  C   UNL     1       4.717  -4.354   3.275  0.00  0.00    +0.030 A 
ATOM     16  C   UNL     1       4.589  -4.404   4.642  0.00  0.00    +0.042 A 
ATOM     17  C   UNL     1       4.112  -3.330   5.377  0.00  0.00    +0.022 A 
ATOM     18  C   UNL     1       3.734  -2.139   4.782  0.00  0.00    +0.027 A 
ATOM     19  C   UNL     1       3.853  -2.059   3.396  0.00  0.00    +0.047 A 
ATOM     20  N   UNL     1       3.576  -1.056   2.510  0.00  0.00    -0.359 N 
ATOM     21  H   UNL     1       3.180  -0.045   2.685  0.00  0.00    +0.166 HD
ATOM     22 CL   UNL     1       5.039  -5.859   5.475  0.00  0.00    -0.084 Cl
ATOM     23  C   UNL     1       4.748  -3.497   0.030  0.00  0.00    +0.018 C 
ATOM     24  C   UNL     1       4.918  -2.487  -1.113  0.00  0.00    -0.076 C 
ATOM     25  N   UNL     1       3.737  -1.614  -1.174  0.00  0.00    +0.388 N 
ATOM     26  H   UNL     1       2.836  -2.244  -1.158  0.00  0.00    -0.084 HD
ATOM     27  H   UNL     1       3.771  -1.046  -2.116  0.00  0.00    -0.084 HD
ENDBRANCH   4  11
BRANCH   1  28
ATOM     28  C   UNL     1      -1.260  -0.748   0.010  0.00  0.00    +0.165 C 
BRANCH  28  32
ATOM     29  C   UNL     1      -2.525  -1.450  -4.011  0.00  0.00    +0.120 A 
ATOM     30  C   UNL     1      -1.709  -2.370  -3.369  0.00  0.00    +0.046 A 
ATOM     31  C   UNL     1      -1.302  -2.141  -2.069  0.00  0.00    +0.009 A 
ATOM     32  C   UNL     1      -1.706  -0.996  -1.408  0.00  0.00    -0.027 A 
ATOM     33  C   UNL     1      -2.523  -0.080  -2.044  0.00  0.00    +0.009 A 
ATOM     34  C   UNL     1      -2.929  -0.302  -3.346  0.00  0.00    +0.046 A 
BRANCH  29  36
ATOM     35  C   UNL     1      -3.766  -0.683  -5.888  0.00  0.00    +0.277 C 
ATOM     36  O   UNL     1      -2.927  -1.673  -5.290  0.00  0.00    -0.495 OA
ENDBRANCH  29  36
ENDBRANCH  28  32
ENDBRANCH   1  28
TORSDOF 4
