REMARK  Name = ZINC67393016
REMARK  9 active torsions:
REMARK  status: ('A' for Active; 'I' for Inactive)
REMARK    1  A    between atoms: C_1  and  C_2
REMARK    2  A    between atoms: N_7  and  C_9
REMARK    3  A    between atoms: C_9  and  C_10
REMARK    4  A    between atoms: C_9  and  C_11
REMARK    5  A    between atoms: C_9  and  C_12
REMARK    6  A    between atoms: C_12  and  N_13
REMARK    7  A    between atoms: C_14  and  C_16
REMARK    8  A    between atoms: N_18  and  C_19
REMARK    9  A    between atoms: C_21  and  N_27
REMARK                            x       y       z     vdW  Elec       q    Type
REMARK                         _______ _______ _______ _____ _____    ______ ____
ROOT
ATOM      1  N   UNL     1       2.209  -4.460   1.152  0.00  0.00    -0.309 N 
ATOM      2  C   UNL     1       2.338  -5.781   0.922  0.00  0.00    +0.299 C 
ATOM      3  O   UNL     1       1.945  -6.582   1.746  0.00  0.00    -0.265 OA
ATOM      4  H   UNL     1       2.523  -3.820   0.494  0.00  0.00    +0.149 HD
ENDROOT
BRANCH   2   5
ATOM      5  C   UNL     1       2.963  -6.261  -0.347  0.00  0.00    +0.303 C 
ATOM      6  O   UNL     1       3.355  -5.461  -1.170  0.00  0.00    -0.265 OA
ATOM      7  N   UNL     1       3.091  -7.583  -0.577  0.00  0.00    -0.275 N 
ATOM      8  H   UNL     1       2.837  -8.221   0.108  0.00  0.00    +0.155 HD
BRANCH   7   9
ATOM      9  C   UNL     1       3.590  -8.034  -1.804  0.00  0.00    +0.072 A 
ATOM     10  C   UNL     1       4.568  -7.305  -2.467  0.00  0.00    +0.062 A 
ATOM     11  C   UNL     1       5.060  -7.752  -3.678  0.00  0.00    +0.163 A 
ATOM     12  C   UNL     1       4.578  -8.927  -4.232  0.00  0.00    +0.156 A 
ATOM     13  C   UNL     1       3.602  -9.656  -3.574  0.00  0.00    +0.081 A 
ATOM     14  C   UNL     1       3.111  -9.216  -2.358  0.00  0.00    +0.147 A 
ATOM     15  F   UNL     1       2.163  -9.931  -1.713  0.00  0.00    -0.203 F 
ATOM     16  F   UNL     1       5.061  -9.361  -5.416  0.00  0.00    -0.203 F 
BRANCH  11  17
ATOM     17  N   UNL     1       6.102  -6.975  -4.385  0.00  0.00    +0.059 N 
ATOM     18  O   UNL     1       6.523  -5.949  -3.902  0.00  0.00    -0.126 OA
ATOM     19  O   UNL     1       6.533  -7.365  -5.445  0.00  0.00    -0.126 OA
ENDBRANCH  11  17
ENDBRANCH   7   9
ENDBRANCH   2   5
BRANCH   1  20
ATOM     20  C   UNL     1       1.596  -3.989   2.397  0.00  0.00    +0.092 C 
BRANCH  20  21
ATOM     21  C   UNL     1       1.573  -2.459   2.407  0.00  0.00    -0.055 C 
ATOM     22  C   UNL     1       3.004  -1.927   2.310  0.00  0.00    -0.008 C 
ATOM     23  C   UNL     1       0.933  -1.968   3.707  0.00  0.00    -0.008 C 
BRANCH  21  29
ATOM     24  C   UNL     1       0.018   1.536   0.043  0.00  0.00    +0.005 C 
ATOM     25  C   UNL     1       0.033   0.006   0.033  0.00  0.00    -0.031 C 
ATOM     26  C   UNL     1      -1.405  -0.520   0.056  0.00  0.00    -0.001 C 
ATOM     27  C   UNL     1      -1.377  -2.049   0.124  0.00  0.00    -0.018 C 
ATOM     28  C   UNL     1      -0.581  -2.485   1.356  0.00  0.00    -0.078 C 
ATOM     29  N   UNL     1       0.791  -1.974   1.262  0.00  0.00    +0.384 N 
ATOM     30  C   UNL     1       0.778  -0.506   1.268  0.00  0.00    -0.075 C 
ATOM     31  H   UNL     1       1.214  -2.301   0.406  0.00  0.00    -0.081 HD
ENDBRANCH  21  29
ENDBRANCH  20  21
ENDBRANCH   1  20
TORSDOF 6
