REMARK  Name = ZINC10440133
REMARK  9 active torsions:
REMARK  status: ('A' for Active; 'I' for Inactive)
REMARK    1  A    between atoms: C_1  and  C_2
REMARK    2  A    between atoms: C_2  and  C_3
REMARK    3  A    between atoms: C_10  and  C_12
REMARK    4  A    between atoms: C_15  and  S_18
REMARK    5  A    between atoms: N_16  and  C_17
REMARK    6  A    between atoms: S_18  and  C_19
REMARK    7  A    between atoms: C_19  and  C_20
REMARK    8  A    between atoms: N_22  and  N_23
REMARK    9  A    between atoms: C_24  and  C_26
REMARK                            x       y       z     vdW  Elec       q    Type
REMARK                         _______ _______ _______ _____ _____    ______ ____
ROOT
ATOM      1  C   UNL     1       8.398   2.665  -0.064  0.00  0.00    +0.171 A 
ATOM      2  N   UNL     1       7.484   3.611  -0.050  0.00  0.00    -0.128 NA
ATOM      3  N   UNL     1       6.311   3.088  -0.047  0.00  0.00    -0.122 NA
ATOM      4  C   UNL     1       6.400   1.777  -0.050  0.00  0.00    +0.192 A 
ATOM      5  N   UNL     1       7.730   1.461  -0.064  0.00  0.00    -0.305 N 
ATOM      6  C   UNL     1       8.321   0.120  -0.077  0.00  0.00    +0.153 C 
ENDROOT
BRANCH   1  13
ATOM      7  C   UNL     1      14.233   4.922  -0.021  0.00  0.00    -0.007 C 
ATOM      8  C   UNL     1      14.783   3.585  -0.526  0.00  0.00    +0.009 C 
ATOM      9  C   UNL     1      13.992   2.446   0.134  0.00  0.00    +0.043 C 
ATOM     10  C   UNL     1      12.535   2.756   0.017  0.00  0.00    -0.006 A 
ATOM     11  C   UNL     1      11.964   3.952  -0.308  0.00  0.00    -0.036 A 
ATOM     12  C   UNL     1      10.576   3.989  -0.353  0.00  0.00    +0.023 A 
ATOM     13  C   UNL     1       9.857   2.857  -0.077  0.00  0.00    +0.057 A 
ATOM     14  S   UNL     1      11.152   1.677   0.270  0.00  0.00    -0.090 S 
ATOM     15  C   UNL     1      12.839   5.167  -0.600  0.00  0.00    +0.039 C 
BRANCH   7  17
ATOM     16  C   UNL     1      14.689   7.372   0.152  0.00  0.00    +0.004 C 
ATOM     17  C   UNL     1      15.168   6.052  -0.456  0.00  0.00    +0.000 C 
ENDBRANCH   7  17
ENDBRANCH   1  13
BRANCH   4  18
ATOM     18  S   UNL     1       5.055   0.639  -0.043  0.00  0.00    -0.077 S 
BRANCH  18  19
ATOM     19  C   UNL     1       3.663   1.796  -0.023  0.00  0.00    +0.174 C 
BRANCH  19  20
ATOM     20  C   UNL     1       2.369   1.025  -0.015  0.00  0.00    +0.239 C 
ATOM     21  O   UNL     1       2.385  -0.188  -0.022  0.00  0.00    -0.273 OA
ATOM     22  N   UNL     1       1.193   1.683  -0.000  0.00  0.00    -0.233 N 
ATOM     23  H   UNL     1       1.179   2.653   0.005  0.00  0.00    +0.173 HD
BRANCH  22  24
ATOM     24  N   UNL     1      -0.011   0.966   0.007  0.00  0.00    -0.230 N 
ATOM     25  C   UNL     1      -1.187   1.624   0.017  0.00  0.00    +0.267 C 
ATOM     26  O   UNL     1      -1.204   2.841   0.023  0.00  0.00    -0.268 OA
ATOM     27  H   UNL     1       0.002  -0.004   0.002  0.00  0.00    +0.173 HD
BRANCH  25  28
ATOM     28  C   UNL     1      -2.447   0.874   0.018  0.00  0.00    +0.075 A 
ATOM     29  C   UNL     1      -3.748   1.351   0.033  0.00  0.00    +0.021 A 
ATOM     30  C   UNL     1      -4.756   0.419   0.028  0.00  0.00    +0.008 A 
ATOM     31  C   UNL     1      -4.438  -0.902   0.019  0.00  0.00    +0.046 A 
ATOM     32  S   UNL     1      -2.704  -0.892   0.011  0.00  0.00    -0.092 S 
ENDBRANCH  25  28
ENDBRANCH  22  24
ENDBRANCH  19  20
ENDBRANCH  18  19
ENDBRANCH   4  18
TORSDOF 7
