REMARK  Name = ZINC63386376
REMARK  9 active torsions:
REMARK  status: ('A' for Active; 'I' for Inactive)
REMARK    1  A    between atoms: C_1  and  C_2
REMARK    2  A    between atoms: C_5  and  O_33
REMARK    3  A    between atoms: C_7  and  O_32
REMARK    4  A    between atoms: C_13  and  C_15
REMARK    5  A    between atoms: C_15  and  C_16
REMARK    6  A    between atoms: N_18  and  C_19
REMARK    7  A    between atoms: C_19  and  C_21
REMARK    8  A    between atoms: C_19  and  C_22
REMARK    9  A    between atoms: C_22  and  C_23
REMARK                            x       y       z     vdW  Elec       q    Type
REMARK                         _______ _______ _______ _____ _____    ______ ____
ROOT
ATOM      1  C   UNL     1       0.440  -1.995   1.458  0.00  0.00    +0.111 C 
ENDROOT
BRANCH   1  13
ATOM      2  C   UNL     1      -0.019   1.526   0.010  0.00  0.00    +0.013 C 
ATOM      3  C   UNL     1       0.002  -0.004   0.002  0.00  0.00    +0.037 C 
ATOM      4  C   UNL     1       0.705  -0.489  -1.241  0.00  0.00    +0.040 A 
ATOM      5  C   UNL     1      -0.006  -0.513  -2.437  0.00  0.00    +0.127 A 
ATOM      6  C   UNL     1       0.602  -0.945  -3.604  0.00  0.00    +0.091 A 
ATOM      7  C   UNL     1       1.927  -1.354  -3.582  0.00  0.00    +0.124 A 
ATOM      8  C   UNL     1       2.635  -1.332  -2.393  0.00  0.00    +0.092 A 
ATOM      9  C   UNL     1       2.024  -0.903  -1.219  0.00  0.00    +0.142 A 
ATOM     10  O   UNL     1       2.753  -0.917  -0.070  0.00  0.00    -0.425 OA
ATOM     11  C   UNL     1       2.223  -0.313   1.012  0.00  0.00    +0.317 C 
ATOM     12  O   UNL     1       2.898   0.353   1.759  0.00  0.00    -0.250 OA
ATOM     13  C   UNL     1       0.740  -0.510   1.246  0.00  0.00    +0.114 C 
BRANCH   7  14
ATOM     14  O   UNL     1       2.528  -1.775  -4.726  0.00  0.00    -0.507 OA
ATOM     15  H   UNL     1       2.960  -1.069  -5.226  0.00  0.00    +0.292 HD
ENDBRANCH   7  14
BRANCH   5  16
ATOM     16  O   UNL     1      -1.305  -0.112  -2.459  0.00  0.00    -0.506 OA
ATOM     17  H   UNL     1      -1.422   0.831  -2.637  0.00  0.00    +0.292 HD
ENDBRANCH   5  16
ENDBRANCH   1  13
BRANCH   1  18
ATOM     18  C   UNL     1       1.069  -2.454   2.749  0.00  0.00    +0.214 C 
ATOM     19  O   UNL     1       1.695  -1.671   3.431  0.00  0.00    -0.276 OA
ATOM     20  N   UNL     1       0.936  -3.736   3.145  0.00  0.00    -0.312 N 
ATOM     21  H   UNL     1       0.435  -4.362   2.599  0.00  0.00    +0.149 HD
BRANCH  20  22
ATOM     22  C   UNL     1       1.547  -4.182   4.399  0.00  0.00    +0.074 C 
ATOM     23  C   UNL     1       0.602  -3.878   5.563  0.00  0.00    +0.028 C 
BRANCH  22  24
ATOM     24  C   UNL     1       1.806  -5.689   4.333  0.00  0.00    +0.055 C 
BRANCH  24  25
ATOM     25  C   UNL     1       2.830  -5.976   3.266  0.00  0.00    -0.040 C 
ATOM     26  C   UNL     1       4.164  -6.125   3.438  0.00  0.00    -0.001 A 
ATOM     27  C   UNL     1       5.026  -6.066   4.624  0.00  0.00    +0.010 A 
ATOM     28  C   UNL     1       6.356  -6.260   4.479  0.00  0.00    +0.001 A 
ATOM     29  C   UNL     1       6.931  -6.515   3.226  0.00  0.00    +0.002 A 
ATOM     30  C   UNL     1       6.204  -6.584   2.091  0.00  0.00    +0.026 A 
ATOM     31  C   UNL     1       4.795  -6.396   2.127  0.00  0.00    +0.043 A 
ATOM     32  N   UNL     1       3.888  -6.414   1.181  0.00  0.00    -0.380 N 
ATOM     33  C   UNL     1       2.575  -6.162   1.787  0.00  0.00    +0.144 C 
ATOM     34  H   UNL     1       4.055  -6.572   0.239  0.00  0.00    +0.160 HD
ENDBRANCH  24  25
ENDBRANCH  22  24
ENDBRANCH  20  22
ENDBRANCH   1  18
TORSDOF 7
