REMARK  Name = ZINC28623814
REMARK  5 active torsions:
REMARK  status: ('A' for Active; 'I' for Inactive)
REMARK    1  A    between atoms: C_2  and  C_3
REMARK    2  A    between atoms: C_3  and  N_4
REMARK    3  A    between atoms: C_5  and  C_7
REMARK    4  A    between atoms: C_7  and  N_8
REMARK    5  A    between atoms: C_21  and  C_23
REMARK                            x       y       z     vdW  Elec       q    Type
REMARK                         _______ _______ _______ _____ _____    ______ ____
ROOT
ATOM      1  N   UNL     1       0.007   1.257   0.741  0.00  0.00    +0.387 N 
ATOM      2  C   UNL     1       1.126   1.942   0.076  0.00  0.00    -0.059 C 
ATOM      3  C   UNL     1       0.630   2.582  -1.222  0.00  0.00    +0.088 C 
ATOM      4  N   UNL     1      -0.455   3.525  -0.917  0.00  0.00    -0.318 N 
ATOM      5  C   UNL     1      -1.573   2.841  -0.253  0.00  0.00    +0.088 C 
ATOM      6  C   UNL     1      -1.077   2.201   1.045  0.00  0.00    -0.059 C 
ATOM      7  C   UNL     1      -0.881   4.177  -2.061  0.00  0.00    +0.134 A 
ATOM      8  C   UNL     1      -1.274   5.545  -2.006  0.00  0.00    +0.051 A 
ATOM      9  C   UNL     1      -1.291   6.445  -0.852  0.00  0.00    -0.025 A 
ATOM     10  C   UNL     1      -1.704   7.711  -1.069  0.00  0.00    -0.004 A 
ATOM     11  S   UNL     1      -2.085   7.783  -2.799  0.00  0.00    -0.073 S 
ATOM     12  C   UNL     1      -1.687   6.109  -3.231  0.00  0.00    +0.114 A 
ATOM     13  N   UNL     1      -1.711   5.403  -4.342  0.00  0.00    -0.220 NA
ATOM     14  C   UNL     1      -1.338   4.130  -4.334  0.00  0.00    +0.164 A 
ATOM     15  N   UNL     1      -0.933   3.537  -3.215  0.00  0.00    -0.212 NA
ATOM     16  C   UNL     1      -1.816   8.814  -0.061  0.00  0.00    +0.043 C 
ATOM     17  C   UNL     1      -1.742   8.198   1.343  0.00  0.00    +0.005 C 
ATOM     18  C   UNL     1      -0.560   7.225   1.391  0.00  0.00    +0.005 C 
ATOM     19  C   UNL     1      -0.869   5.991   0.542  0.00  0.00    +0.037 C 
ATOM     20  H   UNL     1      -0.387   0.499   0.048  0.00  0.00    -0.081 HD
ENDROOT
BRANCH  14  21
ATOM     21  C   UNL     1      -1.373   3.353  -5.596  0.00  0.00    +0.037 A 
ATOM     22  C   UNL     1      -1.800   3.951  -6.787  0.00  0.00    +0.014 A 
ATOM     23  C   UNL     1      -1.810   3.185  -7.939  0.00  0.00    +0.020 A 
ATOM     24  C   UNL     1      -1.411   1.862  -7.875  0.00  0.00    +0.111 A 
ATOM     25  N   UNL     1      -1.018   1.324  -6.737  0.00  0.00    -0.263 NA
ATOM     26  C   UNL     1      -0.987   2.014  -5.616  0.00  0.00    +0.122 A 
ENDBRANCH  14  21
BRANCH   1  27
ATOM     27  C   UNL     1       0.460   0.565   1.955  0.00  0.00    +0.019 C 
BRANCH  27  29
ATOM     28  N   UNL     1       2.050  -1.238   2.539  0.00  0.00    -0.313 N 
ATOM     29  C   UNL     1       1.416  -0.537   1.578  0.00  0.00    +0.197 C 
ATOM     30  O   UNL     1       1.614  -0.795   0.409  0.00  0.00    -0.278 OA
ATOM     31  H   UNL     1       1.870  -1.004   3.599  0.00  0.00    +0.149 HD
BRANCH  28  32
ATOM     32  C   UNL     1       2.978  -2.310   2.172  0.00  0.00    +0.131 C 
BRANCH  32  34
ATOM     33  C   UNL     1       3.447  -4.221   3.618  0.00  0.00    +0.005 C 
ATOM     34  C   UNL     1       3.549  -2.930   3.422  0.00  0.00    -0.016 C 
ENDBRANCH  32  34
ENDBRANCH  28  32
ENDBRANCH  27  29
ENDBRANCH   1  27
TORSDOF 5
