REMARK  Name = ZINC12980818
REMARK  7 active torsions:
REMARK  status: ('A' for Active; 'I' for Inactive)
REMARK    1  A    between atoms: C_1  and  C_2
REMARK    2  A    between atoms: C_15  and  C_17
REMARK    3  A    between atoms: C_17  and  C_19
REMARK    4  A    between atoms: C_17  and  N_63
REMARK    5  A    between atoms: C_22  and  C_25
REMARK    6  A    between atoms: N_27  and  C_28
REMARK    7  A    between atoms: C_33  and  O_34
REMARK                            x       y       z     vdW  Elec       q    Type
REMARK                         _______ _______ _______ _____ _____    ______ ____
ROOT
ATOM      1  C   UNL     1       1.403  -4.584  -5.759  0.00  0.00    -0.077 C 
ATOM      2  C   UNL     1       2.453  -4.440  -6.862  0.00  0.00    -0.006 C 
ATOM      3  C   UNL     1       2.670  -5.798  -7.535  0.00  0.00    +0.072 C 
ATOM      4  C   UNL     1       3.098  -6.820  -6.478  0.00  0.00    -0.006 C 
ATOM      5  C   UNL     1       2.028  -6.896  -5.386  0.00  0.00    -0.077 C 
ATOM      6  N   UNL     1       1.886  -5.564  -4.761  0.00  0.00    +0.386 N 
ATOM      7  H   UNL     1       2.802  -5.259  -4.413  0.00  0.00    -0.081 HD
ENDROOT
BRANCH   3   8
ATOM      8  C   UNL     1       3.747  -5.675  -8.582  0.00  0.00    +0.220 C 
ATOM      9  O   UNL     1       4.758  -6.340  -8.493  0.00  0.00    -0.275 OA
ATOM     10  N   UNL     1       3.586  -4.828  -9.618  0.00  0.00    -0.282 N 
ATOM     11  H   UNL     1       2.752  -4.345  -9.724  0.00  0.00    +0.155 HD
BRANCH  10  12
ATOM     12  C   UNL     1       4.625  -4.644 -10.540  0.00  0.00    +0.075 A 
ATOM     13  C   UNL     1       5.452  -5.705 -10.877  0.00  0.00    +0.027 A 
ATOM     14  C   UNL     1       6.476  -5.521 -11.786  0.00  0.00    +0.002 A 
ATOM     15  C   UNL     1       6.678  -4.281 -12.363  0.00  0.00    +0.004 A 
ATOM     16  C   UNL     1       5.858  -3.219 -12.033  0.00  0.00    +0.047 A 
ATOM     17  C   UNL     1       4.826  -3.396 -11.126  0.00  0.00    +0.138 A 
BRANCH  17  18
ATOM     18  O   UNL     1       4.015  -2.353 -10.804  0.00  0.00    -0.505 OA
ATOM     19  H   UNL     1       4.325  -1.831 -10.052  0.00  0.00    +0.292 HD
ENDBRANCH  17  18
ENDBRANCH  10  12
ENDBRANCH   3   8
BRANCH   6  20
ATOM     20  C   UNL     1       0.941  -5.636  -3.628  0.00  0.00    -0.004 C 
ATOM     21  C   UNL     1      -0.458  -6.017  -4.116  0.00  0.00    -0.005 C 
BRANCH  20  35
ATOM     22  C   UNL     1       1.322   3.506   0.297  0.00  0.00    +0.008 C 
ATOM     23  C   UNL     1       1.345   2.000   0.029  0.00  0.00    -0.009 C 
ATOM     24  C   UNL     1      -0.087   1.456   0.029  0.00  0.00    +0.008 C 
ATOM     25  C   UNL     1      -0.061  -0.072   0.012  0.00  0.00    +0.037 C 
ATOM     26  C   UNL     1       0.816  -0.539  -1.147  0.00  0.00    -0.023 A 
ATOM     27  C   UNL     1       1.707   0.305  -1.718  0.00  0.00    -0.004 A 
ATOM     28  S   UNL     1       2.490  -0.643  -2.998  0.00  0.00    -0.073 S 
ATOM     29  C   UNL     1       1.625  -2.163  -2.765  0.00  0.00    +0.116 A 
ATOM     30  C   UNL     1       0.749  -1.882  -1.693  0.00  0.00    +0.075 A 
ATOM     31  C   UNL     1      -0.110  -2.947  -1.257  0.00  0.00    +0.260 A 
ATOM     32  O   UNL     1      -0.902  -2.807  -0.341  0.00  0.00    -0.267 OA
ATOM     33  N   UNL     1       0.015  -4.115  -1.930  0.00  0.00    -0.312 N 
ATOM     34  H   UNL     1      -0.547  -4.862  -1.668  0.00  0.00    +0.170 HD
ATOM     35  C   UNL     1       0.888  -4.291  -2.951  0.00  0.00    +0.097 A 
ATOM     36  N   UNL     1       1.690  -3.341  -3.379  0.00  0.00    -0.228 NA
ATOM     37  C   UNL     1       1.972   1.731  -1.346  0.00  0.00    +0.046 C 
ENDBRANCH  20  35
ENDBRANCH   6  20
TORSDOF 5
