REMARK  Name = ZINC40056679
REMARK  5 active torsions:
REMARK  status: ('A' for Active; 'I' for Inactive)
REMARK    1  A    between atoms: C_1  and  C_2
REMARK    2  A    between atoms: C_17  and  C_19
REMARK    3  A    between atoms: C_22  and  O_25
REMARK    4  A    between atoms: O_25  and  C_26
REMARK    5  A    between atoms: C_26  and  C_27
REMARK                            x       y       z     vdW  Elec       q    Type
REMARK                         _______ _______ _______ _____ _____    ______ ____
ROOT
ATOM      1  C   UNL     1      -0.018   1.503   0.010  0.00  0.00    +0.045 C 
ATOM      2  C   UNL     1       0.002  -0.004   0.002  0.00  0.00    -0.029 A 
ATOM      3  C   UNL     1       0.005  -0.677  -1.199  0.00  0.00    +0.051 A 
ATOM      4  C   UNL     1       0.025  -2.071  -1.222  0.00  0.00    +0.140 A 
ATOM      5  C   UNL     1       0.046  -2.767  -0.001  0.00  0.00    +0.066 A 
ATOM      6  C   UNL     1       0.039  -2.075   1.209  0.00  0.00    +0.035 A 
ATOM      7  C   UNL     1       0.023  -0.696   1.206  0.00  0.00    +0.045 A 
ATOM      8 CL   UNL     1       0.021   0.175   2.707  0.00  0.00    -0.083 Cl
ATOM      9  C   UNL     1       0.083  -4.251  -0.018  0.00  0.00    +0.199 A 
ATOM     10  O   UNL     1      -0.065  -4.933   0.980  0.00  0.00    -0.287 OA
ATOM     11  C   UNL     1       0.315  -4.817  -1.351  0.00  0.00    +0.072 A 
ATOM     12  C   UNL     1       0.277  -4.030  -2.467  0.00  0.00    +0.199 A 
ATOM     13  O   UNL     1       0.021  -2.708  -2.416  0.00  0.00    -0.450 OA
ATOM     14  C   UNL     1       0.554  -4.877  -3.639  0.00  0.00    +0.289 C 
ATOM     15  O   UNL     1       0.597  -4.482  -4.788  0.00  0.00    -0.266 OA
ATOM     16  N   UNL     1       0.752  -6.154  -3.253  0.00  0.00    -0.232 N 
ATOM     17  C   UNL     1       0.615  -6.213  -1.788  0.00  0.00    +0.151 C 
ATOM     18  C   UNL     1       1.035  -7.224  -4.089  0.00  0.00    +0.168 A 
ATOM     19  N   UNL     1       1.230  -8.485  -3.767  0.00  0.00    -0.233 NA
ATOM     20  C   UNL     1       1.492  -9.392  -4.689  0.00  0.00    +0.120 A 
ATOM     21  C   UNL     1       1.550  -8.965  -5.974  0.00  0.00    +0.068 A 
ATOM     22  S   UNL     1       1.204  -7.226  -5.764  0.00  0.00    -0.060 S 
ENDROOT
BRANCH  17  23
ATOM     23  C   UNL     1       1.902  -6.688  -1.165  0.00  0.00    -0.022 A 
ATOM     24  C   UNL     1       3.115  -6.299  -1.703  0.00  0.00    +0.009 A 
ATOM     25  C   UNL     1       4.296  -6.733  -1.133  0.00  0.00    +0.046 A 
ATOM     26  C   UNL     1       4.265  -7.560  -0.020  0.00  0.00    +0.121 A 
ATOM     27  C   UNL     1       3.047  -7.949   0.518  0.00  0.00    +0.046 A 
ATOM     28  C   UNL     1       1.869  -7.508  -0.052  0.00  0.00    +0.009 A 
BRANCH  26  29
ATOM     29  O   UNL     1       5.426  -7.989   0.542  0.00  0.00    -0.483 OA
BRANCH  29  30
ATOM     30  C   UNL     1       5.318  -8.838   1.686  0.00  0.00    +0.324 C 
BRANCH  30  31
ATOM     31  C   UNL     1       6.697  -9.210   2.167  0.00  0.00    +0.248 C 
ATOM     32  O   UNL     1       7.675  -8.789   1.588  0.00  0.00    -0.272 OA
ATOM     33  N   UNL     1       6.842 -10.010   3.242  0.00  0.00    -0.327 N 
ATOM     34  H   UNL     1       6.059 -10.347   3.706  0.00  0.00    +0.145 HD
ATOM     35  H   UNL     1       7.729 -10.250   3.552  0.00  0.00    +0.145 HD
ENDBRANCH  30  31
ENDBRANCH  29  30
ENDBRANCH  26  29
ENDBRANCH  17  23
TORSDOF 4
