REMARK  Name = ZINC24215218
REMARK  10 active torsions:
REMARK  status: ('A' for Active; 'I' for Inactive)
REMARK    1  A    between atoms: C_1  and  C_2
REMARK    2  A    between atoms: C_3  and  C_14
REMARK    3  A    between atoms: C_4  and  C_13
REMARK    4  A    between atoms: N_5  and  C_7
REMARK    5  A    between atoms: N_21  and  C_22
REMARK    6  A    between atoms: C_22  and  C_23
REMARK    7  A    between atoms: N_25  and  C_26
REMARK    8  A    between atoms: C_27  and  C_38
REMARK    9  A    between atoms: N_29  and  C_32
REMARK   10  A    between atoms: C_30  and  C_31
REMARK                            x       y       z     vdW  Elec       q    Type
REMARK                         _______ _______ _______ _____ _____    ______ ____
ROOT
ATOM      1  C   UNL     1       3.579   1.062  -0.205  0.00  0.00    +0.054 C 
ATOM      2  C   UNL     1       3.841   0.641   1.214  0.00  0.00    +0.204 C 
ATOM      3  O   UNL     1       3.314   1.265   2.111  0.00  0.00    -0.277 OA
ATOM      4  N   UNL     1       4.630  -0.388   1.530  0.00  0.00    -0.318 N 
ATOM      5  C   UNL     1       5.281  -1.226   0.527  0.00  0.00    +0.085 C 
ATOM      6  C   UNL     1       5.304  -0.506  -0.822  0.00  0.00    -0.058 C 
ATOM      7  N   UNL     1       3.947  -0.023  -1.124  0.00  0.00    +0.397 N 
ATOM      8  H   UNL     1       4.781  -0.594   2.600  0.00  0.00    +0.149 HD
ATOM      9  H   UNL     1       3.240  -0.854  -0.982  0.00  0.00    -0.079 HD
ENDROOT
BRANCH   1  12
ATOM     10  C   UNL     1       1.220  -1.045  -0.395  0.00  0.00    +0.068 C 
ATOM     11  C   UNL     1       1.074   0.454  -0.454  0.00  0.00    +0.063 A 
ATOM     12  C   UNL     1       2.116   1.383  -0.370  0.00  0.00    -0.009 A 
ATOM     13  C   UNL     1       1.578   2.621  -0.463  0.00  0.00    +0.044 A 
ATOM     14  N   UNL     1       0.241   2.480  -0.601  0.00  0.00    -0.237 N 
ATOM     15  N   UNL     1      -0.050   1.109  -0.592  0.00  0.00    -0.171 NA
ATOM     16  C   UNL     1       2.334   3.924  -0.420  0.00  0.00    +0.066 C 
BRANCH  14  17
ATOM     17  C   UNL     1      -0.690   3.520  -0.736  0.00  0.00    +0.066 A 
ATOM     18  C   UNL     1      -0.502   4.714  -0.053  0.00  0.00    +0.028 A 
ATOM     19  C   UNL     1      -1.417   5.739  -0.191  0.00  0.00    +0.002 A 
ATOM     20  C   UNL     1      -2.526   5.572  -1.001  0.00  0.00    +0.000 A 
ATOM     21  C   UNL     1      -2.719   4.382  -1.678  0.00  0.00    +0.002 A 
ATOM     22  C   UNL     1      -1.804   3.356  -1.548  0.00  0.00    +0.028 A 
ENDBRANCH  14  17
ENDBRANCH   1  12
BRANCH   7  23
ATOM     23  C   UNL     1       3.842   0.413  -2.523  0.00  0.00    +0.020 C 
BRANCH  23  24
ATOM     24  C   UNL     1       3.985  -0.779  -3.433  0.00  0.00    +0.201 C 
ATOM     25  O   UNL     1       4.157  -1.884  -2.963  0.00  0.00    -0.278 OA
ATOM     26  N   UNL     1       3.921  -0.618  -4.770  0.00  0.00    -0.284 N 
ATOM     27  H   UNL     1       3.665   0.364  -5.194  0.00  0.00    +0.155 HD
BRANCH  26  28
ATOM     28  C   UNL     1       4.184  -1.706  -5.623  0.00  0.00    +0.078 A 
ATOM     29  C   UNL     1       5.062  -2.769  -5.361  0.00  0.00    +0.082 A 
ATOM     30  N   UNL     1       5.040  -3.584  -6.384  0.00  0.00    -0.170 NA
ATOM     31  N   UNL     1       4.149  -3.074  -7.337  0.00  0.00    -0.235 N 
ATOM     32  C   UNL     1       3.628  -1.917  -6.843  0.00  0.00    +0.063 A 
ATOM     33  C   UNL     1       2.620  -1.030  -7.529  0.00  0.00    +0.068 C 
ATOM     34  C   UNL     1       5.889  -2.942  -4.113  0.00  0.00    +0.069 C 
BRANCH  31  35
ATOM     35  C   UNL     1       3.843  -3.654  -8.575  0.00  0.00    +0.066 A 
ATOM     36  C   UNL     1       3.662  -5.027  -8.674  0.00  0.00    +0.028 A 
ATOM     37  C   UNL     1       3.355  -5.596  -9.895  0.00  0.00    +0.002 A 
ATOM     38  C   UNL     1       3.239  -4.801 -11.020  0.00  0.00    +0.000 A 
ATOM     39  C   UNL     1       3.424  -3.433 -10.925  0.00  0.00    +0.002 A 
ATOM     40  C   UNL     1       3.725  -2.858  -9.706  0.00  0.00    +0.028 A 
ENDBRANCH  31  35
ENDBRANCH  26  28
ENDBRANCH  23  24
ENDBRANCH   7  23
TORSDOF 6
