REMARK  Name = ZINC41586411
REMARK  10 active torsions:
REMARK  status: ('A' for Active; 'I' for Inactive)
REMARK    1  A    between atoms: C_1  and  C_2
REMARK    2  A    between atoms: C_2  and  O_3
REMARK    3  A    between atoms: O_3  and  C_4
REMARK    4  A    between atoms: C_4  and  C_6
REMARK    5  A    between atoms: N_11  and  C_13
REMARK    6  A    between atoms: C_13  and  C_14
REMARK    7  A    between atoms: C_15  and  O_38
REMARK    8  A    between atoms: C_17  and  C_37
REMARK    9  A    between atoms: C_22  and  C_23
REMARK   10  A    between atoms: C_26  and  C_29
REMARK                            x       y       z     vdW  Elec       q    Type
REMARK                         _______ _______ _______ _____ _____    ______ ____
ROOT
ATOM      1  C   UNL     1       2.985  -6.373  -4.760  0.00  0.00    +0.020 A 
ATOM      2  C   UNL     1       2.362  -6.683  -5.958  0.00  0.00    +0.122 A 
ATOM      3  C   UNL     1       3.094  -7.204  -7.022  0.00  0.00    +0.050 A 
ATOM      4  C   UNL     1       4.438  -7.414  -6.894  0.00  0.00    -0.033 A 
ATOM      5  C   UNL     1       5.078  -7.106  -5.693  0.00  0.00    +0.071 A 
ATOM      6  C   UNL     1       4.352  -6.574  -4.614  0.00  0.00    +0.145 A 
ATOM      7  O   UNL     1       5.181  -6.352  -3.572  0.00  0.00    -0.451 OA
ATOM      8  C   UNL     1       6.458  -6.694  -3.862  0.00  0.00    +0.176 C 
ATOM      9  C   UNL     1       7.525  -6.592  -3.030  0.00  0.00    +0.058 C 
ATOM     10  C   UNL     1       6.477  -7.211  -5.240  0.00  0.00    +0.232 C 
ATOM     11  O   UNL     1       7.436  -7.620  -5.870  0.00  0.00    -0.283 OA
ATOM     12  C   UNL     1       5.227  -7.978  -8.046  0.00  0.00    +0.045 C 
ENDROOT
BRANCH   9  13
ATOM     13  C   UNL     1       7.371  -5.962  -1.713  0.00  0.00    -0.021 A 
ATOM     14  C   UNL     1       8.495  -5.734  -0.908  0.00  0.00    +0.008 A 
ATOM     15  C   UNL     1       8.348  -5.148   0.317  0.00  0.00    +0.009 A 
ATOM     16  C   UNL     1       7.080  -4.776   0.767  0.00  0.00    -0.018 A 
ATOM     17  C   UNL     1       5.959  -5.002  -0.033  0.00  0.00    +0.009 A 
ATOM     18  C   UNL     1       6.100  -5.583  -1.261  0.00  0.00    +0.008 A 
BRANCH  16  19
ATOM     19  C   UNL     1       6.924  -4.140   2.097  0.00  0.00    -0.018 A 
ATOM     20  C   UNL     1       8.042  -3.908   2.897  0.00  0.00    +0.008 A 
ATOM     21  C   UNL     1       7.891  -3.315   4.134  0.00  0.00    +0.001 A 
ATOM     22  C   UNL     1       6.633  -2.952   4.581  0.00  0.00    +0.000 A 
ATOM     23  C   UNL     1       5.520  -3.180   3.792  0.00  0.00    +0.001 A 
ATOM     24  C   UNL     1       5.660  -3.767   2.550  0.00  0.00    +0.008 A 
ENDBRANCH  16  19
ENDBRANCH   9  13
BRANCH   2  25
ATOM     25  O   UNL     1       1.028  -6.479  -6.095  0.00  0.00    -0.506 OA
ATOM     26  H   UNL     1       0.796  -5.601  -6.428  0.00  0.00    +0.292 HD
ENDBRANCH   2  25
BRANCH   1  27
ATOM     27  C   UNL     1       2.181  -5.810  -3.616  0.00  0.00    -0.036 C 
BRANCH  27  32
ATOM     28  C   UNL     1       1.530  -2.263  -2.577  0.00  0.00    +0.081 C 
ATOM     29  C   UNL     1       0.820  -1.778  -3.845  0.00  0.00    +0.011 C 
ATOM     30  C   UNL     1       1.483  -2.420  -5.067  0.00  0.00    -0.018 C 
ATOM     31  C   UNL     1       1.440  -3.942  -4.924  0.00  0.00    -0.078 C 
ATOM     32  N   UNL     1       2.158  -4.344  -3.708  0.00  0.00    +0.383 N 
ATOM     33  C   UNL     1       1.486  -3.792  -2.526  0.00  0.00    -0.064 C 
ATOM     34  H   UNL     1       3.105  -3.997  -3.748  0.00  0.00    -0.081 HD
BRANCH  28  35
ATOM     35  C   UNL     1       0.837  -1.698  -1.364  0.00  0.00    +0.308 C 
ATOM     36  O   UNL     1       0.357  -2.442  -0.542  0.00  0.00    -0.251 OA
BRANCH  35  37
ATOM     37  O   UNL     1       0.751  -0.369  -1.198  0.00  0.00    -0.465 OA
BRANCH  37  39
ATOM     38  C   UNL     1       0.083   1.626  -0.009  0.00  0.00    +0.048 C 
ATOM     39  C   UNL     1       0.080   0.096  -0.025  0.00  0.00    +0.229 C 
ENDBRANCH  37  39
ENDBRANCH  35  37
ENDBRANCH  28  35
ENDBRANCH  27  32
ENDBRANCH   1  27
TORSDOF 8
