REMARK  Name = ZINC33085591
REMARK  8 active torsions:
REMARK  status: ('A' for Active; 'I' for Inactive)
REMARK    1  A    between atoms: C_1  and  C_2
REMARK    2  A    between atoms: C_7  and  N_8
REMARK    3  A    between atoms: C_9  and  C_11
REMARK    4  A    between atoms: C_12  and  C_36
REMARK    5  A    between atoms: C_16  and  S_27
REMARK    6  A    between atoms: C_19  and  C_21
REMARK    7  A    between atoms: S_27  and  C_28
REMARK    8  A    between atoms: C_28  and  C_29
REMARK                            x       y       z     vdW  Elec       q    Type
REMARK                         _______ _______ _______ _____ _____    ______ ____
ROOT
ATOM      1  C   UNL     1       3.803   3.067   1.240  0.00  0.00    +0.060 C 
ATOM      2  C   UNL     1       3.644   4.398   1.210  0.00  0.00    +0.018 C 
ATOM      3  N   UNL     1       3.446   5.085   0.038  0.00  0.00    -0.287 N 
ATOM      4  C   UNL     1       3.673   4.403  -1.149  0.00  0.00    +0.219 A 
ATOM      5  N   UNL     1       3.778   4.853  -2.370  0.00  0.00    -0.187 NA
ATOM      6  C   UNL     1       4.007   3.830  -3.206  0.00  0.00    +0.211 A 
ATOM      7  N   UNL     1       4.047   2.711  -2.514  0.00  0.00    -0.141 NA
ATOM      8  N   UNL     1       3.831   3.057  -1.181  0.00  0.00    -0.220 N 
ATOM      9  C   UNL     1       3.767   2.207   0.005  0.00  0.00    +0.177 C 
ATOM     10  C   UNL     1       3.685   5.166   2.507  0.00  0.00    +0.061 C 
ATOM     11  H   UNL     1       3.118   6.135   0.064  0.00  0.00    +0.155 HD
ENDROOT
BRANCH   9  12
ATOM     12  C   UNL     1       2.488   1.410  -0.016  0.00  0.00    -0.018 A 
ATOM     13  C   UNL     1       1.269   2.061  -0.024  0.00  0.00    +0.006 A 
ATOM     14  C   UNL     1       0.096   1.330  -0.043  0.00  0.00    +0.000 A 
ATOM     15  C   UNL     1       0.142  -0.051  -0.052  0.00  0.00    +0.000 A 
ATOM     16  C   UNL     1       1.361  -0.702  -0.042  0.00  0.00    +0.000 A 
ATOM     17  C   UNL     1       2.535   0.029  -0.024  0.00  0.00    +0.006 A 
ENDBRANCH   9  12
BRANCH   1  19
ATOM     18  N   UNL     1       2.986   2.276   3.345  0.00  0.00    -0.281 N 
ATOM     19  C   UNL     1       4.015   2.441   2.491  0.00  0.00    +0.248 C 
ATOM     20  O   UNL     1       5.128   2.052   2.796  0.00  0.00    -0.270 OA
ATOM     21  H   UNL     1       1.965   2.542   3.034  0.00  0.00    +0.155 HD
BRANCH  18  28
ATOM     22  C   UNL     1       0.980   0.632   4.515  0.00  0.00    +0.045 C 
ATOM     23  C   UNL     1       2.263   0.959   5.235  0.00  0.00    -0.029 A 
ATOM     24  C   UNL     1       2.495   0.452   6.499  0.00  0.00    +0.005 A 
ATOM     25  C   UNL     1       3.669   0.757   7.163  0.00  0.00    +0.000 A 
ATOM     26  C   UNL     1       4.617   1.564   6.561  0.00  0.00    +0.002 A 
ATOM     27  C   UNL     1       4.394   2.069   5.296  0.00  0.00    +0.023 A 
ATOM     28  C   UNL     1       3.215   1.766   4.627  0.00  0.00    +0.037 A 
ENDBRANCH  18  28
ENDBRANCH   1  19
BRANCH   6  29
ATOM     29  S   UNL     1       4.219   3.962  -4.951  0.00  0.00    -0.080 S 
BRANCH  29  30
ATOM     30  C   UNL     1       4.055   5.738  -5.279  0.00  0.00    +0.112 C 
BRANCH  30  31
ATOM     31  C   UNL     1       4.217   5.993  -6.756  0.00  0.00    -0.037 A 
ATOM     32  C   UNL     1       5.471   6.253  -7.278  0.00  0.00    +0.006 A 
ATOM     33  C   UNL     1       5.621   6.481  -8.633  0.00  0.00    +0.020 A 
ATOM     34  C   UNL     1       4.516   6.460  -9.465  0.00  0.00    +0.041 A 
ATOM     35  C   UNL     1       3.261   6.205  -8.941  0.00  0.00    +0.020 A 
ATOM     36  C   UNL     1       3.113   5.972  -7.587  0.00  0.00    +0.006 A 
ATOM     37 CL   UNL     1       4.704   6.754 -11.165  0.00  0.00    -0.084 Cl
ENDBRANCH  30  31
ENDBRANCH  29  30
ENDBRANCH   6  29
TORSDOF 6
