REMARK  Name = ZINC39427783
REMARK  10 active torsions:
REMARK  status: ('A' for Active; 'I' for Inactive)
REMARK    1  A    between atoms: C_1  and  C_2
REMARK    2  A    between atoms: C_2  and  O_3
REMARK    3  A    between atoms: O_3  and  C_4
REMARK    4  A    between atoms: C_6  and  C_11
REMARK    5  A    between atoms: C_9  and  O_10
REMARK    6  A    between atoms: C_13  and  C_22
REMARK    7  A    between atoms: C_14  and  C_21
REMARK    8  A    between atoms: N_24  and  C_25
REMARK    9  A    between atoms: C_28  and  C_32
REMARK   10  A    between atoms: C_30  and  C_31
REMARK                            x       y       z     vdW  Elec       q    Type
REMARK                         _______ _______ _______ _____ _____    ______ ____
ROOT
ATOM      1  C   UNL     1      -0.031  -6.002  -1.429  0.00  0.00    +0.177 C 
ATOM      2  C   UNL     1       1.305  -6.687  -1.322  0.00  0.00    +0.060 C 
ATOM      3  C   UNL     1       1.457  -7.923  -0.824  0.00  0.00    +0.018 C 
ATOM      4  N   UNL     1       0.392  -8.669  -0.380  0.00  0.00    -0.287 N 
ATOM      5  C   UNL     1      -0.881  -8.218  -0.699  0.00  0.00    +0.218 A 
ATOM      6  N   UNL     1      -1.096  -6.974  -1.196  0.00  0.00    -0.221 N 
ATOM      7  N   UNL     1      -2.469  -6.863  -1.408  0.00  0.00    -0.156 NA
ATOM      8  C   UNL     1      -3.002  -8.002  -1.038  0.00  0.00    +0.247 A 
ATOM      9  N   UNL     1      -2.035  -8.820  -0.608  0.00  0.00    -0.201 NA
ATOM     10  C   UNL     1       2.841  -8.514  -0.749  0.00  0.00    +0.061 C 
ATOM     11  H   UNL     1       0.525  -9.479   0.137  0.00  0.00    +0.155 HD
ENDROOT
BRANCH   1  14
ATOM     12  C   UNL     1      -0.331  -2.581   0.145  0.00  0.00    +0.162 A 
ATOM     13  C   UNL     1      -0.251  -3.590  -0.801  0.00  0.00    +0.055 A 
ATOM     14  C   UNL     1      -0.118  -4.906  -0.399  0.00  0.00    -0.015 A 
ATOM     15  C   UNL     1      -0.064  -5.218   0.947  0.00  0.00    +0.010 A 
ATOM     16  C   UNL     1      -0.143  -4.216   1.896  0.00  0.00    +0.049 A 
ATOM     17  C   UNL     1      -0.271  -2.894   1.499  0.00  0.00    +0.158 A 
BRANCH  17  18
ATOM     18  O   UNL     1      -0.343  -1.907   2.431  0.00  0.00    -0.503 OA
ATOM     19  H   UNL     1      -1.243  -1.704   2.720  0.00  0.00    +0.292 HD
ENDBRANCH  17  18
BRANCH  12  20
ATOM     20  O   UNL     1      -0.461  -1.286  -0.250  0.00  0.00    -0.489 OA
BRANCH  20  22
ATOM     21  C   UNL     1      -0.847   0.447  -1.889  0.00  0.00    +0.048 C 
ATOM     22  C   UNL     1      -0.625  -1.047  -1.649  0.00  0.00    +0.226 C 
ENDBRANCH  20  22
ENDBRANCH  12  20
ENDBRANCH   1  14
BRANCH   2  23
ATOM     23  C   UNL     1       2.455  -5.995  -1.768  0.00  0.00    +0.248 C 
ATOM     24  O   UNL     1       2.681  -5.894  -2.960  0.00  0.00    -0.270 OA
ATOM     25  N   UNL     1       3.301  -5.446  -0.873  0.00  0.00    -0.281 N 
ATOM     26  H   UNL     1       3.160  -5.587   0.076  0.00  0.00    +0.155 HD
BRANCH  25  27
ATOM     27  C   UNL     1       4.381  -4.675  -1.314  0.00  0.00    +0.037 A 
ATOM     28  C   UNL     1       4.376  -4.137  -2.595  0.00  0.00    +0.024 A 
ATOM     29  C   UNL     1       5.444  -3.376  -3.027  0.00  0.00    +0.005 A 
ATOM     30  C   UNL     1       6.519  -3.150  -2.186  0.00  0.00    -0.050 A 
ATOM     31  C   UNL     1       6.527  -3.684  -0.911  0.00  0.00    +0.008 A 
ATOM     32  C   UNL     1       5.459  -4.441  -0.470  0.00  0.00    -0.029 A 
ATOM     33  C   UNL     1       5.466  -5.017   0.922  0.00  0.00    +0.045 C 
ATOM     34  C   UNL     1       7.683  -2.319  -2.661  0.00  0.00    +0.044 C 
ENDBRANCH  25  27
ENDBRANCH   2  23
TORSDOF 6
