REMARK  Name = ZINC12562360
REMARK  8 active torsions:
REMARK  status: ('A' for Active; 'I' for Inactive)
REMARK    1  A    between atoms: C_4  and  C_7
REMARK    2  A    between atoms: C_8  and  C_22
REMARK    3  A    between atoms: N_15  and  C_16
REMARK    4  A    between atoms: N_23  and  N_24
REMARK    5  A    between atoms: N_24  and  C_25
REMARK    6  A    between atoms: C_28  and  S_34
REMARK    7  A    between atoms: C_30  and  N_31
REMARK    8  A    between atoms: S_34  and  N_37
REMARK                            x       y       z     vdW  Elec       q    Type
REMARK                         _______ _______ _______ _____ _____    ______ ____
ROOT
ATOM      1  C   UNL     1      -0.210   1.364  -1.480  0.00  0.00    +0.064 A 
ATOM      2  C   UNL     1      -0.151  -0.090  -1.205  0.00  0.00    +0.028 A 
ATOM      3  C   UNL     1       1.282  -0.431  -1.251  0.00  0.00    +0.009 A 
ATOM      4  C   UNL     1       1.986  -1.623  -1.077  0.00  0.00    +0.010 A 
ATOM      5  C   UNL     1       3.363  -1.625  -1.185  0.00  0.00    +0.001 A 
ATOM      6  C   UNL     1       4.040  -0.451  -1.464  0.00  0.00    +0.002 A 
ATOM      7  C   UNL     1       3.351   0.737  -1.639  0.00  0.00    +0.027 A 
ATOM      8  C   UNL     1       1.967   0.762  -1.534  0.00  0.00    +0.055 A 
ATOM      9  N   UNL     1       1.048   1.800  -1.662  0.00  0.00    -0.308 N 
ENDROOT
BRANCH   1  13
ATOM     10  C   UNL     1      -3.721   3.725  -1.677  0.00  0.00    +0.000 A 
ATOM     11  C   UNL     1      -3.684   2.493  -2.311  0.00  0.00    +0.001 A 
ATOM     12  C   UNL     1      -2.548   1.718  -2.253  0.00  0.00    +0.010 A 
ATOM     13  C   UNL     1      -1.423   2.180  -1.548  0.00  0.00    -0.001 A 
ATOM     14  C   UNL     1      -1.473   3.428  -0.904  0.00  0.00    +0.010 A 
ATOM     15  C   UNL     1      -2.617   4.190  -0.980  0.00  0.00    +0.001 A 
ENDBRANCH   1  13
BRANCH   9  16
ATOM     16  C   UNL     1       1.390   3.124  -1.944  0.00  0.00    +0.047 A 
ATOM     17  C   UNL     1       0.991   3.707  -3.141  0.00  0.00    +0.026 A 
ATOM     18  C   UNL     1       1.325   5.019  -3.414  0.00  0.00    +0.002 A 
ATOM     19  C   UNL     1       2.067   5.749  -2.503  0.00  0.00    +0.000 A 
ATOM     20  C   UNL     1       2.471   5.170  -1.313  0.00  0.00    +0.002 A 
ATOM     21  C   UNL     1       2.135   3.861  -1.031  0.00  0.00    +0.026 A 
ENDBRANCH   9  16
BRANCH   2  22
ATOM     22  C   UNL     1      -1.215  -0.945  -0.958  0.00  0.00    +0.141 C 
ATOM     23  N   UNL     1      -0.990  -2.239  -0.726  0.00  0.00    -0.190 NA
BRANCH  23  24
ATOM     24  N   UNL     1      -1.979  -3.035  -0.496  0.00  0.00    -0.236 N 
ATOM     25  H   UNL     1      -2.886  -2.692  -0.492  0.00  0.00    +0.174 HD
BRANCH  24  26
ATOM     26  C   UNL     1      -1.746  -4.377  -0.256  0.00  0.00    +0.079 A 
ATOM     27  C   UNL     1      -0.456  -4.895  -0.375  0.00  0.00    +0.029 A 
ATOM     28  C   UNL     1      -0.229  -6.234  -0.134  0.00  0.00    +0.030 A 
ATOM     29  C   UNL     1      -1.278  -7.063   0.225  0.00  0.00    +0.107 A 
ATOM     30  C   UNL     1      -2.560  -6.554   0.344  0.00  0.00    +0.063 A 
ATOM     31  C   UNL     1      -2.798  -5.216   0.111  0.00  0.00    +0.150 A 
BRANCH  31  32
ATOM     32  N   UNL     1      -4.168  -4.671   0.244  0.00  0.00    +0.058 N 
ATOM     33  O   UNL     1      -4.352  -3.466   0.742  0.00  0.00    -0.126 OA
ATOM     34  O   UNL     1      -5.203  -5.393  -0.135  0.00  0.00    -0.126 OA
ENDBRANCH  31  32
BRANCH  29  35
ATOM     35  S   UNL     1      -0.981  -8.773   0.531  0.00  0.00    +0.056 S 
ATOM     36  O   UNL     1      -2.215  -9.444   0.319  0.00  0.00    -0.153 OA
ATOM     37  O   UNL     1       0.203  -9.112  -0.178  0.00  0.00    -0.153 OA
BRANCH  35  38
ATOM     38  N   UNL     1      -0.629  -8.928   2.142  0.00  0.00    -0.204 NA
ATOM     39  H   UNL     1      -0.619  -8.145   2.714  0.00  0.00    +0.144 HD
ATOM     40  H   UNL     1      -0.433  -9.802   2.513  0.00  0.00    +0.144 HD
ENDBRANCH  35  38
ENDBRANCH  29  35
ENDBRANCH  24  26
ENDBRANCH  23  24
ENDBRANCH   2  22
TORSDOF 8
