REMARK  Name = ZINC15746661
REMARK  9 active torsions:
REMARK  status: ('A' for Active; 'I' for Inactive)
REMARK    1  A    between atoms: C_1  and  O_2
REMARK    2  A    between atoms: O_2  and  C_3
REMARK    3  A    between atoms: C_3  and  C_5
REMARK    4  A    between atoms: C_8  and  N_11
REMARK    5  A    between atoms: C_12  and  C_14
REMARK    6  A    between atoms: C_14  and  N_24
REMARK    7  A    between atoms: C_15  and  C_16
REMARK    8  A    between atoms: C_17  and  C_18
REMARK    9  A    between atoms: C_25  and  C_27
REMARK                            x       y       z     vdW  Elec       q    Type
REMARK                         _______ _______ _______ _____ _____    ______ ____
ROOT
ATOM      1  C   UNL     1       1.635  -8.295   2.529  0.00  0.00    +0.096 C 
ATOM      2  C   UNL     1       2.245  -8.819   3.627  0.00  0.00    +0.028 C 
ENDROOT
BRANCH   1   4
ATOM      3  N   UNL     1       2.478  -6.120   1.822  0.00  0.00    -0.280 N 
ATOM      4  C   UNL     1       1.493  -6.842   2.391  0.00  0.00    +0.262 C 
ATOM      5  O   UNL     1       0.486  -6.289   2.791  0.00  0.00    -0.268 OA
ATOM      6  H   UNL     1       3.248  -6.568   1.437  0.00  0.00    +0.155 HD
BRANCH   3  10
ATOM      7  C   UNL     1       2.221  -1.965   1.717  0.00  0.00    +0.059 A 
ATOM      8  C   UNL     1       1.698  -2.673   2.804  0.00  0.00    +0.017 A 
ATOM      9  C   UNL     1       1.784  -4.046   2.835  0.00  0.00    +0.024 A 
ATOM     10  C   UNL     1       2.392  -4.731   1.786  0.00  0.00    +0.034 A 
ATOM     11  C   UNL     1       2.913  -4.030   0.703  0.00  0.00    +0.024 A 
ATOM     12  C   UNL     1       2.825  -2.657   0.663  0.00  0.00    +0.017 A 
BRANCH   7  13
ATOM     13  C   UNL     1       2.130  -0.494   1.680  0.00  0.00    +0.339 C 
ATOM     14  O   UNL     1       2.580   0.119   0.733  0.00  0.00    -0.245 OA
BRANCH  13  16
ATOM     15  C   UNL     1       1.493   1.595   2.595  0.00  0.00    +0.280 C 
ATOM     16  O   UNL     1       1.547   0.171   2.697  0.00  0.00    -0.464 OA
ENDBRANCH  13  16
ENDBRANCH   7  13
ENDBRANCH   3  10
ENDBRANCH   1   4
BRANCH   1  17
ATOM     17  N   UNL     1       1.144  -9.143   1.532  0.00  0.00    -0.277 N 
ATOM     18  C   UNL     1       0.644  -8.624   0.393  0.00  0.00    +0.249 C 
ATOM     19  O   UNL     1       0.706  -7.427   0.192  0.00  0.00    -0.270 OA
ATOM     20  H   UNL     1       1.163 -10.104   1.661  0.00  0.00    +0.155 HD
BRANCH  18  21
ATOM     21  C   UNL     1       0.021  -9.511  -0.611  0.00  0.00    +0.051 A 
ATOM     22  C   UNL     1      -0.057 -10.886  -0.380  0.00  0.00    +0.014 A 
ATOM     23  C   UNL     1      -0.639 -11.709  -1.321  0.00  0.00    +0.001 A 
ATOM     24  C   UNL     1      -1.147 -11.175  -2.493  0.00  0.00    +0.001 A 
ATOM     25  C   UNL     1      -1.074  -9.814  -2.729  0.00  0.00    +0.016 A 
ATOM     26  C   UNL     1      -0.498  -8.978  -1.793  0.00  0.00    +0.030 A 
ATOM     27 BR   UNL     1      -0.406  -7.116  -2.113  0.00  0.00    -0.050 Br
ENDBRANCH  18  21
ENDBRANCH   1  17
BRANCH   2  28
ATOM     28  C   UNL     1       2.840  -7.963   4.578  0.00  0.00    +0.003 C 
ATOM     29  C   UNL     1       3.534  -8.484   5.616  0.00  0.00    +0.008 C 
BRANCH  29  30
ATOM     30  C   UNL     1       4.154  -7.592   6.608  0.00  0.00    -0.025 A 
ATOM     31  C   UNL     1       4.023  -6.205   6.485  0.00  0.00    +0.008 A 
ATOM     32  C   UNL     1       4.607  -5.375   7.419  0.00  0.00    +0.001 A 
ATOM     33  C   UNL     1       5.321  -5.912   8.476  0.00  0.00    +0.000 A 
ATOM     34  C   UNL     1       5.456  -7.284   8.604  0.00  0.00    +0.001 A 
ATOM     35  C   UNL     1       4.873  -8.127   7.682  0.00  0.00    +0.008 A 
ENDBRANCH  29  30
ENDBRANCH   2  28
TORSDOF 8
