REMARK  Name = ZINC41024011
REMARK  5 active torsions:
REMARK  status: ('A' for Active; 'I' for Inactive)
REMARK    1  A    between atoms: C_2  and  N_19
REMARK    2  A    between atoms: C_4  and  S_9
REMARK    3  A    between atoms: S_9  and  C_10
REMARK    4  A    between atoms: C_10  and  C_11
REMARK    5  A    between atoms: C_14  and  C_16
REMARK                            x       y       z     vdW  Elec       q    Type
REMARK                         _______ _______ _______ _____ _____    ______ ____
ROOT
ATOM      1  C   UNL     1      -0.017   1.394   0.010  0.00  0.00    +0.113 A 
ATOM      2  C   UNL     1       1.191   2.078   0.002  0.00  0.00    +0.124 A 
ATOM      3  N   UNL     1       2.341   1.395  -0.013  0.00  0.00    -0.209 NA
ATOM      4  C   UNL     1       2.350   0.077  -0.020  0.00  0.00    +0.171 A 
ATOM      5  N   UNL     1       1.192  -0.640  -0.013  0.00  0.00    -0.302 N 
ATOM      6  H   UNL     1       1.223  -1.609  -0.019  0.00  0.00    +0.171 HD
ATOM      7  C   UNL     1       0.002  -0.004   0.002  0.00  0.00    +0.254 A 
ATOM      8  O   UNL     1      -1.041  -0.639   0.009  0.00  0.00    -0.268 OA
ENDROOT
BRANCH   2   9
ATOM      9  N   UNL     1       1.205   3.458   0.009  0.00  0.00    -0.343 N 
ATOM     10  H   UNL     1       0.370   3.952   0.019  0.00  0.00    +0.144 HD
ATOM     11  H   UNL     1       2.050   3.935   0.003  0.00  0.00    +0.144 HD
ENDBRANCH   2   9
BRANCH   4  12
ATOM     12  S   UNL     1       3.893  -0.774  -0.039  0.00  0.00    -0.082 S 
BRANCH  12  13
ATOM     13  C   UNL     1       5.128   0.555  -0.044  0.00  0.00    +0.133 C 
BRANCH  13  14
ATOM     14  C   UNL     1       6.510  -0.045  -0.060  0.00  0.00    +0.060 A 
ATOM     15  C   UNL     1       7.147  -0.328   1.111  0.00  0.00    +0.071 A 
ATOM     16  S   UNL     1       8.614  -0.961   0.581  0.00  0.00    -0.069 S 
ATOM     17  C   UNL     1       8.321  -0.824  -1.174  0.00  0.00    +0.190 A 
ATOM     18  N   UNL     1       7.100  -0.299  -1.196  0.00  0.00    -0.237 NA
BRANCH  17  19
ATOM     19  C   UNL     1       9.195  -1.196  -2.295  0.00  0.00    +0.411 C 
ATOM     20  O   UNL     1      10.299  -1.676  -2.077  0.00  0.00    -0.238 OA
ATOM     21  O   UNL     1       8.818  -1.025  -3.447  0.00  0.00    -0.238 OA
ENDBRANCH  17  19
ENDBRANCH  13  14
ENDBRANCH  12  13
ENDBRANCH   4  12
TORSDOF 5
