REMARK  Name = ZINC16030099
REMARK  13 active torsions:
REMARK  status: ('A' for Active; 'I' for Inactive)
REMARK    1  A    between atoms: C_1  and  C_2
REMARK    2  A    between atoms: C_4  and  C_43
REMARK    3  A    between atoms: C_14  and  O_28
REMARK    4  A    between atoms: C_15  and  C_19
REMARK    5  A    between atoms: C_19  and  C_20
REMARK    6  A    between atoms: C_20  and  C_22
REMARK    7  A    between atoms: C_20  and  C_23
REMARK    8  A    between atoms: C_23  and  N_24
REMARK    9  A    between atoms: C_25  and  C_27
REMARK   10  A    between atoms: C_32  and  C_42
REMARK   11  A    between atoms: C_35  and  O_38
REMARK   12  A    between atoms: O_38  and  C_39
REMARK   13  A    between atoms: C_39  and  C_41
REMARK                            x       y       z     vdW  Elec       q    Type
REMARK                         _______ _______ _______ _____ _____    ______ ____
ROOT
ATOM      1  C   UNL     1      -4.955  -1.001   6.170  0.00  0.00    +0.047 C 
ATOM      2  C   UNL     1      -4.210   0.285   6.413  0.00  0.00    -0.005 C 
ATOM      3  C   UNL     1      -3.005   0.539   5.950  0.00  0.00    -0.025 C 
ATOM      4  C   UNL     1      -1.826   0.125   5.106  0.00  0.00    -0.005 C 
ATOM      5  C   UNL     1      -2.057  -1.000   4.123  0.00  0.00    +0.011 C 
ATOM      6  C   UNL     1      -0.938  -1.085   3.091  0.00  0.00    +0.005 C 
ATOM      7  C   UNL     1      -0.465   0.229   2.484  0.00  0.00    +0.003 C 
ATOM      8  C   UNL     1      -0.294   1.313   3.552  0.00  0.00    +0.001 C 
ATOM      9  C   UNL     1      -1.589   1.427   4.302  0.00  0.00    +0.006 C 
ATOM     10  C   UNL     1      -1.761   2.554   5.325  0.00  0.00    +0.044 C 
ATOM     11  C   UNL     1      -2.550   1.913   6.468  0.00  0.00    +0.098 C 
ATOM     12  C   UNL     1      -3.849   2.592   6.887  0.00  0.00    +0.096 C 
ATOM     13  C   UNL     1      -4.747   1.398   7.193  0.00  0.00    +0.165 C 
ATOM     14  O   UNL     1      -5.706   1.384   7.928  0.00  0.00    -0.292 OA
ATOM     15  C   UNL     1       0.151   2.634   2.941  0.00  0.00    +0.031 C 
ATOM     16  C   UNL     1      -0.697   3.004   1.765  0.00  0.00    -0.027 C 
ATOM     17  C   UNL     1      -1.307   2.127   1.032  0.00  0.00    -0.064 C 
ATOM     18  C   UNL     1      -1.275   0.647   1.281  0.00  0.00    -0.008 C 
ATOM     19  C   UNL     1      -0.703  -0.012   0.013  0.00  0.00    +0.015 C 
ATOM     20  C   UNL     1      -1.504   0.400  -1.217  0.00  0.00    +0.046 C 
ATOM     21  C   UNL     1      -1.514   1.914  -1.409  0.00  0.00    +0.180 C 
ATOM     22  C   UNL     1      -2.096   2.610  -0.174  0.00  0.00    +0.075 C 
ATOM     23  C   UNL     1      -2.722   0.172   1.408  0.00  0.00    +0.016 C 
ATOM     24  C   UNL     1      -0.649  -0.235   6.011  0.00  0.00    +0.016 C 
ENDROOT
BRANCH  11  25
ATOM     25  O   UNL     1      -1.725   1.777   7.636  0.00  0.00    -0.384 OA
ATOM     26  H   UNL     1      -1.394   2.617   7.983  0.00  0.00    +0.211 HD
ENDBRANCH  11  25
BRANCH  12  27
ATOM     27  C   UNL     1      -4.476   3.423   5.772  0.00  0.00    +0.019 C 
BRANCH  27  28
ATOM     28  C   UNL     1      -5.709   4.151   6.310  0.00  0.00    +0.004 C 
ATOM     29  C   UNL     1      -6.422   4.865   5.160  0.00  0.00    +0.009 C 
BRANCH  28  30
ATOM     30  C   UNL     1      -5.278   5.178   7.359  0.00  0.00    +0.107 C 
BRANCH  30  31
ATOM     31  N   UNL     1      -6.465   5.791   7.959  0.00  0.00    -0.315 N 
ATOM     32  C   UNL     1      -6.327   6.731   8.915  0.00  0.00    +0.210 C 
ATOM     33  O   UNL     1      -5.221   7.070   9.278  0.00  0.00    -0.276 OA
ATOM     34  C   UNL     1      -7.549   7.362   9.533  0.00  0.00    +0.109 C 
ATOM     35  H   UNL     1      -7.350   5.520   7.669  0.00  0.00    +0.149 HD
ENDBRANCH  30  31
ENDBRANCH  28  30
ENDBRANCH  27  28
ENDBRANCH  12  27
BRANCH  21  36
ATOM     36  O   UNL     1      -0.159   2.386  -1.634  0.00  0.00    -0.461 OA
BRANCH  36  37
ATOM     37  C   UNL     1      -0.014   3.480  -2.399  0.00  0.00    +0.304 C 
ATOM     38  O   UNL     1      -0.987   4.024  -2.865  0.00  0.00    -0.251 OA
ATOM     39  C   UNL     1       1.362   4.029  -2.676  0.00  0.00    +0.136 C 
ENDBRANCH  36  37
ENDBRANCH  21  36
TORSDOF 7
