REMARK  Name = ZINC21040248
REMARK  10 active torsions:
REMARK  status: ('A' for Active; 'I' for Inactive)
REMARK    1  A    between atoms: C_3  and  N_8
REMARK    2  A    between atoms: C_12  and  C_18
REMARK    3  A    between atoms: C_18  and  C_19
REMARK    4  A    between atoms: C_19  and  C_20
REMARK    5  A    between atoms: C_20  and  C_21
REMARK    6  A    between atoms: N_23  and  C_24
REMARK    7  A    between atoms: C_24  and  C_25
REMARK    8  A    between atoms: C_25  and  C_26
REMARK    9  A    between atoms: C_29  and  S_32
REMARK   10  A    between atoms: S_32  and  N_35
REMARK                            x       y       z     vdW  Elec       q    Type
REMARK                         _______ _______ _______ _____ _____    ______ ____
ROOT
ATOM      1  C   UNL     1      -0.835   1.591  -1.224  0.00  0.00    +0.017 C 
ENDROOT
BRANCH   1   2
ATOM      2  C   UNL     1      -0.038   1.103  -0.013  0.00  0.00    +0.077 C 
BRANCH   2   7
ATOM      3  N   UNL     1      -0.431   4.891   3.625  0.00  0.00    -0.280 N 
ATOM      4  C   UNL     1       0.385   4.834   2.511  0.00  0.00    +0.113 A 
ATOM      5  C   UNL     1       0.366   3.798   1.681  0.00  0.00    +0.112 A 
ATOM      6  N   UNL     1      -0.474   2.722   1.901  0.00  0.00    -0.281 N 
ATOM      7  C   UNL     1      -0.713   1.568   1.252  0.00  0.00    +0.138 A 
ATOM      8  N   UNL     1      -1.635   0.919   1.923  0.00  0.00    -0.134 NA
ATOM      9  N   UNL     1      -1.993   1.601   2.955  0.00  0.00    -0.124 NA
ATOM     10  C   UNL     1      -1.312   2.724   2.990  0.00  0.00    +0.227 A 
ATOM     11  C   UNL     1      -1.281   3.876   3.900  0.00  0.00    +0.301 A 
ATOM     12  O   UNL     1      -2.003   3.917   4.879  0.00  0.00    -0.263 OA
BRANCH   3  15
ATOM     13  C   UNL     1       0.812   7.346   6.065  0.00  0.00    +0.005 A 
ATOM     14  C   UNL     1       0.759   6.244   5.233  0.00  0.00    +0.026 A 
ATOM     15  C   UNL     1      -0.378   6.003   4.472  0.00  0.00    +0.052 A 
ATOM     16  C   UNL     1      -1.463   6.866   4.557  0.00  0.00    +0.064 A 
ATOM     17  C   UNL     1      -1.406   7.965   5.395  0.00  0.00    +0.125 A 
ATOM     18  C   UNL     1      -0.269   8.204   6.149  0.00  0.00    +0.038 A 
ATOM     19  F   UNL     1      -2.461   8.805   5.479  0.00  0.00    -0.205 F 
ENDBRANCH   3  15
ENDBRANCH   2   7
ENDBRANCH   1   2
BRANCH   1  20
ATOM     20  C   UNL     1      -0.150   1.119  -2.509  0.00  0.00    +0.096 C 
BRANCH  20  21
ATOM     21  C   UNL     1      -0.934   1.600  -3.702  0.00  0.00    +0.213 C 
ATOM     22  O   UNL     1      -1.942   2.256  -3.542  0.00  0.00    -0.276 OA
ATOM     23  N   UNL     1      -0.516   1.301  -4.948  0.00  0.00    -0.315 N 
ATOM     24  H   UNL     1       0.397   0.705  -5.094  0.00  0.00    +0.149 HD
BRANCH  23  25
ATOM     25  C   UNL     1      -1.279   1.768  -6.108  0.00  0.00    +0.109 C 
BRANCH  25  26
ATOM     26  C   UNL     1      -0.594   1.296  -7.393  0.00  0.00    +0.054 C 
BRANCH  26  27
ATOM     27  C   UNL     1      -1.378   1.777  -8.586  0.00  0.00    -0.046 A 
ATOM     28  C   UNL     1      -2.385   0.991  -9.114  0.00  0.00    +0.005 A 
ATOM     29  C   UNL     1      -3.107   1.434 -10.206  0.00  0.00    +0.029 A 
ATOM     30  C   UNL     1      -2.817   2.659 -10.776  0.00  0.00    +0.105 A 
ATOM     31  C   UNL     1      -1.806   3.443 -10.251  0.00  0.00    +0.029 A 
ATOM     32  C   UNL     1      -1.087   3.002  -9.156  0.00  0.00    +0.005 A 
BRANCH  30  33
ATOM     33  S   UNL     1      -3.734   3.222 -12.171  0.00  0.00    +0.056 S 
ATOM     34  O   UNL     1      -4.985   2.549 -12.133  0.00  0.00    -0.153 OA
ATOM     35  O   UNL     1      -3.632   4.640 -12.179  0.00  0.00    -0.153 OA
BRANCH  33  36
ATOM     36  N   UNL     1      -2.948   2.683 -13.525  0.00  0.00    -0.204 NA
ATOM     37  H   UNL     1      -3.491   3.015 -14.421  0.00  0.00    +0.144 HD
ATOM     38  H   UNL     1      -2.902   1.584 -13.509  0.00  0.00    +0.144 HD
ENDBRANCH  33  36
ENDBRANCH  30  33
ENDBRANCH  26  27
ENDBRANCH  25  26
ENDBRANCH  23  25
ENDBRANCH  20  21
ENDBRANCH   1  20
TORSDOF 10
