REMARK  Name = ZINC00887554
REMARK  10 active torsions:
REMARK  status: ('A' for Active; 'I' for Inactive)
REMARK    1  A    between atoms: C_1  and  C_2
REMARK    2  A    between atoms: C_5  and  N_8
REMARK    3  A    between atoms: N_8  and  C_9
REMARK    4  A    between atoms: C_9  and  C_11
REMARK    5  A    between atoms: C_9  and  C_18
REMARK    6  A    between atoms: N_20  and  C_21
REMARK    7  A    between atoms: C_21  and  C_22
REMARK    8  A    between atoms: C_28  and  C_30
REMARK    9  A    between atoms: C_30  and  N_31
REMARK   10  A    between atoms: C_33  and  C_36
REMARK                            x       y       z     vdW  Elec       q    Type
REMARK                         _______ _______ _______ _____ _____    ______ ____
ROOT
ATOM      1  N   UNL     1       0.621  -4.178  -0.016  0.00  0.00    -0.254 N 
ATOM      2  C   UNL     1       0.672  -4.952  -1.118  0.00  0.00    +0.244 C 
ATOM      3  O   UNL     1       0.344  -6.118  -1.055  0.00  0.00    -0.273 OA
ENDROOT
BRANCH   1   8
ATOM      4  C   UNL     1       1.802   1.359  -0.380  0.00  0.00    +0.044 C 
ATOM      5  C   UNL     1       1.488  -0.112  -0.283  0.00  0.00    -0.050 A 
ATOM      6  C   UNL     1       0.324  -0.607  -0.840  0.00  0.00    +0.005 A 
ATOM      7  C   UNL     1       0.033  -1.954  -0.753  0.00  0.00    +0.024 A 
ATOM      8  C   UNL     1       0.912  -2.812  -0.106  0.00  0.00    +0.038 A 
ATOM      9  C   UNL     1       2.081  -2.312   0.452  0.00  0.00    +0.024 A 
ATOM     10  C   UNL     1       2.368  -0.964   0.358  0.00  0.00    +0.005 A 
ENDBRANCH   1   8
BRANCH   1  11
ATOM     11  C   UNL     1       0.260  -4.766   1.277  0.00  0.00    +0.197 C 
BRANCH  11  12
ATOM     12  C   UNL     1       0.440  -3.738   2.364  0.00  0.00    -0.018 A 
ATOM     13  C   UNL     1      -0.222  -2.527   2.286  0.00  0.00    +0.007 A 
ATOM     14  C   UNL     1      -0.058  -1.584   3.283  0.00  0.00    +0.020 A 
ATOM     15  C   UNL     1       0.769  -1.852   4.359  0.00  0.00    +0.041 A 
ATOM     16  C   UNL     1       1.432  -3.064   4.436  0.00  0.00    +0.020 A 
ATOM     17  C   UNL     1       1.262  -4.009   3.442  0.00  0.00    +0.007 A 
ATOM     18 CL   UNL     1       0.977  -0.668   5.612  0.00  0.00    -0.084 Cl
ENDBRANCH  11  12
BRANCH  11  19
ATOM     19  C   UNL     1      -1.179  -5.213   1.241  0.00  0.00    +0.239 C 
ATOM     20  O   UNL     1      -1.838  -5.056   0.235  0.00  0.00    -0.273 OA
ATOM     21  N   UNL     1      -1.733  -5.788   2.327  0.00  0.00    -0.309 N 
ATOM     22  H   UNL     1      -1.205  -5.914   3.131  0.00  0.00    +0.149 HD
BRANCH  21  23
ATOM     23  C   UNL     1      -3.131  -6.223   2.292  0.00  0.00    +0.139 C 
BRANCH  23  24
ATOM     24  C   UNL     1      -3.502  -6.828   3.622  0.00  0.00    -0.030 A 
ATOM     25  C   UNL     1      -3.322  -8.181   3.840  0.00  0.00    +0.005 A 
ATOM     26  C   UNL     1      -3.663  -8.736   5.059  0.00  0.00    +0.000 A 
ATOM     27  C   UNL     1      -4.182  -7.938   6.061  0.00  0.00    +0.000 A 
ATOM     28  C   UNL     1      -4.361  -6.585   5.843  0.00  0.00    +0.000 A 
ATOM     29  C   UNL     1      -4.017  -6.029   4.625  0.00  0.00    +0.005 A 
ENDBRANCH  23  24
ENDBRANCH  21  23
ENDBRANCH  11  19
ENDBRANCH   1  11
BRANCH   2  30
ATOM     30  C   UNL     1       1.135  -4.369  -2.428  0.00  0.00    +0.264 C 
BRANCH  30  31
ATOM     31  N   UNL     1       1.023  -5.381  -3.480  0.00  0.00    -0.154 N 
ATOM     32  N   UNL     1       1.945  -6.220  -3.808  0.00  0.00    -0.129 NA
ATOM     33  C   UNL     1       1.479  -6.968  -4.790  0.00  0.00    +0.211 A 
ATOM     34  N   UNL     1       0.232  -6.540  -5.040  0.00  0.00    -0.107 NA
ATOM     35  N   UNL     1      -0.013  -5.576  -4.218  0.00  0.00    -0.045 NA
BRANCH  33  36
ATOM     36  C   UNL     1       2.192  -8.064  -5.482  0.00  0.00    +0.060 A 
ATOM     37  C   UNL     1       1.760  -8.863  -6.506  0.00  0.00    +0.019 A 
ATOM     38  C   UNL     1       2.611  -9.829  -6.997  0.00  0.00    +0.008 A 
ATOM     39  C   UNL     1       3.848  -9.959  -6.453  0.00  0.00    +0.046 A 
ATOM     40  S   UNL     1       3.844  -8.682  -5.205  0.00  0.00    -0.093 S 
ENDBRANCH  33  36
ENDBRANCH  30  31
ENDBRANCH   2  30
TORSDOF 9
