REMARK  Name = ZINC36005437
REMARK  14 active torsions:
REMARK  status: ('A' for Active; 'I' for Inactive)
REMARK    1  A    between atoms: C_1  and  C_2
REMARK    2  A    between atoms: C_2  and  C_3
REMARK    3  A    between atoms: C_3  and  N_4
REMARK    4  A    between atoms: N_11  and  C_14
REMARK    5  A    between atoms: C_14  and  C_15
REMARK    6  A    between atoms: C_16  and  C_33
REMARK    7  A    between atoms: C_17  and  C_24
REMARK    8  A    between atoms: N_22  and  C_23
REMARK    9  A    between atoms: C_27  and  C_30
REMARK   10  A    between atoms: C_30  and  C_31
REMARK   11  A    between atoms: C_30  and  C_32
REMARK   12  A    between atoms: C_33  and  O_35
REMARK   13  A    between atoms: O_35  and  C_36
REMARK   14  A    between atoms: C_36  and  C_37
REMARK                            x       y       z     vdW  Elec       q    Type
REMARK                         _______ _______ _______ _____ _____    ______ ____
ROOT
ATOM      1  C   UNL     1       5.764  -6.250   3.248  0.00  0.00    +0.010 C 
ATOM      2  C   UNL     1       5.912  -7.559   2.949  0.00  0.00    +0.076 C 
ATOM      3  C   UNL     1       6.537  -8.456   3.998  0.00  0.00    +0.143 C 
ATOM      4  N   UNL     1       6.934  -7.823   5.266  0.00  0.00    -0.288 N 
ATOM      5  C   UNL     1       6.721  -6.501   5.418  0.00  0.00    +0.307 C 
ATOM      6  O   UNL     1       7.046  -5.968   6.461  0.00  0.00    -0.252 OA
ATOM      7  N   UNL     1       6.169  -5.753   4.454  0.00  0.00    -0.264 N 
ATOM      8  C   UNL     1       5.984  -4.322   4.709  0.00  0.00    +0.139 C 
ATOM      9  H   UNL     1       7.339  -8.345   5.977  0.00  0.00    +0.151 HD
ENDROOT
BRANCH   3  10
ATOM     10  C   UNL     1       5.554  -9.554   4.315  0.00  0.00    -0.022 A 
ATOM     11  C   UNL     1       4.496  -9.308   5.170  0.00  0.00    +0.006 A 
ATOM     12  C   UNL     1       3.594 -10.315   5.461  0.00  0.00    +0.004 A 
ATOM     13  C   UNL     1       3.751 -11.568   4.897  0.00  0.00    -0.045 A 
ATOM     14  C   UNL     1       4.809 -11.813   4.041  0.00  0.00    +0.004 A 
ATOM     15  C   UNL     1       5.708 -10.805   3.747  0.00  0.00    +0.006 A 
BRANCH  13  16
ATOM     16  C   UNL     1       2.769 -12.666   5.215  0.00  0.00    +0.013 C 
ATOM     17  C   UNL     1       2.098 -13.139   3.924  0.00  0.00    +0.012 C 
ATOM     18  C   UNL     1       3.507 -13.837   5.865  0.00  0.00    +0.012 C 
ENDBRANCH  13  16
ENDBRANCH   3  10
BRANCH   2  19
ATOM     19  C   UNL     1       5.497  -8.074   1.698  0.00  0.00    +0.339 C 
ATOM     20  O   UNL     1       4.925  -7.354   0.903  0.00  0.00    -0.245 OA
BRANCH  19  21
ATOM     21  O   UNL     1       5.736  -9.366   1.388  0.00  0.00    -0.462 OA
BRANCH  21  22
ATOM     22  C   UNL     1       5.290  -9.819   0.108  0.00  0.00    +0.229 C 
ATOM     23  C   UNL     1       5.647 -11.297  -0.062  0.00  0.00    +0.048 C 
ENDBRANCH  21  22
ENDBRANCH  19  21
ENDBRANCH   2  19
BRANCH   1  24
ATOM     24  C   UNL     1       5.147  -5.323   2.233  0.00  0.00    -0.026 C 
BRANCH  24  32
ATOM     25  N   UNL     1       0.968  -2.976   4.744  0.00  0.00    -0.299 N 
ATOM     26  C   UNL     1       0.607  -3.246   3.474  0.00  0.00    +0.302 C 
ATOM     27  O   UNL     1      -0.062  -2.446   2.849  0.00  0.00    -0.253 OA
ATOM     28  N   UNL     1       0.987  -4.403   2.897  0.00  0.00    -0.287 N 
ATOM     29  C   UNL     1       0.645  -4.638   1.479  0.00  0.00    +0.107 C 
ATOM     30  C   UNL     1       1.822  -5.285   0.726  0.00  0.00    +0.000 C 
ATOM     31  C   UNL     1       3.120  -4.659   1.186  0.00  0.00    -0.077 C 
ATOM     32  N   UNL     1       3.685  -5.460   2.269  0.00  0.00    +0.384 N 
ATOM     33  C   UNL     1       3.236  -5.114   3.563  0.00  0.00    -0.059 C 
ATOM     34  C   UNL     1       1.721  -5.369   3.688  0.00  0.00    +0.091 C 
ATOM     35  H   UNL     1       1.437  -3.644   5.267  0.00  0.00    +0.150 HD
ATOM     36  H   UNL     1       3.456  -6.429   2.101  0.00  0.00    -0.081 HD
BRANCH  25  37
ATOM     37  C   UNL     1       0.651  -1.673   5.334  0.00  0.00    +0.105 C 
BRANCH  37  39
ATOM     38  C   UNL     1       0.837  -0.265   7.390  0.00  0.00    +0.005 C 
ATOM     39  C   UNL     1       1.167  -1.626   6.774  0.00  0.00    +0.015 C 
ENDBRANCH  37  39
ENDBRANCH  25  37
ENDBRANCH  24  32
ENDBRANCH   1  24
TORSDOF 9
