REMARK  Name = ZINC36592834
REMARK  15 active torsions:
REMARK  status: ('A' for Active; 'I' for Inactive)
REMARK    1  A    between atoms: C_1  and  C_2
REMARK    2  A    between atoms: C_2  and  C_3
REMARK    3  A    between atoms: C_3  and  C_4
REMARK    4  A    between atoms: C_4  and  N_5
REMARK    5  A    between atoms: C_6  and  C_8
REMARK    6  A    between atoms: C_8  and  C_10
REMARK    7  A    between atoms: C_8  and  N_19
REMARK    8  A    between atoms: C_11  and  O_18
REMARK    9  A    between atoms: C_13  and  O_17
REMARK   10  A    between atoms: C_15  and  O_16
REMARK   11  A    between atoms: N_19  and  C_29
REMARK   12  A    between atoms: C_20  and  C_22
REMARK   13  A    between atoms: C_29  and  C_30
REMARK   14  A    between atoms: C_29  and  C_31
REMARK   15  A    between atoms: C_29  and  C_32
REMARK                            x       y       z     vdW  Elec       q    Type
REMARK                         _______ _______ _______ _____ _____    ______ ____
ROOT
ATOM      1  C   UNL     1       2.307  -3.662  -1.831  0.00  0.00    +0.200 C 
ENDROOT
BRANCH   1   2
ATOM      2  C   UNL     1       3.655  -3.303  -1.260  0.00  0.00    +0.065 A 
ATOM      3  C   UNL     1       4.605  -4.291  -1.050  0.00  0.00    +0.129 A 
ATOM      4  C   UNL     1       5.845  -3.959  -0.524  0.00  0.00    +0.091 A 
ATOM      5  C   UNL     1       6.135  -2.640  -0.211  0.00  0.00    +0.124 A 
ATOM      6  C   UNL     1       5.186  -1.652  -0.422  0.00  0.00    +0.091 A 
ATOM      7  C   UNL     1       3.947  -1.983  -0.952  0.00  0.00    +0.129 A 
BRANCH   7   8
ATOM      8  O   UNL     1       3.018  -1.014  -1.164  0.00  0.00    -0.506 OA
ATOM      9  H   UNL     1       2.436  -0.855  -0.408  0.00  0.00    +0.292 HD
ENDBRANCH   7   8
BRANCH   5  10
ATOM     10  O   UNL     1       7.350  -2.316   0.305  0.00  0.00    -0.507 OA
ATOM     11  H   UNL     1       8.014  -2.097  -0.362  0.00  0.00    +0.292 HD
ENDBRANCH   5  10
BRANCH   3  12
ATOM     12  O   UNL     1       4.320  -5.583  -1.357  0.00  0.00    -0.506 OA
ATOM     13  H   UNL     1       4.491  -5.815  -2.280  0.00  0.00    +0.292 HD
ENDBRANCH   3  12
ENDBRANCH   1   2
BRANCH   1  15
ATOM     14  N   UNL     1       1.452  -3.058   0.410  0.00  0.00    -0.313 N 
ATOM     15  C   UNL     1       1.306  -3.791  -0.712  0.00  0.00    +0.238 C 
ATOM     16  O   UNL     1       0.369  -4.553  -0.822  0.00  0.00    -0.273 OA
ATOM     17  H   UNL     1       2.201  -2.449   0.497  0.00  0.00    +0.149 HD
BRANCH  14  18
ATOM     18  C   UNL     1       0.478  -3.183   1.497  0.00  0.00    +0.104 C 
BRANCH  18  19
ATOM     19  C   UNL     1       0.873  -2.251   2.644  0.00  0.00    +0.018 C 
BRANCH  19  21
ATOM     20  C   UNL     1       0.251  -1.449   4.927  0.00  0.00    +0.004 C 
ATOM     21  C   UNL     1      -0.144  -2.381   3.780  0.00  0.00    -0.002 C 
ENDBRANCH  19  21
ENDBRANCH  18  19
ENDBRANCH  14  18
ENDBRANCH   1  15
BRANCH   1  22
ATOM     22  N   UNL     1       2.405  -4.936  -2.548  0.00  0.00    -0.277 N 
ATOM     23  C   UNL     1       3.105  -5.011  -3.697  0.00  0.00    +0.249 C 
ATOM     24  O   UNL     1       2.917  -5.936  -4.464  0.00  0.00    -0.270 OA
BRANCH  23  25
ATOM     25  C   UNL     1       4.100  -3.970  -4.026  0.00  0.00    +0.055 A 
ATOM     26  C   UNL     1       4.105  -2.760  -3.329  0.00  0.00    +0.014 A 
ATOM     27  C   UNL     1       5.037  -1.792  -3.639  0.00  0.00    +0.001 A 
ATOM     28  C   UNL     1       5.966  -2.017  -4.640  0.00  0.00    +0.001 A 
ATOM     29  C   UNL     1       5.968  -3.212  -5.335  0.00  0.00    +0.021 A 
ATOM     30  C   UNL     1       5.044  -4.193  -5.030  0.00  0.00    +0.053 A 
ATOM     31 CL   UNL     1       5.052  -5.696  -5.899  0.00  0.00    -0.083 Cl
ENDBRANCH  23  25
BRANCH  22  32
ATOM     32  C   UNL     1       1.742  -6.129  -2.015  0.00  0.00    +0.030 C 
ATOM     33  C   UNL     1       0.250  -6.076  -2.350  0.00  0.00    +0.031 C 
ATOM     34  C   UNL     1       2.361  -7.380  -2.642  0.00  0.00    +0.031 C 
ATOM     35  C   UNL     1       1.922  -6.177  -0.496  0.00  0.00    +0.031 C 
ENDBRANCH  22  32
ENDBRANCH   1  22
TORSDOF 11
