REMARK  Name = ZINC59115694
REMARK  16 active torsions:
REMARK  status: ('A' for Active; 'I' for Inactive)
REMARK    1  A    between atoms: C_1  and  C_2
REMARK    2  A    between atoms: C_2  and  C_3
REMARK    3  A    between atoms: C_6  and  N_9
REMARK    4  A    between atoms: N_9  and  C_10
REMARK    5  A    between atoms: C_10  and  N_12
REMARK    6  A    between atoms: N_12  and  C_13
REMARK    7  A    between atoms: C_13  and  C_14
REMARK    8  A    between atoms: C_14  and  C_35
REMARK    9  A    between atoms: C_16  and  N_23
REMARK   10  A    between atoms: C_19  and  C_21
REMARK   11  A    between atoms: C_19  and  C_22
REMARK   12  A    between atoms: N_23  and  C_24
REMARK   13  A    between atoms: C_24  and  N_26
REMARK   14  A    between atoms: N_26  and  C_27
REMARK   15  A    between atoms: C_30  and  C_33
REMARK   16  A    between atoms: C_33  and  C_34
REMARK                            x       y       z     vdW  Elec       q    Type
REMARK                         _______ _______ _______ _____ _____    ______ ____
ROOT
ATOM      1  C   UNL     1      -8.954  -3.018  -1.297  0.00  0.00    -0.014 C 
ATOM      2  C   UNL     1      -9.766  -1.903  -0.649  0.00  0.00    +0.030 C 
ATOM      3  C   UNL     1     -11.232  -2.308  -0.513  0.00  0.00    +0.073 C 
ATOM      4  C   UNL     1     -11.806  -2.558  -1.906  0.00  0.00    +0.028 C 
ATOM      5  C   UNL     1     -11.067  -3.696  -2.600  0.00  0.00    -0.033 C 
ATOM      6  C   UNL     1      -9.562  -3.502  -2.600  0.00  0.00    +0.014 C 
ATOM      7  C   UNL     1     -11.541  -3.734  -4.070  0.00  0.00    +0.011 C 
ATOM      8  C   UNL     1     -11.451  -5.035  -1.964  0.00  0.00    +0.011 C 
ATOM      9  C   UNL     1      -8.772  -4.175  -0.309  0.00  0.00    +0.013 C 
ENDROOT
BRANCH   3  10
ATOM     10  N   UNL     1     -11.976  -1.214   0.124  0.00  0.00    -0.323 N 
ATOM     11  H   UNL     1     -11.650  -0.303   0.058  0.00  0.00    +0.148 HD
BRANCH  10  12
ATOM     12  C   UNL     1     -13.112  -1.477   0.801  0.00  0.00    +0.135 C 
ATOM     13  S   UNL     1     -13.687  -3.085   0.917  0.00  0.00    -0.019 S 
BRANCH  12  14
ATOM     14  N   UNL     1     -13.795  -0.473   1.386  0.00  0.00    -0.297 N 
ATOM     15  H   UNL     1     -13.516   0.447   1.251  0.00  0.00    +0.154 HD
BRANCH  14  16
ATOM     16  C   UNL     1     -14.906  -0.757   2.188  0.00  0.00    +0.033 A 
ATOM     17  C   UNL     1     -14.873  -1.831   3.067  0.00  0.00    +0.023 A 
ATOM     18  C   UNL     1     -15.971  -2.108   3.857  0.00  0.00    +0.005 A 
ATOM     19  C   UNL     1     -17.102  -1.318   3.773  0.00  0.00    -0.048 A 
ATOM     20  C   UNL     1     -17.138  -0.247   2.899  0.00  0.00    +0.005 A 
ATOM     21  C   UNL     1     -16.041   0.039   2.110  0.00  0.00    +0.023 A 
BRANCH  19  22
ATOM     22  C   UNL     1     -18.299  -1.624   4.636  0.00  0.00    +0.032 C 
ATOM     23  C   UNL     1     -18.180  -0.867   5.961  0.00  0.00    +0.009 C 
ENDBRANCH  19  22
ENDBRANCH  14  16
ENDBRANCH  12  14
ENDBRANCH  10  12
ENDBRANCH   3  10
BRANCH   1  24
ATOM     24  C   UNL     1      -7.549  -2.455  -1.607  0.00  0.00    +0.110 C 
BRANCH  24  25
ATOM     25  N   UNL     1      -6.930  -1.977  -0.369  0.00  0.00    -0.326 N 
ATOM     26  H   UNL     1      -7.409  -2.047   0.472  0.00  0.00    +0.148 HD
BRANCH  25  27
ATOM     27  C   UNL     1      -5.694  -1.440  -0.397  0.00  0.00    +0.135 C 
ATOM     28  S   UNL     1      -4.848  -1.316  -1.880  0.00  0.00    -0.019 S 
BRANCH  27  29
ATOM     29  N   UNL     1      -5.124  -1.000   0.743  0.00  0.00    -0.297 N 
ATOM     30  H   UNL     1      -5.567  -1.145   1.594  0.00  0.00    +0.154 HD
BRANCH  29  34
ATOM     31  C   UNL     1      -1.463   0.982   0.612  0.00  0.00    -0.048 A 
ATOM     32  C   UNL     1      -2.426   1.249  -0.344  0.00  0.00    +0.005 A 
ATOM     33  C   UNL     1      -3.641   0.593  -0.303  0.00  0.00    +0.023 A 
ATOM     34  C   UNL     1      -3.895  -0.335   0.699  0.00  0.00    +0.033 A 
ATOM     35  C   UNL     1      -2.925  -0.600   1.657  0.00  0.00    +0.023 A 
ATOM     36  C   UNL     1      -1.710   0.055   1.607  0.00  0.00    +0.005 A 
BRANCH  31  38
ATOM     37  C   UNL     1       0.845   0.898  -0.291  0.00  0.00    +0.009 C 
ATOM     38  C   UNL     1      -0.138   1.700   0.564  0.00  0.00    +0.032 C 
ENDBRANCH  31  38
ENDBRANCH  29  34
ENDBRANCH  27  29
ENDBRANCH  25  27
ENDBRANCH  24  25
ENDBRANCH   1  24
TORSDOF 11
