REMARK  Name = ZINC01000860
REMARK  11 active torsions:
REMARK  status: ('A' for Active; 'I' for Inactive)
REMARK    1  A    between atoms: C_1  and  C_2
REMARK    2  A    between atoms: C_5  and  C_8
REMARK    3  A    between atoms: C_9  and  C_31
REMARK    4  A    between atoms: C_11  and  N_17
REMARK    5  A    between atoms: C_12  and  C_13
REMARK    6  A    between atoms: C_13  and  O_15
REMARK    7  A    between atoms: O_15  and  C_16
REMARK    8  A    between atoms: N_17  and  S_18
REMARK    9  A    between atoms: S_18  and  C_21
REMARK   10  A    between atoms: C_24  and  N_27
REMARK   11  A    between atoms: C_28  and  C_30
REMARK                            x       y       z     vdW  Elec       q    Type
REMARK                         _______ _______ _______ _____ _____    ______ ____
ROOT
ATOM      1  C   UNL     1      -2.627   2.269   1.291  0.00  0.00    +0.008 A 
ATOM      2  C   UNL     1      -3.776   2.933   1.012  0.00  0.00    -0.003 A 
ATOM      3  S   UNL     1      -3.751   3.071  -0.763  0.00  0.00    -0.076 S 
ATOM      4  C   UNL     1      -2.253   2.272  -1.099  0.00  0.00    +0.100 A 
ATOM      5  C   UNL     1      -1.794   1.902   0.160  0.00  0.00    +0.096 A 
ATOM      6  C   UNL     1      -4.823   3.433   1.973  0.00  0.00    +0.052 C 
ENDROOT
BRANCH   1  11
ATOM      7  C   UNL     1      -1.123   0.973   6.696  0.00  0.00    +0.044 C 
ATOM      8  C   UNL     1      -1.517   1.312   5.281  0.00  0.00    -0.050 A 
ATOM      9  C   UNL     1      -1.593   2.636   4.886  0.00  0.00    +0.004 A 
ATOM     10  C   UNL     1      -1.953   2.952   3.592  0.00  0.00    +0.009 A 
ATOM     11  C   UNL     1      -2.240   1.935   2.682  0.00  0.00    -0.016 A 
ATOM     12  C   UNL     1      -2.167   0.604   3.088  0.00  0.00    +0.009 A 
ATOM     13  C   UNL     1      -1.800   0.299   4.383  0.00  0.00    +0.004 A 
ENDBRANCH   1  11
BRANCH   5  14
ATOM     14  C   UNL     1      -0.570   1.207   0.332  0.00  0.00    +0.342 C 
ATOM     15  O   UNL     1      -0.555  -0.010   0.327  0.00  0.00    -0.245 OA
BRANCH  14  16
ATOM     16  O   UNL     1       0.580   1.894   0.494  0.00  0.00    -0.464 OA
ATOM     17  C   UNL     1       1.776   1.129   0.656  0.00  0.00    +0.280 C 
ENDBRANCH  14  16
ENDBRANCH   5  14
BRANCH   4  18
ATOM     18  N   UNL     1      -1.657   2.052  -2.325  0.00  0.00    -0.209 N 
ATOM     19  H   UNL     1      -0.808   1.585  -2.375  0.00  0.00    +0.174 HD
BRANCH  18  20
ATOM     20  S   UNL     1      -2.391   2.586  -3.710  0.00  0.00    +0.073 S 
ATOM     21  O   UNL     1      -1.531   2.237  -4.786  0.00  0.00    -0.150 OA
ATOM     22  O   UNL     1      -3.743   2.154  -3.645  0.00  0.00    -0.150 OA
BRANCH  20  23
ATOM     23  C   UNL     1      -2.420   4.346  -3.639  0.00  0.00    +0.109 A 
ATOM     24  C   UNL     1      -3.499   4.995  -3.068  0.00  0.00    +0.030 A 
ATOM     25  C   UNL     1      -3.523   6.375  -3.006  0.00  0.00    +0.025 A 
ATOM     26  C   UNL     1      -2.466   7.110  -3.529  0.00  0.00    +0.033 A 
ATOM     27  C   UNL     1      -1.387   6.455  -4.107  0.00  0.00    +0.025 A 
ATOM     28  C   UNL     1      -1.367   5.075  -4.161  0.00  0.00    +0.030 A 
BRANCH  26  29
ATOM     29  N   UNL     1      -2.489   8.508  -3.472  0.00  0.00    -0.286 N 
ATOM     30  C   UNL     1      -1.927   9.232  -4.460  0.00  0.00    +0.214 C 
ATOM     31  O   UNL     1      -1.487   8.676  -5.444  0.00  0.00    -0.276 OA
ATOM     32  C   UNL     1      -1.846  10.732  -4.343  0.00  0.00    +0.109 C 
ATOM     33  H   UNL     1      -2.910   8.956  -2.721  0.00  0.00    +0.155 HD
ENDBRANCH  26  29
ENDBRANCH  20  23
ENDBRANCH  18  20
ENDBRANCH   4  18
TORSDOF 7
