REMARK  Name = ZINC17087080
REMARK  8 active torsions:
REMARK  status: ('A' for Active; 'I' for Inactive)
REMARK    1  A    between atoms: C_1  and  C_2
REMARK    2  A    between atoms: C_7  and  C_8
REMARK    3  A    between atoms: C_8  and  O_9
REMARK    4  A    between atoms: O_9  and  C_10
REMARK    5  A    between atoms: C_13  and  C_16
REMARK    6  A    between atoms: C_18  and  C_27
REMARK    7  A    between atoms: C_19  and  C_26
REMARK    8  A    between atoms: N_29  and  C_30
REMARK                            x       y       z     vdW  Elec       q    Type
REMARK                         _______ _______ _______ _____ _____    ______ ____
ROOT
ATOM      1  C   UNL     1       0.100  -4.322   0.067  0.00  0.00    +0.179 C 
ATOM      2  C   UNL     1       0.813  -5.014   1.199  0.00  0.00    +0.060 C 
ATOM      3  C   UNL     1       1.970  -5.674   1.042  0.00  0.00    +0.018 C 
ATOM      4  N   UNL     1       2.594  -5.780  -0.177  0.00  0.00    -0.286 N 
ATOM      5  C   UNL     1       1.870  -5.405  -1.299  0.00  0.00    +0.240 A 
ATOM      6  N   UNL     1       0.697  -4.726  -1.200  0.00  0.00    -0.201 N 
ATOM      7  N   UNL     1       0.264  -4.535  -2.510  0.00  0.00    -0.042 NA
ATOM      8  N   UNL     1       1.156  -5.077  -3.275  0.00  0.00    -0.021 NA
ATOM      9  N   UNL     1       2.104  -5.589  -2.567  0.00  0.00    -0.092 NA
ATOM     10  C   UNL     1       2.607  -6.322   2.244  0.00  0.00    +0.061 C 
ATOM     11  H   UNL     1       3.505  -6.105  -0.250  0.00  0.00    +0.155 HD
ENDROOT
BRANCH   1  15
ATOM     12  C   UNL     1       0.464  -0.089   0.530  0.00  0.00    +0.121 A 
ATOM     13  C   UNL     1       1.600  -0.873   0.390  0.00  0.00    +0.046 A 
ATOM     14  C   UNL     1       1.480  -2.242   0.246  0.00  0.00    +0.009 A 
ATOM     15  C   UNL     1       0.228  -2.829   0.230  0.00  0.00    -0.018 A 
ATOM     16  C   UNL     1      -0.906  -2.050   0.364  0.00  0.00    +0.009 A 
ATOM     17  C   UNL     1      -0.791  -0.681   0.513  0.00  0.00    +0.046 A 
BRANCH  12  18
ATOM     18  O   UNL     1       0.579   1.257   0.677  0.00  0.00    -0.487 OA
BRANCH  18  19
ATOM     19  C   UNL     1       1.902   1.797   0.685  0.00  0.00    +0.264 C 
BRANCH  19  26
ATOM     20  C   UNL     1       4.333   3.357   0.763  0.00  0.00    +0.044 C 
ATOM     21  C   UNL     1       2.995   4.039   0.894  0.00  0.00    -0.044 A 
ATOM     22  C   UNL     1       2.931   5.411   1.050  0.00  0.00    +0.004 A 
ATOM     23  C   UNL     1       1.705   6.037   1.170  0.00  0.00    +0.000 A 
ATOM     24  C   UNL     1       0.541   5.290   1.132  0.00  0.00    +0.000 A 
ATOM     25  C   UNL     1       0.605   3.919   0.970  0.00  0.00    +0.007 A 
ATOM     26  C   UNL     1       1.832   3.293   0.856  0.00  0.00    -0.007 A 
ENDBRANCH  19  26
ENDBRANCH  18  19
ENDBRANCH  12  18
ENDBRANCH   1  15
BRANCH   2  27
ATOM     27  C   UNL     1       0.235  -4.965   2.490  0.00  0.00    +0.248 C 
ATOM     28  O   UNL     1       0.733  -5.597   3.404  0.00  0.00    -0.270 OA
ATOM     29  N   UNL     1      -0.867  -4.220   2.707  0.00  0.00    -0.282 N 
ATOM     30  H   UNL     1      -1.307  -3.777   1.964  0.00  0.00    +0.155 HD
BRANCH  29  31
ATOM     31  C   UNL     1      -1.375  -4.085   4.003  0.00  0.00    +0.034 A 
ATOM     32  C   UNL     1      -2.744  -3.956   4.204  0.00  0.00    +0.025 A 
ATOM     33  C   UNL     1      -3.244  -3.828   5.485  0.00  0.00    +0.022 A 
ATOM     34  C   UNL     1      -2.381  -3.816   6.567  0.00  0.00    +0.041 A 
ATOM     35  C   UNL     1      -1.017  -3.939   6.370  0.00  0.00    +0.022 A 
ATOM     36  C   UNL     1      -0.512  -4.072   5.091  0.00  0.00    +0.025 A 
ATOM     37 CL   UNL     1      -3.013  -3.648   8.175  0.00  0.00    -0.084 Cl
ENDBRANCH  29  31
ENDBRANCH   2  27
TORSDOF 6
