REMARK  Name = ZINC39666571
REMARK  10 active torsions:
REMARK  status: ('A' for Active; 'I' for Inactive)
REMARK    1  A    between atoms: C_1  and  C_2
REMARK    2  A    between atoms: C_2  and  C_4
REMARK    3  A    between atoms: C_2  and  O_30
REMARK    4  A    between atoms: C_4  and  N_5
REMARK    5  A    between atoms: C_6  and  C_8
REMARK    6  A    between atoms: C_19  and  C_21
REMARK    7  A    between atoms: C_21  and  C_22
REMARK    8  A    between atoms: C_22  and  C_23
REMARK    9  A    between atoms: C_23  and  C_24
REMARK   10  A    between atoms: O_30  and  C_31
REMARK                            x       y       z     vdW  Elec       q    Type
REMARK                         _______ _______ _______ _____ _____    ______ ____
ROOT
ATOM      1  C   UNL     1       1.648  -4.303  -2.644  0.00  0.00    +0.100 C 
ATOM      2  C   UNL     1       0.279  -4.940  -2.975  0.00  0.00    +0.121 C 
ATOM      3  N   UNL     1       0.274  -5.069  -4.452  0.00  0.00    -0.300 N 
ATOM      4  C   UNL     1       1.657  -5.482  -4.790  0.00  0.00    +0.115 C 
ATOM      5  C   UNL     1       2.550  -4.665  -3.836  0.00  0.00    -0.004 C 
ATOM      6  C   UNL     1       3.732  -5.507  -3.368  0.00  0.00    -0.010 C 
ATOM      7  C   UNL     1       4.646  -5.805  -4.560  0.00  0.00    -0.082 C 
ATOM      8  N   UNL     1       5.119  -4.543  -5.143  0.00  0.00    +0.379 N 
ATOM      9  C   UNL     1       3.983  -3.781  -5.675  0.00  0.00    -0.082 C 
ATOM     10  C   UNL     1       3.042  -3.398  -4.530  0.00  0.00    -0.010 C 
ATOM     11  C   UNL     1      -0.756  -4.859  -5.295  0.00  0.00    +0.216 C 
ATOM     12  O   UNL     1      -0.602  -5.008  -6.489  0.00  0.00    -0.276 OA
ATOM     13  H   UNL     1       5.584  -3.999  -4.432  0.00  0.00    -0.086 HD
ATOM     14  H   UNL     1       5.768  -4.742  -5.889  0.00  0.00    -0.086 HD
ENDROOT
BRANCH   1  16
ATOM     15  N   UNL     1       2.346  -2.121  -1.712  0.00  0.00    -0.312 N 
ATOM     16  C   UNL     1       1.515  -2.807  -2.522  0.00  0.00    +0.218 C 
ATOM     17  O   UNL     1       0.660  -2.221  -3.151  0.00  0.00    -0.275 OA
ATOM     18  H   UNL     1       3.030  -2.590  -1.209  0.00  0.00    +0.149 HD
BRANCH  15  19
ATOM     19  C   UNL     1       2.217  -0.667  -1.593  0.00  0.00    +0.148 C 
BRANCH  19  21
ATOM     20  C   UNL     1       3.059   1.360  -0.399  0.00  0.00    +0.053 C 
ATOM     21  C   UNL     1       3.272  -0.139  -0.619  0.00  0.00    +0.187 C 
BRANCH  21  22
ATOM     22  O   UNL     1       4.575  -0.359  -1.164  0.00  0.00    -0.486 OA
BRANCH  22  23
ATOM     23  C   UNL     1       5.608  -0.435  -0.283  0.00  0.00    +0.139 A 
ATOM     24  C   UNL     1       5.391  -0.189   1.065  0.00  0.00    +0.047 A 
ATOM     25  C   UNL     1       6.441  -0.268   1.958  0.00  0.00    +0.004 A 
ATOM     26  C   UNL     1       7.709  -0.591   1.510  0.00  0.00    +0.002 A 
ATOM     27  C   UNL     1       7.929  -0.837   0.168  0.00  0.00    +0.023 A 
ATOM     28  C   UNL     1       6.880  -0.766  -0.730  0.00  0.00    +0.083 A 
ATOM     29 CL   UNL     1       7.155  -1.081  -2.414  0.00  0.00    -0.080 Cl
ENDBRANCH  22  23
ENDBRANCH  21  22
ENDBRANCH  19  21
ENDBRANCH  15  19
ENDBRANCH   1  16
BRANCH  11  30
ATOM     30  C   UNL     1      -2.099  -4.440  -4.756  0.00  0.00    +0.096 C 
BRANCH  30  31
ATOM     31  C   UNL     1      -3.084  -4.270  -5.914  0.00  0.00    +0.014 C 
BRANCH  31  32
ATOM     32  C   UNL     1      -4.447  -3.844  -5.366  0.00  0.00    +0.035 C 
BRANCH  32  33
ATOM     33  C   UNL     1      -5.418  -3.678  -6.507  0.00  0.00    -0.047 A 
ATOM     34  C   UNL     1      -5.540  -2.453  -7.136  0.00  0.00    +0.003 A 
ATOM     35  C   UNL     1      -6.430  -2.300  -8.183  0.00  0.00    +0.000 A 
ATOM     36  C   UNL     1      -7.197  -3.372  -8.601  0.00  0.00    +0.000 A 
ATOM     37  C   UNL     1      -7.074  -4.596  -7.972  0.00  0.00    +0.000 A 
ATOM     38  C   UNL     1      -6.181  -4.751  -6.928  0.00  0.00    +0.003 A 
ENDBRANCH  32  33
ENDBRANCH  31  32
ENDBRANCH  30  31
ENDBRANCH  11  30
TORSDOF 9
