REMARK  Name = ZINC02618412
REMARK  6 active torsions:
REMARK  status: ('A' for Active; 'I' for Inactive)
REMARK    1  A    between atoms: C_4  and  C_7
REMARK    2  A    between atoms: C_7  and  N_8
REMARK    3  A    between atoms: C_12  and  C_14
REMARK    4  A    between atoms: C_14  and  S_15
REMARK    5  A    between atoms: S_15  and  C_16
REMARK    6  A    between atoms: N_26  and  C_27
REMARK                            x       y       z     vdW  Elec       q    Type
REMARK                         _______ _______ _______ _____ _____    ______ ____
ROOT
ATOM      1  C   UNL     1      -1.119  -2.036   0.002  0.00  0.00    +0.177 A 
ATOM      2  N   UNL     1      -1.137  -0.726   0.009  0.00  0.00    -0.223 NA
ATOM      3  C   UNL     1       0.002  -0.004   0.002  0.00  0.00    +0.079 A 
ATOM      4  C   UNL     1      -0.017   1.394   0.010  0.00  0.00    +0.028 A 
ATOM      5  C   UNL     1       1.161   2.086   0.002  0.00  0.00    +0.002 A 
ATOM      6  C   UNL     1       2.381   1.422  -0.012  0.00  0.00    +0.001 A 
ATOM      7  C   UNL     1       2.432   0.055  -0.020  0.00  0.00    +0.015 A 
ATOM      8  C   UNL     1       1.245  -0.677  -0.013  0.00  0.00    +0.065 A 
ATOM      9  C   UNL     1       1.240  -2.146  -0.021  0.00  0.00    +0.267 A 
ATOM     10  O   UNL     1       2.278  -2.781  -0.035  0.00  0.00    -0.267 OA
ATOM     11  N   UNL     1       0.037  -2.766  -0.013  0.00  0.00    -0.254 N 
ENDROOT
BRANCH  11  12
ATOM     12  C   UNL     1      -0.024  -4.166  -0.020  0.00  0.00    +0.070 A 
ATOM     13  C   UNL     1      -0.037  -4.868   1.178  0.00  0.00    +0.028 A 
ATOM     14  C   UNL     1      -0.101  -6.247   1.168  0.00  0.00    +0.002 A 
ATOM     15  C   UNL     1      -0.143  -6.931  -0.034  0.00  0.00    +0.002 A 
ATOM     16  C   UNL     1      -0.125  -6.236  -1.229  0.00  0.00    +0.022 A 
ATOM     17  C   UNL     1      -0.066  -4.855  -1.226  0.00  0.00    +0.065 A 
ATOM     18 CL   UNL     1      -0.043  -3.983  -2.727  0.00  0.00    -0.081 Cl
ENDBRANCH  11  12
BRANCH   1  19
ATOM     19  S   UNL     1      -2.657  -2.897   0.013  0.00  0.00    -0.078 S 
BRANCH  19  20
ATOM     20  C   UNL     1      -3.801  -1.495   0.032  0.00  0.00    +0.173 C 
BRANCH  20  25
ATOM     21  N   UNL     1      -8.546  -0.720   0.083  0.00  0.00    -0.295 N 
ATOM     22  C   UNL     1      -7.517  -1.590   0.068  0.00  0.00    +0.306 C 
ATOM     23  O   UNL     1      -7.733  -2.786   0.064  0.00  0.00    -0.252 OA
ATOM     24  N   UNL     1      -6.249  -1.134   0.058  0.00  0.00    -0.239 N 
ATOM     25  C   UNL     1      -5.220  -2.005   0.043  0.00  0.00    +0.231 C 
ATOM     26  O   UNL     1      -5.435  -3.198   0.039  0.00  0.00    -0.274 OA
ATOM     27  H   UNL     1      -8.373   0.235   0.086  0.00  0.00    +0.151 HD
ATOM     28  H   UNL     1      -6.076  -0.180   0.061  0.00  0.00    +0.159 HD
BRANCH  21  29
ATOM     29  C   UNL     1      -9.924  -1.215   0.094  0.00  0.00    +0.141 C 
BRANCH  29  33
ATOM     30  C   UNL     1     -12.627   2.093   0.139  0.00  0.00    +0.000 A 
ATOM     31  C   UNL     1     -12.201   1.564  -1.065  0.00  0.00    +0.000 A 
ATOM     32  C   UNL     1     -11.327   0.494  -1.080  0.00  0.00    +0.005 A 
ATOM     33  C   UNL     1     -10.877  -0.048   0.110  0.00  0.00    -0.030 A 
ATOM     34  C   UNL     1     -11.307   0.477   1.314  0.00  0.00    +0.005 A 
ATOM     35  C   UNL     1     -12.178   1.551   1.329  0.00  0.00    +0.000 A 
ENDBRANCH  29  33
ENDBRANCH  21  29
ENDBRANCH  20  25
ENDBRANCH  19  20
ENDBRANCH   1  19
TORSDOF 6
