REMARK  Name = ZINC16063122
REMARK  8 active torsions:
REMARK  status: ('A' for Active; 'I' for Inactive)
REMARK    1  A    between atoms: C_1  and  C_2
REMARK    2  A    between atoms: C_2  and  C_4
REMARK    3  A    between atoms: C_2  and  N_14
REMARK    4  A    between atoms: C_7  and  S_10
REMARK    5  A    between atoms: S_10  and  N_13
REMARK    6  A    between atoms: C_15  and  C_17
REMARK    7  A    between atoms: C_20  and  C_23
REMARK    8  A    between atoms: C_23  and  N_24
REMARK                            x       y       z     vdW  Elec       q    Type
REMARK                         _______ _______ _______ _____ _____    ______ ____
ROOT
ATOM      1  N   UNL     1       2.696  -2.321  -6.097  0.00  0.00    -0.305 N 
ATOM      2  C   UNL     1       3.704  -1.685  -5.468  0.00  0.00    +0.245 C 
ATOM      3  O   UNL     1       4.752  -1.482  -6.050  0.00  0.00    -0.270 OA
ATOM      4  H   UNL     1       1.860  -2.483  -5.633  0.00  0.00    +0.150 HD
ENDROOT
BRANCH   2   5
ATOM      5  C   UNL     1       3.536  -1.234  -4.070  0.00  0.00    +0.037 A 
ATOM      6  C   UNL     1       4.578  -0.575  -3.416  0.00  0.00    +0.013 A 
ATOM      7  C   UNL     1       4.414  -0.157  -2.111  0.00  0.00    +0.006 A 
ATOM      8  C   UNL     1       3.220  -0.390  -1.452  0.00  0.00    -0.026 A 
ATOM      9  C   UNL     1       2.185  -1.047  -2.093  0.00  0.00    +0.006 A 
ATOM     10  C   UNL     1       2.334  -1.466  -3.399  0.00  0.00    +0.013 A 
BRANCH   8  11
ATOM     11  C   UNL     1       3.048   0.070  -0.027  0.00  0.00    +0.181 C 
BRANCH  11  12
ATOM     12  N   UNL     1       2.508   1.431  -0.014  0.00  0.00    -0.240 N 
ATOM     13  C   UNL     1       1.181   1.790   0.000  0.00  0.00    +0.089 A 
ATOM     14  C   UNL     1      -0.013   1.076   0.008  0.00  0.00    +0.029 A 
ATOM     15  C   UNL     1      -1.204   1.745   0.017  0.00  0.00    +0.002 A 
ATOM     16  C   UNL     1      -1.235   3.134   0.030  0.00  0.00    +0.002 A 
ATOM     17  C   UNL     1      -0.078   3.857   0.023  0.00  0.00    +0.032 A 
ATOM     18  C   UNL     1       1.157   3.195   0.008  0.00  0.00    +0.113 A 
ATOM     19  N   UNL     1       2.434   3.626  -0.002  0.00  0.00    -0.129 NA
ATOM     20  N   UNL     1       3.243   2.626  -0.015  0.00  0.00    -0.064 NA
ENDBRANCH  11  12
ENDBRANCH   8  11
ENDBRANCH   2   5
BRANCH   1  22
ATOM     21  C   UNL     1       3.543  -4.139  -7.497  0.00  0.00    +0.033 C 
ATOM     22  C   UNL     1       2.864  -2.768  -7.482  0.00  0.00    +0.100 C 
BRANCH  22  23
ATOM     23  C   UNL     1       1.513  -2.869  -8.144  0.00  0.00    -0.027 A 
ATOM     24  C   UNL     1       0.436  -3.378  -7.442  0.00  0.00    +0.007 A 
ATOM     25  C   UNL     1      -0.803  -3.467  -8.047  0.00  0.00    +0.029 A 
ATOM     26  C   UNL     1      -0.964  -3.056  -9.358  0.00  0.00    +0.105 A 
ATOM     27  C   UNL     1       0.114  -2.551 -10.061  0.00  0.00    +0.029 A 
ATOM     28  C   UNL     1       1.353  -2.458  -9.454  0.00  0.00    +0.007 A 
BRANCH  26  29
ATOM     29  S   UNL     1      -2.542  -3.175 -10.131  0.00  0.00    +0.056 S 
ATOM     30  O   UNL     1      -3.507  -3.171  -9.088  0.00  0.00    -0.153 OA
ATOM     31  O   UNL     1      -2.553  -2.219 -11.183  0.00  0.00    -0.153 OA
BRANCH  29  32
ATOM     32  N   UNL     1      -2.625  -4.666 -10.847  0.00  0.00    -0.204 NA
ATOM     33  H   UNL     1      -3.482  -5.112 -10.940  0.00  0.00    +0.144 HD
ATOM     34  H   UNL     1      -1.818  -5.094 -11.172  0.00  0.00    +0.144 HD
ENDBRANCH  29  32
ENDBRANCH  26  29
ENDBRANCH  22  23
ENDBRANCH   1  22
TORSDOF 7
