REMARK  Name = ZINC20685164
REMARK  8 active torsions:
REMARK  status: ('A' for Active; 'I' for Inactive)
REMARK    1  A    between atoms: C_1  and  C_2
REMARK    2  A    between atoms: C_2  and  N_3
REMARK    3  A    between atoms: C_14  and  C_16
REMARK    4  A    between atoms: C_29  and  O_32
REMARK    5  A    between atoms: O_32  and  C_33
REMARK    6  A    between atoms: C_33  and  C_34
REMARK    7  A    between atoms: C_34  and  C_35
REMARK    8  A    between atoms: C_34  and  C_36
REMARK                            x       y       z     vdW  Elec       q    Type
REMARK                         _______ _______ _______ _____ _____    ______ ____
ROOT
ATOM      1  C   UNL     1      -5.296  -1.363   0.022  0.00  0.00    +0.105 C 
ATOM      2  C   UNL     1      -5.913  -1.631  -1.335  0.00  0.00    +0.029 C 
ATOM      3  C   UNL     1      -4.998  -1.578  -2.564  0.00  0.00    +0.033 C 
ATOM      4  C   UNL     1      -5.977  -1.134  -3.654  0.00  0.00    -0.030 C 
ATOM      5  C   UNL     1      -6.979  -0.450  -3.111  0.00  0.00    -0.023 C 
ATOM      6  C   UNL     1      -6.743  -0.347  -1.650  0.00  0.00    +0.049 C 
ATOM      7  C   UNL     1      -7.844  -0.299  -0.664  0.00  0.00    -0.016 A 
ATOM      8  C   UNL     1      -9.076   0.241  -0.978  0.00  0.00    +0.006 A 
ATOM      9  C   UNL     1     -10.076   0.309  -0.028  0.00  0.00    +0.004 A 
ATOM     10  C   UNL     1      -9.842  -0.170   1.249  0.00  0.00    +0.047 A 
ATOM     11  C   UNL     1      -8.617  -0.720   1.570  0.00  0.00    +0.142 A 
ATOM     12  C   UNL     1      -7.596  -0.800   0.615  0.00  0.00    +0.074 A 
ATOM     13  N   UNL     1      -6.390  -1.383   1.006  0.00  0.00    -0.334 N 
ATOM     14  H   UNL     1      -6.234  -1.843   1.993  0.00  0.00    +0.147 HD
ENDROOT
BRANCH   1  26
ATOM     15  N   UNL     1      -3.010   3.801   0.110  0.00  0.00    -0.340 N 
ATOM     16  C   UNL     1      -4.060   4.553   0.607  0.00  0.00    +0.050 A 
ATOM     17  C   UNL     1      -4.189   5.910   0.889  0.00  0.00    +0.026 A 
ATOM     18  C   UNL     1      -5.377   6.401   1.387  0.00  0.00    +0.002 A 
ATOM     19  C   UNL     1      -6.451   5.554   1.613  0.00  0.00    +0.001 A 
ATOM     20  C   UNL     1      -6.343   4.207   1.339  0.00  0.00    +0.010 A 
ATOM     21  C   UNL     1      -5.146   3.697   0.840  0.00  0.00    +0.008 A 
ATOM     22  C   UNL     1      -4.703   2.345   0.455  0.00  0.00    +0.008 A 
ATOM     23  C   UNL     1      -3.375   2.470   0.020  0.00  0.00    +0.050 A 
ATOM     24  C   UNL     1      -2.690   1.338  -0.410  0.00  0.00    +0.027 A 
ATOM     25  C   UNL     1      -3.315   0.109  -0.406  0.00  0.00    +0.007 A 
ATOM     26  C   UNL     1      -4.627  -0.013   0.025  0.00  0.00    -0.026 A 
ATOM     27  C   UNL     1      -5.322   1.097   0.455  0.00  0.00    +0.016 A 
BRANCH  15  29
ATOM     28  C   UNL     1      -0.771   4.286   0.965  0.00  0.00    +0.027 C 
ATOM     29  C   UNL     1      -1.696   4.336  -0.253  0.00  0.00    +0.119 C 
ENDBRANCH  15  29
ENDBRANCH   1  26
BRANCH  11  30
ATOM     30  O   UNL     1      -8.400  -1.189   2.828  0.00  0.00    -0.490 OA
BRANCH  30  31
ATOM     31  C   UNL     1      -9.480  -1.079   3.757  0.00  0.00    +0.232 C 
BRANCH  31  32
ATOM     32  C   UNL     1      -9.051  -1.656   5.108  0.00  0.00    +0.020 C 
ATOM     33  C   UNL     1     -10.161  -1.426   6.136  0.00  0.00    +0.010 C 
ATOM     34  C   UNL     1      -8.792  -3.157   4.963  0.00  0.00    +0.010 C 
ENDBRANCH  31  32
ENDBRANCH  30  31
ENDBRANCH  11  30
TORSDOF 5
