REMARK  Name = ZINC36000214
REMARK  11 active torsions:
REMARK  status: ('A' for Active; 'I' for Inactive)
REMARK    1  A    between atoms: C_1  and  C_2
REMARK    2  A    between atoms: C_2  and  O_3
REMARK    3  A    between atoms: O_3  and  C_4
REMARK    4  A    between atoms: C_4  and  C_6
REMARK    5  A    between atoms: C_7  and  C_22
REMARK    6  A    between atoms: N_8  and  C_21
REMARK    7  A    between atoms: C_12  and  C_14
REMARK    8  A    between atoms: C_22  and  N_23
REMARK    9  A    between atoms: N_26  and  S_31
REMARK   10  A    between atoms: C_27  and  C_30
REMARK   11  A    between atoms: S_31  and  C_34
REMARK                            x       y       z     vdW  Elec       q    Type
REMARK                         _______ _______ _______ _____ _____    ______ ____
ROOT
ATOM      1  C   UNL     1      -2.677  -2.355   0.185  0.00  0.00    +0.080 C 
ATOM      2  C   UNL     1      -2.914  -3.668  -0.022  0.00  0.00    +0.041 C 
ATOM      3  N   UNL     1      -4.190  -4.151  -0.096  0.00  0.00    -0.260 N 
ATOM      4  C   UNL     1      -5.282  -3.386   0.028  0.00  0.00    +0.307 C 
ATOM      5  O   UNL     1      -6.377  -3.907  -0.052  0.00  0.00    -0.252 OA
ATOM      6  N   UNL     1      -5.206  -2.057   0.238  0.00  0.00    -0.288 N 
ATOM      7  C   UNL     1      -3.873  -1.438   0.340  0.00  0.00    +0.144 C 
ATOM      8  C   UNL     1      -4.373  -5.586  -0.323  0.00  0.00    +0.139 C 
ATOM      9  H   UNL     1      -6.010  -1.521   0.325  0.00  0.00    +0.151 HD
ENDROOT
BRANCH   7  10
ATOM     10  C   UNL     1      -3.780  -0.371  -0.720  0.00  0.00    -0.020 A 
ATOM     11  C   UNL     1      -4.184  -0.645  -2.014  0.00  0.00    +0.006 A 
ATOM     12  C   UNL     1      -4.099   0.333  -2.987  0.00  0.00    +0.003 A 
ATOM     13  C   UNL     1      -3.611   1.586  -2.668  0.00  0.00    +0.038 A 
ATOM     14  C   UNL     1      -3.207   1.862  -1.373  0.00  0.00    +0.124 A 
ATOM     15  C   UNL     1      -3.298   0.883  -0.398  0.00  0.00    +0.044 A 
ATOM     16  F   UNL     1      -2.729   3.086  -1.060  0.00  0.00    -0.205 F 
ENDBRANCH   7  10
BRANCH   1  17
ATOM     17  C   UNL     1      -1.357  -1.853   0.262  0.00  0.00    +0.339 C 
ATOM     18  O   UNL     1      -0.882  -1.551   1.341  0.00  0.00    -0.245 OA
BRANCH  17  19
ATOM     19  O   UNL     1      -0.623  -1.711  -0.862  0.00  0.00    -0.462 OA
BRANCH  19  21
ATOM     20  C   UNL     1       1.374  -1.108  -2.082  0.00  0.00    +0.048 C 
ATOM     21  C   UNL     1       0.703  -1.199  -0.710  0.00  0.00    +0.229 C 
ENDBRANCH  19  21
ENDBRANCH  17  19
ENDBRANCH   1  17
BRANCH   2  22
ATOM     22  C   UNL     1      -1.753  -4.616  -0.176  0.00  0.00    +0.136 C 
BRANCH  22  23
ATOM     23  N   UNL     1      -1.754  -5.576   0.936  0.00  0.00    -0.294 NA
ATOM     24  C   UNL     1      -1.496  -4.900   2.215  0.00  0.00    +0.102 C 
ATOM     25  C   UNL     1      -1.684  -5.898   3.362  0.00  0.00    +0.125 C 
ATOM     26  N   UNL     1      -0.842  -7.075   3.100  0.00  0.00    -0.171 NA
ATOM     27  C   UNL     1      -0.946  -7.726   1.785  0.00  0.00    +0.091 C 
ATOM     28  C   UNL     1      -0.787  -6.656   0.700  0.00  0.00    +0.105 C 
ATOM     29  C   UNL     1       0.158  -8.776   1.643  0.00  0.00    +0.027 C 
BRANCH  26  30
ATOM     30  S   UNL     1       0.194  -7.654   4.256  0.00  0.00    +0.061 S 
ATOM     31  O   UNL     1       1.293  -8.230   3.564  0.00  0.00    -0.153 OA
ATOM     32  O   UNL     1       0.356  -6.616   5.213  0.00  0.00    -0.153 OA
BRANCH  30  33
ATOM     33  C   UNL     1      -0.631  -8.975   5.080  0.00  0.00    +0.105 A 
ATOM     34  C   UNL     1      -1.409  -8.716   6.193  0.00  0.00    +0.028 A 
ATOM     35  C   UNL     1      -2.056  -9.752   6.840  0.00  0.00    +0.002 A 
ATOM     36  C   UNL     1      -1.925 -11.047   6.374  0.00  0.00    +0.000 A 
ATOM     37  C   UNL     1      -1.147 -11.306   5.261  0.00  0.00    +0.002 A 
ATOM     38  C   UNL     1      -0.504 -10.269   4.612  0.00  0.00    +0.028 A 
ENDBRANCH  30  33
ENDBRANCH  26  30
ENDBRANCH  22  23
ENDBRANCH   2  22
TORSDOF 8
