REMARK  Name = ZINC01433541
REMARK  8 active torsions:
REMARK  status: ('A' for Active; 'I' for Inactive)
REMARK    1  A    between atoms: C_1  and  C_2
REMARK    2  A    between atoms: C_6  and  N_8
REMARK    3  A    between atoms: N_8  and  C_9
REMARK    4  A    between atoms: C_9  and  C_10
REMARK    5  A    between atoms: N_12  and  N_13
REMARK    6  A    between atoms: C_14  and  C_15
REMARK    7  A    between atoms: C_18  and  O_23
REMARK    8  A    between atoms: C_20  and  O_21
REMARK                            x       y       z     vdW  Elec       q    Type
REMARK                         _______ _______ _______ _____ _____    ______ ____
ROOT
ATOM      1  C   UNL     1       0.084  -4.774   3.796  0.00  0.00    +0.249 C 
ATOM      2  O   UNL     1       0.079  -3.993   4.724  0.00  0.00    -0.272 OA
ATOM      3  N   UNL     1       0.103  -6.101   4.033  0.00  0.00    -0.206 N 
ATOM      4  H   UNL     1       0.108  -6.726   3.291  0.00  0.00    +0.177 HD
ENDROOT
BRANCH   3   5
ATOM      5  N   UNL     1       0.116  -6.578   5.350  0.00  0.00    -0.188 NA
ATOM      6  C   UNL     1       0.134  -7.856   5.578  0.00  0.00    +0.142 C 
BRANCH   6   7
ATOM      7  C   UNL     1       0.147  -8.357   6.963  0.00  0.00    +0.038 A 
ATOM      8  C   UNL     1       0.173  -9.732   7.211  0.00  0.00    +0.032 A 
ATOM      9  C   UNL     1       0.186 -10.197   8.508  0.00  0.00    +0.061 A 
ATOM     10  C   UNL     1       0.173  -9.302   9.573  0.00  0.00    +0.148 A 
ATOM     11  C   UNL     1       0.148  -7.935   9.336  0.00  0.00    +0.102 A 
ATOM     12  C   UNL     1       0.141  -7.456   8.037  0.00  0.00    +0.143 A 
ATOM     13 BR   UNL     1       0.130  -6.725  10.790  0.00  0.00    -0.043 Br
ATOM     14 BR   UNL     1       0.220 -12.058   8.842  0.00  0.00    -0.046 Br
BRANCH  12  15
ATOM     15  O   UNL     1       0.121  -6.118   7.804  0.00  0.00    -0.505 OA
ATOM     16  H   UNL     1      -0.767  -5.743   7.742  0.00  0.00    +0.292 HD
ENDBRANCH  12  15
BRANCH  10  17
ATOM     17  O   UNL     1       0.186  -9.768  10.849  0.00  0.00    -0.504 OA
ATOM     18  H   UNL     1       1.073  -9.887  11.215  0.00  0.00    +0.292 HD
ENDBRANCH  10  17
ENDBRANCH   6   7
ENDBRANCH   3   5
BRANCH   1  19
ATOM     19  C   UNL     1       0.071  -4.261   2.379  0.00  0.00    +0.199 C 
BRANCH  19  20
ATOM     20  N   UNL     1       0.051  -2.796   2.390  0.00  0.00    -0.335 N 
ATOM     21  H   UNL     1       0.049  -2.318   3.234  0.00  0.00    +0.147 HD
BRANCH  20  27
ATOM     22  C   UNL     1      -0.018   1.503   0.010  0.00  0.00    +0.044 C 
ATOM     23  C   UNL     1       0.002  -0.004   0.002  0.00  0.00    -0.049 A 
ATOM     24  C   UNL     1       0.006  -0.688  -1.200  0.00  0.00    +0.003 A 
ATOM     25  C   UNL     1       0.024  -2.071  -1.212  0.00  0.00    +0.002 A 
ATOM     26  C   UNL     1       0.039  -2.773  -0.023  0.00  0.00    +0.023 A 
ATOM     27  C   UNL     1       0.036  -2.089   1.186  0.00  0.00    +0.028 A 
ATOM     28  C   UNL     1       0.023  -0.700   1.194  0.00  0.00    +0.026 A 
ENDBRANCH  20  27
ENDBRANCH  19  20
ENDBRANCH   1  19
TORSDOF 7
