REMARK  Name = ZINC22336353
REMARK  18 active torsions:
REMARK  status: ('A' for Active; 'I' for Inactive)
REMARK    1  A    between atoms: C_1  and  C_2
REMARK    2  A    between atoms: C_2  and  C_3
REMARK    3  A    between atoms: C_2  and  C_4
REMARK    4  A    between atoms: C_2  and  C_5
REMARK    5  A    between atoms: C_8  and  C_11
REMARK    6  A    between atoms: C_11  and  O_12
REMARK    7  A    between atoms: O_12  and  C_13
REMARK    8  A    between atoms: C_16  and  C_20
REMARK    9  A    between atoms: C_20  and  N_21
REMARK   10  A    between atoms: C_28  and  C_30
REMARK   11  A    between atoms: C_30  and  C_31
REMARK   12  A    between atoms: C_31  and  C_32
REMARK   13  A    between atoms: C_32  and  C_33
REMARK   14  A    between atoms: C_33  and  C_34
REMARK   15  A    between atoms: C_34  and  C_35
REMARK   16  A    between atoms: C_35  and  C_36
REMARK   17  A    between atoms: C_36  and  O_38
REMARK   18  A    between atoms: O_38  and  C_39
REMARK                            x       y       z     vdW  Elec       q    Type
REMARK                         _______ _______ _______ _____ _____    ______ ____
ROOT
ATOM      1  C   UNL     1      -2.271  -1.415   4.948  0.00  0.00    -0.003 C 
ENDROOT
BRANCH   1   2
ATOM      2  N   UNL     1      -1.340  -0.627   4.130  0.00  0.00    +0.385 N 
ATOM      3  C   UNL     1      -0.099  -1.364   3.893  0.00  0.00    -0.077 C 
ATOM      4  C   UNL     1       0.547  -1.067   2.600  0.00  0.00    +0.000 C 
ATOM      5  C   UNL     1       0.949   0.428   2.546  0.00  0.00    +0.106 C 
ATOM      6  N   UNL     1      -0.242   1.246   2.466  0.00  0.00    -0.303 N 
ATOM      7  C   UNL     1      -0.955   1.745   3.660  0.00  0.00    +0.089 C 
ATOM      8  C   UNL     1      -1.064   0.653   4.746  0.00  0.00    -0.059 C 
ATOM      9  C   UNL     1      -0.718   1.572   1.248  0.00  0.00    +0.215 C 
ATOM     10  O   UNL     1      -1.714   2.256   1.150  0.00  0.00    -0.276 OA
ATOM     11  H   UNL     1      -1.815  -0.429   3.158  0.00  0.00    -0.081 HD
BRANCH   9  12
ATOM     12  C   UNL     1      -0.013   1.086   0.008  0.00  0.00    +0.096 C 
BRANCH  12  13
ATOM     13  C   UNL     1      -0.753   1.593  -1.232  0.00  0.00    +0.009 C 
BRANCH  13  14
ATOM     14  C   UNL     1      -0.037   1.099  -2.490  0.00  0.00    +0.000 C 
BRANCH  14  15
ATOM     15  C   UNL     1      -0.777   1.606  -3.730  0.00  0.00    +0.001 C 
BRANCH  15  16
ATOM     16  C   UNL     1      -0.060   1.113  -4.989  0.00  0.00    +0.011 C 
BRANCH  16  17
ATOM     17  C   UNL     1      -0.800   1.619  -6.228  0.00  0.00    +0.120 C 
BRANCH  17  18
ATOM     18  C   UNL     1      -0.095   1.133  -7.468  0.00  0.00    +0.307 C 
ATOM     19  O   UNL     1       0.898   0.452  -7.370  0.00  0.00    -0.251 OA
BRANCH  18  20
ATOM     20  O   UNL     1      -0.570   1.458  -8.681  0.00  0.00    -0.468 OA
ATOM     21  C   UNL     1       0.161   0.955  -9.831  0.00  0.00    +0.280 C 
ENDBRANCH  18  20
ENDBRANCH  17  18
ENDBRANCH  16  17
ENDBRANCH  15  16
ENDBRANCH  14  15
ENDBRANCH  13  14
ENDBRANCH  12  13
ENDBRANCH   9  12
ENDBRANCH   1   2
BRANCH   1  25
ATOM     22  C   UNL     1      -5.473   1.065   6.236  0.00  0.00    +0.202 A 
ATOM     23  C   UNL     1      -4.336   0.929   6.954  0.00  0.00    +0.244 A 
ATOM     24  O   UNL     1      -3.344   0.135   6.526  0.00  0.00    -0.466 OA
ATOM     25  C   UNL     1      -3.424  -0.545   5.377  0.00  0.00    +0.092 A 
ATOM     26  C   UNL     1      -4.522  -0.467   4.598  0.00  0.00    +0.094 A 
ATOM     27  C   UNL     1      -5.601   0.355   5.011  0.00  0.00    +0.226 A 
ATOM     28  O   UNL     1      -6.612   0.451   4.332  0.00  0.00    -0.284 OA
BRANCH  22  29
ATOM     29  O   UNL     1      -6.478   1.868   6.679  0.00  0.00    -0.481 OA
BRANCH  29  30
ATOM     30  C   UNL     1      -6.269   2.546   7.920  0.00  0.00    +0.264 C 
BRANCH  30  34
ATOM     31  C   UNL     1      -9.700   4.915   8.847  0.00  0.00    -0.042 A 
ATOM     32  C   UNL     1      -9.626   3.605   9.283  0.00  0.00    +0.004 A 
ATOM     33  C   UNL     1      -8.515   2.839   8.983  0.00  0.00    +0.007 A 
ATOM     34  C   UNL     1      -7.479   3.381   8.247  0.00  0.00    -0.010 A 
ATOM     35  C   UNL     1      -7.551   4.692   7.814  0.00  0.00    +0.007 A 
ATOM     36  C   UNL     1      -8.664   5.458   8.110  0.00  0.00    +0.004 A 
BRANCH  31  38
ATOM     37  C   UNL     1     -11.062   5.858  10.692  0.00  0.00    +0.015 C 
ATOM     38  C   UNL     1     -10.911   5.751   9.173  0.00  0.00    -0.013 C 
ATOM     39  C   UNL     1     -10.741   7.150   8.578  0.00  0.00    +0.015 C 
ATOM     40  C   UNL     1     -12.159   5.093   8.582  0.00  0.00    +0.015 C 
ENDBRANCH  31  38
ENDBRANCH  30  34
ENDBRANCH  29  30
ENDBRANCH  22  29
ENDBRANCH   1  25
TORSDOF 14
