REMARK  Name = ZINC17909322
REMARK  11 active torsions:
REMARK  status: ('A' for Active; 'I' for Inactive)
REMARK    1  A    between atoms: C_1  and  N_59
REMARK    2  A    between atoms: C_2  and  N_59
REMARK    3  A    between atoms: C_3  and  C_5
REMARK    4  A    between atoms: C_3  and  C_27
REMARK    5  A    between atoms: C_3  and  N_59
REMARK    6  A    between atoms: C_5  and  N_6
REMARK    7  A    between atoms: C_7  and  C_9
REMARK    8  A    between atoms: C_12  and  N_15
REMARK    9  A    between atoms: N_15  and  S_16
REMARK   10  A    between atoms: S_16  and  C_19
REMARK   11  A    between atoms: C_20  and  C_21
REMARK                            x       y       z     vdW  Elec       q    Type
REMARK                         _______ _______ _______ _____ _____    ______ ____
ROOT
ATOM      1  C   UNL     1       5.130   2.724  -1.847  0.00  0.00    +0.037 A 
ATOM      2  C   UNL     1       3.939   2.879  -2.562  0.00  0.00    +0.015 A 
ATOM      3  C   UNL     1       3.276   1.771  -3.039  0.00  0.00    +0.025 A 
ATOM      4  C   UNL     1       3.791   0.498  -2.811  0.00  0.00    +0.048 A 
ATOM      5  C   UNL     1       4.974   0.341  -2.095  0.00  0.00    +0.025 A 
ATOM      6  C   UNL     1       5.645   1.444  -1.620  0.00  0.00    +0.015 A 
ENDROOT
BRANCH   1   8
ATOM      7  N   UNL     1       6.992   3.759  -0.645  0.00  0.00    -0.313 N 
ATOM      8  C   UNL     1       5.843   3.909  -1.334  0.00  0.00    +0.244 C 
ATOM      9  O   UNL     1       5.395   5.022  -1.533  0.00  0.00    -0.270 OA
ATOM     10  H   UNL     1       7.350   2.871  -0.487  0.00  0.00    +0.149 HD
BRANCH   7  11
ATOM     11  C   UNL     1       7.700   4.936  -0.136  0.00  0.00    +0.094 C 
BRANCH  11  12
ATOM     12  C   UNL     1       8.851   4.487   0.767  0.00  0.00    -0.020 C 
BRANCH  12  13
ATOM     13  C   UNL     1       9.658   5.689   1.186  0.00  0.00    -0.041 A 
ATOM     14  C   UNL     1       9.523   6.201   2.463  0.00  0.00    +0.003 A 
ATOM     15  C   UNL     1      10.267   7.301   2.849  0.00  0.00    +0.000 A 
ATOM     16  C   UNL     1      11.139   7.894   1.955  0.00  0.00    +0.001 A 
ATOM     17  C   UNL     1      11.271   7.386   0.677  0.00  0.00    +0.020 A 
ATOM     18  C   UNL     1      10.530   6.283   0.291  0.00  0.00    +0.043 A 
ATOM     19 CL   UNL     1      10.695   5.644  -1.314  0.00  0.00    -0.083 Cl
ENDBRANCH  12  13
BRANCH  12  22
ATOM     20  C   UNL     1       7.109   4.515   2.448  0.00  0.00    -0.096 C 
ATOM     21  C   UNL     1       8.024   2.406   1.688  0.00  0.00    -0.096 C 
ATOM     22  N   UNL     1       8.328   3.823   1.979  0.00  0.00    +0.382 N 
ATOM     23  H   UNL     1       9.041   3.867   2.717  0.00  0.00    -0.082 HD
ENDBRANCH  12  22
ENDBRANCH  11  12
ENDBRANCH   7  11
ENDBRANCH   1   8
BRANCH   4  24
ATOM     24  N   UNL     1       3.119  -0.619  -3.295  0.00  0.00    -0.217 N 
ATOM     25  H   UNL     1       2.155  -0.683  -3.204  0.00  0.00    +0.174 HD
BRANCH  24  26
ATOM     26  S   UNL     1       3.963  -1.838  -4.033  0.00  0.00    +0.066 S 
ATOM     27  O   UNL     1       5.009  -2.204  -3.143  0.00  0.00    -0.151 OA
ATOM     28  O   UNL     1       3.001  -2.772  -4.503  0.00  0.00    -0.151 OA
BRANCH  26  29
ATOM     29  C   UNL     1       4.734  -1.148  -5.460  0.00  0.00    +0.157 C 
ATOM     30  C   UNL     1       6.056  -1.117  -5.549  0.00  0.00    +0.028 C 
BRANCH  30  31
ATOM     31  C   UNL     1       6.703  -0.539  -6.745  0.00  0.00    -0.024 A 
ATOM     32  C   UNL     1       5.924  -0.029  -7.785  0.00  0.00    +0.008 A 
ATOM     33  C   UNL     1       6.534   0.514  -8.897  0.00  0.00    +0.001 A 
ATOM     34  C   UNL     1       7.914   0.545  -8.988  0.00  0.00    +0.000 A 
ATOM     35  C   UNL     1       8.692   0.037  -7.962  0.00  0.00    +0.001 A 
ATOM     36  C   UNL     1       8.094  -0.505  -6.843  0.00  0.00    +0.008 A 
ENDBRANCH  30  31
ENDBRANCH  26  29
ENDBRANCH  24  26
ENDBRANCH   4  24
TORSDOF 9
