REMARK  Name = ZINC02806079
REMARK  14 active torsions:
REMARK  status: ('A' for Active; 'I' for Inactive)
REMARK    1  A    between atoms: C_1  and  C_2
REMARK    2  A    between atoms: C_2  and  S_3
REMARK    3  A    between atoms: S_3  and  C_4
REMARK    4  A    between atoms: C_4  and  C_5
REMARK    5  A    between atoms: C_5  and  O_6
REMARK    6  A    between atoms: O_6  and  C_7
REMARK    7  A    between atoms: C_7  and  C_9
REMARK    8  A    between atoms: C_10  and  C_40
REMARK    9  A    between atoms: C_14  and  C_16
REMARK   10  A    between atoms: C_22  and  C_27
REMARK   11  A    between atoms: C_30  and  C_36
REMARK   12  A    between atoms: C_32  and  C_35
REMARK   13  A    between atoms: C_36  and  O_38
REMARK   14  A    between atoms: O_38  and  C_39
REMARK                            x       y       z     vdW  Elec       q    Type
REMARK                         _______ _______ _______ _____ _____    ______ ____
ROOT
ATOM      1  C   UNL     1       5.607   1.819  -1.251  0.00  0.00    +0.065 C 
ATOM      2  C   UNL     1       6.575   2.752  -1.258  0.00  0.00    +0.016 C 
ATOM      3  N   UNL     1       7.045   3.271  -0.084  0.00  0.00    -0.321 N 
ATOM      4  C   UNL     1       6.855   2.607   1.099  0.00  0.00    +0.016 C 
ATOM      5  C   UNL     1       5.899   1.661   1.207  0.00  0.00    +0.025 C 
ATOM      6  C   UNL     1       5.011   1.325   0.035  0.00  0.00    +0.099 C 
ATOM      7  C   UNL     1       5.705   0.960   2.410  0.00  0.00    +0.176 C 
ATOM      8  O   UNL     1       4.831   0.118   2.476  0.00  0.00    -0.291 OA
ATOM      9  C   UNL     1       6.559   1.233   3.618  0.00  0.00    +0.171 C 
ATOM     10  C   UNL     1       7.934   1.728   3.155  0.00  0.00    +0.013 C 
ATOM     11  C   UNL     1       7.734   2.962   2.272  0.00  0.00    +0.055 C 
ATOM     12  C   UNL     1       8.632   0.629   2.352  0.00  0.00    +0.009 C 
ATOM     13  C   UNL     1       7.146   3.229  -2.568  0.00  0.00    +0.061 C 
ATOM     14  H   UNL     1       7.581   4.232  -0.083  0.00  0.00    +0.152 HD
ENDROOT
BRANCH   6  15
ATOM     15  C   UNL     1       3.663   1.970   0.234  0.00  0.00    +0.047 A 
ATOM     16  C   UNL     1       3.559   3.308   0.318  0.00  0.00    +0.204 A 
ATOM     17  O   UNL     1       2.391   3.935   0.494  0.00  0.00    -0.462 OA
ATOM     18  C   UNL     1       1.223   3.270   0.602  0.00  0.00    +0.138 A 
ATOM     19  C   UNL     1       0.025   3.952   0.785  0.00  0.00    +0.047 A 
ATOM     20  C   UNL     1      -1.156   3.249   0.892  0.00  0.00    +0.007 A 
ATOM     21  C   UNL     1      -1.166   1.864   0.816  0.00  0.00    -0.050 A 
ATOM     22  C   UNL     1       0.011   1.169   0.640  0.00  0.00    +0.018 A 
ATOM     23  C   UNL     1       1.212   1.868   0.529  0.00  0.00    +0.064 A 
ATOM     24  C   UNL     1       2.496   1.168   0.335  0.00  0.00    +0.197 A 
ATOM     25  O   UNL     1       2.552  -0.048   0.264  0.00  0.00    -0.287 OA
ATOM     26  C   UNL     1      -2.469   1.116   0.931  0.00  0.00    +0.044 C 
ENDBRANCH   6  15
BRANCH   1  27
ATOM     27  C   UNL     1       5.143   1.292  -2.478  0.00  0.00    +0.338 C 
ATOM     28  O   UNL     1       5.464   0.169  -2.819  0.00  0.00    -0.245 OA
BRANCH  27  29
ATOM     29  O   UNL     1       4.343   2.035  -3.272  0.00  0.00    -0.460 OA
BRANCH  29  30
ATOM     30  C   UNL     1       3.911   1.441  -4.497  0.00  0.00    +0.243 C 
BRANCH  30  31
ATOM     31  C   UNL     1       3.020   2.426  -5.256  0.00  0.00    +0.110 C 
BRANCH  31  32
ATOM     32  S   UNL     1       2.472   1.671  -6.812  0.00  0.00    -0.158 S 
BRANCH  32  34
ATOM     33  C   UNL     1       0.905   2.436  -8.919  0.00  0.00    +0.015 C 
ATOM     34  C   UNL     1       1.440   2.949  -7.580  0.00  0.00    +0.066 C 
ENDBRANCH  32  34
ENDBRANCH  31  32
ENDBRANCH  30  31
ENDBRANCH  29  30
ENDBRANCH  27  29
ENDBRANCH   1  27
BRANCH   9  35
ATOM     35  C   UNL     1       6.722  -0.034   4.417  0.00  0.00    +0.318 C 
ATOM     36  O   UNL     1       7.824  -0.496   4.600  0.00  0.00    -0.250 OA
BRANCH  35  37
ATOM     37  O   UNL     1       5.644  -0.650   4.927  0.00  0.00    -0.467 OA
ATOM     38  C   UNL     1       5.876  -1.865   5.686  0.00  0.00    +0.280 C 
ENDBRANCH  35  37
ENDBRANCH   9  35
TORSDOF 9
