REMARK  Name = ZINC64069774
REMARK  7 active torsions:
REMARK  status: ('A' for Active; 'I' for Inactive)
REMARK    1  A    between atoms: C_1  and  C_2
REMARK    2  A    between atoms: C_2  and  N_3
REMARK    3  A    between atoms: N_14  and  N_15
REMARK    4  A    between atoms: C_16  and  C_18
REMARK    5  A    between atoms: C_18  and  C_19
REMARK    6  A    between atoms: C_22  and  C_30
REMARK    7  A    between atoms: C_27  and  C_29
REMARK                            x       y       z     vdW  Elec       q    Type
REMARK                         _______ _______ _______ _____ _____    ______ ____
ROOT
ATOM      1  N   UNL     1      -2.112  -0.873   3.459  0.00  0.00    -0.234 N 
ATOM      2  C   UNL     1      -3.440  -0.642   3.479  0.00  0.00    +0.233 C 
ATOM      3  O   UNL     1      -4.015  -0.324   2.460  0.00  0.00    -0.274 OA
ATOM      4  H   UNL     1      -1.652  -1.128   4.274  0.00  0.00    +0.173 HD
ENDROOT
BRANCH   1  16
ATOM      5  N   UNL     1       0.621  -0.846   1.057  0.00  0.00    -0.280 N 
ATOM      6  C   UNL     1       1.955  -1.061   0.990  0.00  0.00    +0.263 A 
ATOM      7  O   UNL     1       2.562  -0.940  -0.058  0.00  0.00    -0.267 OA
ATOM      8  C   UNL     1       2.644  -1.446   2.229  0.00  0.00    +0.065 A 
ATOM      9  C   UNL     1       4.016  -1.690   2.264  0.00  0.00    +0.015 A 
ATOM     10  C   UNL     1       4.607  -2.045   3.445  0.00  0.00    +0.001 A 
ATOM     11  C   UNL     1       3.856  -2.166   4.607  0.00  0.00    +0.002 A 
ATOM     12  C   UNL     1       2.509  -1.933   4.601  0.00  0.00    +0.028 A 
ATOM     13  C   UNL     1       1.876  -1.568   3.409  0.00  0.00    +0.080 A 
ATOM     14  N   UNL     1       0.545  -1.327   3.357  0.00  0.00    -0.214 NA
ATOM     15  C   UNL     1      -0.045  -0.980   2.241  0.00  0.00    +0.216 A 
ATOM     16  N   UNL     1      -1.397  -0.745   2.261  0.00  0.00    -0.234 N 
ATOM     17  H   UNL     1      -1.857  -0.490   1.446  0.00  0.00    +0.173 HD
BRANCH   5  19
ATOM     18  C   UNL     1      -0.125   1.065  -0.275  0.00  0.00    +0.027 C 
ATOM     19  C   UNL     1      -0.115  -0.460  -0.150  0.00  0.00    +0.125 C 
ENDBRANCH   5  19
ENDBRANCH   1  16
BRANCH   2  20
ATOM     20  C   UNL     1      -4.209  -0.780   4.767  0.00  0.00    +0.130 C 
BRANCH  20  21
ATOM     21  C   UNL     1      -5.635  -0.344   4.550  0.00  0.00    -0.030 C 
ATOM     22  C   UNL     1      -6.691  -1.135   4.253  0.00  0.00    -0.000 A 
ATOM     23  C   UNL     1      -6.823  -2.583   4.051  0.00  0.00    +0.013 A 
ATOM     24  C   UNL     1      -8.040  -3.096   3.757  0.00  0.00    -0.050 A 
ATOM     25  C   UNL     1      -9.175  -2.282   3.641  0.00  0.00    +0.005 A 
ATOM     26  C   UNL     1      -9.133  -0.944   3.812  0.00  0.00    +0.026 A 
ATOM     27  C   UNL     1      -7.905  -0.298   4.125  0.00  0.00    +0.043 A 
ATOM     28  N   UNL     1      -7.611   0.963   4.334  0.00  0.00    -0.378 N 
ATOM     29  C   UNL     1      -6.177   1.066   4.625  0.00  0.00    +0.104 C 
ATOM     30  C   UNL     1      -5.960   1.640   6.027  0.00  0.00    +0.035 C 
ATOM     31  C   UNL     1      -8.178  -4.583   3.549  0.00  0.00    +0.044 C 
ATOM     32  H   UNL     1      -8.238   1.703   4.306  0.00  0.00    +0.160 HD
ENDBRANCH  20  21
ENDBRANCH   2  20
TORSDOF 4
