REMARK  Name = ZINC39546155
REMARK  9 active torsions:
REMARK  status: ('A' for Active; 'I' for Inactive)
REMARK    1  A    between atoms: C_1  and  C_2
REMARK    2  A    between atoms: C_19  and  C_21
REMARK    3  A    between atoms: C_21  and  N_22
REMARK    4  A    between atoms: C_27  and  O_42
REMARK    5  A    between atoms: C_28  and  O_40
REMARK    6  A    between atoms: C_31  and  C_33
REMARK    7  A    between atoms: C_33  and  C_34
REMARK    8  A    between atoms: O_40  and  C_41
REMARK    9  A    between atoms: O_42  and  C_43
REMARK                            x       y       z     vdW  Elec       q    Type
REMARK                         _______ _______ _______ _____ _____    ______ ____
ROOT
ATOM      1  N   UNL     1       5.349  -2.898   0.276  0.00  0.00    +0.385 N 
ATOM      2  C   UNL     1       5.583  -1.763   1.183  0.00  0.00    -0.073 C 
ATOM      3  C   UNL     1       7.038  -1.315   1.038  0.00  0.00    +0.017 C 
ATOM      4  C   UNL     1       7.955  -2.503   1.179  0.00  0.00    -0.044 A 
ATOM      5  C   UNL     1       9.300  -2.277   1.424  0.00  0.00    +0.053 A 
ATOM      6  C   UNL     1      10.175  -3.341   1.556  0.00  0.00    +0.162 A 
ATOM      7  C   UNL     1       9.698  -4.644   1.442  0.00  0.00    +0.162 A 
ATOM      8  C   UNL     1       8.354  -4.863   1.199  0.00  0.00    +0.051 A 
ATOM      9  C   UNL     1       7.481  -3.793   1.068  0.00  0.00    -0.054 A 
ATOM     10  C   UNL     1       6.025  -4.083   0.812  0.00  0.00    -0.033 C 
ATOM     11  H   UNL     1       5.719  -2.683  -0.638  0.00  0.00    -0.081 HD
ENDROOT
BRANCH   7  12
ATOM     12  O   UNL     1      10.550  -5.696   1.568  0.00  0.00    -0.491 OA
ATOM     13  C   UNL     1       9.989  -7.004   1.438  0.00  0.00    +0.277 C 
ENDBRANCH   7  12
BRANCH   6  14
ATOM     14  O   UNL     1      11.495  -3.115   1.797  0.00  0.00    -0.491 OA
ATOM     15  C   UNL     1      11.911  -1.752   1.901  0.00  0.00    +0.277 C 
ENDBRANCH   6  14
BRANCH   1  16
ATOM     16  C   UNL     1       3.907  -3.157   0.175  0.00  0.00    -0.063 C 
BRANCH  16  32
ATOM     17  C   UNL     1       0.780   2.099  -0.753  0.00  0.00    +0.012 C 
ATOM     18  C   UNL     1       0.629   0.578  -0.693  0.00  0.00    -0.022 C 
ATOM     19  C   UNL     1      -0.850   0.213  -0.795  0.00  0.00    +0.007 C 
ATOM     20  C   UNL     1      -1.636   0.953   0.290  0.00  0.00    +0.005 C 
ATOM     21  C   UNL     1      -1.154   0.502   1.673  0.00  0.00    +0.030 C 
ATOM     22  C   UNL     1       0.347   0.677   1.749  0.00  0.00    -0.073 C 
ATOM     23  C   UNL     1       0.903   1.332   2.737  0.00  0.00    +0.008 C 
ATOM     24  C   UNL     1       1.187   0.066   0.642  0.00  0.00    +0.021 C 
ATOM     25  C   UNL     1       1.000  -1.452   0.684  0.00  0.00    +0.016 C 
ATOM     26  C   UNL     1       1.687  -2.140  -0.467  0.00  0.00    +0.042 C 
ATOM     27  C   UNL     1       1.325  -1.550  -1.845  0.00  0.00    +0.181 C 
ATOM     28  C   UNL     1       1.408  -0.049  -1.839  0.00  0.00    +0.052 C 
ATOM     29  O   UNL     1       2.439  -2.027  -2.653  0.00  0.00    -0.461 OA
ATOM     30  C   UNL     1       3.567  -1.859  -1.928  0.00  0.00    +0.309 C 
ATOM     31  O   UNL     1       4.670  -1.660  -2.379  0.00  0.00    -0.251 OA
ATOM     32  C   UNL     1       3.215  -1.950  -0.460  0.00  0.00    +0.088 C 
ENDBRANCH  16  32
ENDBRANCH   1  16
BRANCH  10  33
ATOM     33  C   UNL     1       5.908  -5.229  -0.195  0.00  0.00    +0.024 C 
BRANCH  33  34
ATOM     34  C   UNL     1       6.614  -4.849  -1.471  0.00  0.00    -0.049 A 
ATOM     35  C   UNL     1       5.943  -4.138  -2.448  0.00  0.00    +0.003 A 
ATOM     36  C   UNL     1       6.591  -3.791  -3.618  0.00  0.00    +0.000 A 
ATOM     37  C   UNL     1       7.911  -4.154  -3.812  0.00  0.00    +0.000 A 
ATOM     38  C   UNL     1       8.583  -4.864  -2.834  0.00  0.00    +0.000 A 
ATOM     39  C   UNL     1       7.936  -5.208  -1.662  0.00  0.00    +0.003 A 
ENDBRANCH  33  34
ENDBRANCH  10  33
TORSDOF 6
