REMARK  Name = ZINC04477384
REMARK  10 active torsions:
REMARK  status: ('A' for Active; 'I' for Inactive)
REMARK    1  A    between atoms: C_1  and  C_2
REMARK    2  A    between atoms: C_2  and  C_3
REMARK    3  A    between atoms: C_3  and  C_26
REMARK    4  A    between atoms: N_6  and  C_10
REMARK    5  A    between atoms: C_10  and  C_11
REMARK    6  A    between atoms: N_13  and  C_14
REMARK    7  A    between atoms: C_14  and  C_15
REMARK    8  A    between atoms: N_17  and  C_18
REMARK    9  A    between atoms: C_19  and  C_25
REMARK   10  A    between atoms: C_23  and  C_24
REMARK                            x       y       z     vdW  Elec       q    Type
REMARK                         _______ _______ _______ _____ _____    ______ ____
ROOT
ATOM      1  C   UNL     1       1.517  -1.107  -1.040  0.00  0.00    +0.213 C 
ENDROOT
BRANCH   1   5
ATOM      2  C   UNL     1      -1.692   0.672  -0.461  0.00  0.00    +0.138 C 
ATOM      3  C   UNL     1      -0.215   0.462  -0.191  0.00  0.00    +0.251 C 
ATOM      4  O   UNL     1       0.486   1.087   0.576  0.00  0.00    -0.272 OA
ATOM      5  N   UNL     1       0.157  -0.565  -0.981  0.00  0.00    -0.215 N 
ATOM      6  C   UNL     1      -0.869  -1.028  -1.704  0.00  0.00    +0.310 C 
ATOM      7  O   UNL     1      -0.780  -1.952  -2.489  0.00  0.00    -0.252 OA
ATOM      8  N   UNL     1      -2.009  -0.354  -1.469  0.00  0.00    -0.281 N 
ATOM      9  H   UNL     1      -2.872  -0.513  -1.882  0.00  0.00    +0.152 HD
BRANCH   2  10
ATOM     10  C   UNL     1      -1.938   2.052  -1.014  0.00  0.00    -0.015 A 
ATOM     11  C   UNL     1      -2.215   3.101  -0.158  0.00  0.00    +0.006 A 
ATOM     12  C   UNL     1      -2.436   4.368  -0.665  0.00  0.00    +0.000 A 
ATOM     13  C   UNL     1      -2.392   4.583  -2.030  0.00  0.00    +0.000 A 
ATOM     14  C   UNL     1      -2.121   3.532  -2.887  0.00  0.00    +0.000 A 
ATOM     15  C   UNL     1      -1.894   2.267  -2.379  0.00  0.00    +0.006 A 
ENDBRANCH   2  10
BRANCH   2  17
ATOM     16  C   UNL     1      -2.281  -0.972   1.326  0.00  0.00    +0.007 C 
ATOM     17  C   UNL     1      -2.508   0.452   0.814  0.00  0.00    +0.037 C 
ENDBRANCH   2  17
ENDBRANCH   1   5
BRANCH   1  18
ATOM     18  C   UNL     1       2.302  -0.378  -2.100  0.00  0.00    +0.231 C 
ATOM     19  O   UNL     1       1.778   0.507  -2.742  0.00  0.00    -0.274 OA
ATOM     20  N   UNL     1       3.587  -0.710  -2.333  0.00  0.00    -0.305 N 
ATOM     21  H   UNL     1       4.007  -1.417  -1.820  0.00  0.00    +0.149 HD
BRANCH  20  22
ATOM     22  C   UNL     1       4.351  -0.001  -3.364  0.00  0.00    +0.200 C 
BRANCH  22  23
ATOM     23  C   UNL     1       5.750  -0.558  -3.425  0.00  0.00    +0.234 C 
ATOM     24  O   UNL     1       6.076  -1.459  -2.681  0.00  0.00    -0.274 OA
ATOM     25  N   UNL     1       6.637  -0.056  -4.306  0.00  0.00    -0.284 N 
ATOM     26  H   UNL     1       6.361   0.627  -4.936  0.00  0.00    +0.155 HD
BRANCH  25  27
ATOM     27  C   UNL     1       7.957  -0.521  -4.311  0.00  0.00    +0.039 A 
ATOM     28  C   UNL     1       8.695  -0.533  -3.135  0.00  0.00    -0.029 A 
ATOM     29  C   UNL     1       9.996  -0.996  -3.143  0.00  0.00    +0.005 A 
ATOM     30  C   UNL     1      10.567  -1.438  -4.322  0.00  0.00    +0.001 A 
ATOM     31  C   UNL     1       9.836  -1.423  -5.496  0.00  0.00    +0.005 A 
ATOM     32  C   UNL     1       8.533  -0.966  -5.494  0.00  0.00    -0.029 A 
ATOM     33  C   UNL     1       7.737  -0.950  -6.774  0.00  0.00    +0.045 C 
ATOM     34  C   UNL     1       8.076  -0.046  -1.851  0.00  0.00    +0.045 C 
ENDBRANCH  25  27
ENDBRANCH  22  23
ENDBRANCH  20  22
ENDBRANCH   1  18
TORSDOF 7
