REMARK  Name = ZINC36048844
REMARK  7 active torsions:
REMARK  status: ('A' for Active; 'I' for Inactive)
REMARK    1  A    between atoms: C_1  and  C_2
REMARK    2  A    between atoms: C_5  and  C_8
REMARK    3  A    between atoms: C_10  and  C_23
REMARK    4  A    between atoms: C_11  and  C_22
REMARK    5  A    between atoms: C_15  and  C_18
REMARK    6  A    between atoms: C_23  and  O_25
REMARK    7  A    between atoms: O_25  and  C_26
REMARK                            x       y       z     vdW  Elec       q    Type
REMARK                         _______ _______ _______ _____ _____    ______ ____
ROOT
ATOM      1  C   UNL     1       0.305  -4.076   0.228  0.00  0.00    +0.150 C 
ATOM      2  C   UNL     1       1.649  -4.757   0.086  0.00  0.00    +0.082 C 
ATOM      3  C   UNL     1       1.882  -5.871   0.838  0.00  0.00    +0.053 C 
ATOM      4  N   UNL     1       0.954  -6.339   1.667  0.00  0.00    -0.230 NA
ATOM      5  C   UNL     1      -0.224  -5.806   1.843  0.00  0.00    +0.166 C 
ATOM      6  N   UNL     1      -0.656  -4.684   1.184  0.00  0.00    -0.267 N 
ATOM      7  C   UNL     1      -1.921  -4.259   1.486  0.00  0.00    +0.050 C 
ATOM      8  C   UNL     1      -2.669  -5.044   2.473  0.00  0.00    +0.072 C 
ATOM      9  S   UNL     1      -1.592  -6.263   2.884  0.00  0.00    -0.060 S 
ATOM     10  C   UNL     1       3.207  -6.580   0.727  0.00  0.00    +0.066 C 
ENDROOT
BRANCH   1  15
ATOM     11  C   UNL     1       1.235   1.387   1.866  0.00  0.00    +0.044 C 
ATOM     12  C   UNL     1       0.993  -0.038   1.439  0.00  0.00    -0.050 A 
ATOM     13  C   UNL     1       0.685  -0.322   0.121  0.00  0.00    +0.004 A 
ATOM     14  C   UNL     1       0.463  -1.628  -0.271  0.00  0.00    +0.006 A 
ATOM     15  C   UNL     1       0.548  -2.652   0.655  0.00  0.00    -0.022 A 
ATOM     16  C   UNL     1       0.857  -2.368   1.972  0.00  0.00    +0.006 A 
ATOM     17  C   UNL     1       1.083  -1.062   2.363  0.00  0.00    +0.004 A 
ENDBRANCH   1  15
BRANCH   7  18
ATOM     18  C   UNL     1      -2.468  -3.143   0.890  0.00  0.00    +0.119 C 
ATOM     19  C   UNL     1      -3.828  -2.817   1.111  0.00  0.00    +0.381 C 
ATOM     20  O   UNL     1      -4.551  -3.523   1.983  0.00  0.00    -0.241 OA
ATOM     21  O   UNL     1      -4.388  -1.804   0.447  0.00  0.00    -0.241 OA
ENDBRANCH   7  18
BRANCH   2  22
ATOM     22  C   UNL     1       2.631  -4.255  -0.798  0.00  0.00    +0.339 C 
ATOM     23  O   UNL     1       3.745  -4.744  -0.810  0.00  0.00    -0.245 OA
BRANCH  22  24
ATOM     24  O   UNL     1       2.332  -3.234  -1.629  0.00  0.00    -0.465 OA
ATOM     25  C   UNL     1       3.373  -2.777  -2.495  0.00  0.00    +0.280 C 
ENDBRANCH  22  24
ENDBRANCH   2  22
TORSDOF 4
