REMARK  Name = ZINC60211578
REMARK  10 active torsions:
REMARK  status: ('A' for Active; 'I' for Inactive)
REMARK    1  A    between atoms: C_1  and  C_2
REMARK    2  A    between atoms: C_2  and  N_3
REMARK    3  A    between atoms: N_3  and  C_4
REMARK    4  A    between atoms: N_3  and  C_6
REMARK    5  A    between atoms: C_4  and  C_5
REMARK    6  A    between atoms: C_6  and  C_7
REMARK    7  A    between atoms: C_10  and  C_12
REMARK    8  A    between atoms: N_14  and  N_15
REMARK    9  A    between atoms: C_16  and  C_18
REMARK   10  A    between atoms: C_18  and  N_19
REMARK                            x       y       z     vdW  Elec       q    Type
REMARK                         _______ _______ _______ _____ _____    ______ ____
ROOT
ATOM      1  N   UNL     1       1.135  -3.298  -5.663  0.00  0.00    -0.233 N 
ATOM      2  C   UNL     1      -0.076  -3.468  -6.229  0.00  0.00    +0.247 C 
ATOM      3  O   UNL     1      -1.079  -3.369  -5.555  0.00  0.00    -0.273 OA
ATOM      4  H   UNL     1       1.938  -3.377  -6.202  0.00  0.00    +0.173 HD
ENDROOT
BRANCH   1   7
ATOM      5  C   UNL     1       2.446  -2.835  -3.730  0.00  0.00    +0.295 C 
ATOM      6  O   UNL     1       3.453  -2.935  -4.406  0.00  0.00    -0.265 OA
ATOM      7  N   UNL     1       1.235  -3.005  -4.296  0.00  0.00    -0.228 N 
ATOM      8  H   UNL     1       0.432  -2.926  -3.758  0.00  0.00    +0.173 HD
BRANCH   5  12
ATOM      9  C   UNL     1       1.992  -2.113  -0.220  0.00  0.00    +0.090 A 
ATOM     10  C   UNL     1       3.341  -2.068  -0.275  0.00  0.00    +0.043 A 
ATOM     11  C   UNL     1       3.709  -2.333  -1.604  0.00  0.00    +0.055 A 
ATOM     12  C   UNL     1       2.551  -2.529  -2.300  0.00  0.00    +0.191 A 
ATOM     13  O   UNL     1       1.519  -2.397  -1.440  0.00  0.00    -0.457 OA
BRANCH   9  14
ATOM     14  C   UNL     1       1.157  -1.887   1.014  0.00  0.00    -0.003 C 
BRANCH  14  15
ATOM     15  N   UNL     1       0.823  -0.461   1.126  0.00  0.00    +0.384 N 
ATOM     16  H   UNL     1       1.671   0.085   1.109  0.00  0.00    -0.081 HD
BRANCH  15  18
ATOM     17  C   UNL     1      -0.261   1.443   0.032  0.00  0.00    -0.017 C 
ATOM     18  C   UNL     1      -0.035  -0.070  -0.001  0.00  0.00    -0.082 C 
ENDBRANCH  15  18
BRANCH  15  19
ATOM     19  C   UNL     1       0.111  -0.222   2.389  0.00  0.00    -0.082 C 
ATOM     20  C   UNL     1       1.053  -0.495   3.563  0.00  0.00    -0.017 C 
ENDBRANCH  15  19
ENDBRANCH  14  15
ENDBRANCH   9  14
ENDBRANCH   5  12
ENDBRANCH   1   7
BRANCH   2  21
ATOM     21  C   UNL     1      -0.183  -3.783  -7.699  0.00  0.00    +0.215 C 
BRANCH  21  22
ATOM     22  N   UNL     1      -1.594  -3.920  -8.067  0.00  0.00    -0.215 N 
ATOM     23  C   UNL     1      -2.280  -5.081  -8.023  0.00  0.00    +0.247 C 
ATOM     24  O   UNL     1      -1.863  -6.167  -7.684  0.00  0.00    -0.273 OA
ATOM     25  C   UNL     1      -3.679  -4.741  -8.484  0.00  0.00    +0.113 C 
ATOM     26  C   UNL     1      -4.689  -5.034  -7.380  0.00  0.00    +0.035 C 
ATOM     27  C   UNL     1      -6.093  -4.655  -7.857  0.00  0.00    +0.003 C 
ATOM     28  C   UNL     1      -6.439  -5.458  -9.113  0.00  0.00    +0.000 C 
ATOM     29  C   UNL     1      -5.431  -5.136 -10.218  0.00  0.00    +0.003 C 
ATOM     30  C   UNL     1      -4.024  -5.517  -9.751  0.00  0.00    +0.035 C 
ATOM     31  N   UNL     1      -3.623  -3.300  -8.762  0.00  0.00    -0.285 N 
ATOM     32  C   UNL     1      -2.365  -2.908  -8.484  0.00  0.00    +0.310 C 
ATOM     33  O   UNL     1      -1.972  -1.763  -8.602  0.00  0.00    -0.252 OA
ATOM     34  H   UNL     1      -4.349  -2.741  -9.080  0.00  0.00    +0.151 HD
ENDBRANCH  21  22
ENDBRANCH   2  21
TORSDOF 8
