REMARK  Name = ZINC02955709
REMARK  7 active torsions:
REMARK  status: ('A' for Active; 'I' for Inactive)
REMARK    1  A    between atoms: C_1  and  C_2
REMARK    2  A    between atoms: C_5  and  N_8
REMARK    3  A    between atoms: C_10  and  C_22
REMARK    4  A    between atoms: C_13  and  C_20
REMARK    5  A    between atoms: C_16  and  C_19
REMARK    6  A    between atoms: C_20  and  O_21
REMARK    7  A    between atoms: N_24  and  C_25
REMARK                            x       y       z     vdW  Elec       q    Type
REMARK                         _______ _______ _______ _____ _____    ______ ____
ROOT
ATOM      1  N   UNL     1       0.603  -4.811  -0.819  0.00  0.00    -0.325 N 
ATOM      2  C   UNL     1       0.989  -4.854   0.437  0.00  0.00    +0.212 A 
ATOM      3  C   UNL     1       0.608  -5.984   1.309  0.00  0.00    +0.098 A 
ATOM      4  C   UNL     1       1.442  -6.274   2.367  0.00  0.00    +0.030 A 
ATOM      5  C   UNL     1       2.630  -5.435   2.534  0.00  0.00    +0.027 A 
ATOM      6  C   UNL     1       3.669  -5.793   3.402  0.00  0.00    +0.007 A 
ATOM      7  C   UNL     1       4.759  -4.953   3.505  0.00  0.00    +0.117 A 
ATOM      8  N   UNL     1       4.830  -3.836   2.805  0.00  0.00    -0.256 NA
ATOM      9  C   UNL     1       3.878  -3.455   1.977  0.00  0.00    +0.081 A 
ATOM     10  C   UNL     1       2.742  -4.234   1.808  0.00  0.00    +0.159 A 
ATOM     11  O   UNL     1       1.753  -3.864   0.966  0.00  0.00    -0.437 OA
ATOM     12  C   UNL     1       4.024  -2.166   1.210  0.00  0.00    +0.069 C 
ATOM     13  H   UNL     1       0.154  -5.575  -1.215  0.00  0.00    +0.169 HD
ENDROOT
BRANCH   1  18
ATOM     14  C   UNL     1       1.559  -0.186  -3.909  0.00  0.00    +0.044 C 
ATOM     15  C   UNL     1       1.304  -1.421  -3.083  0.00  0.00    -0.050 A 
ATOM     16  C   UNL     1       1.567  -2.671  -3.616  0.00  0.00    +0.005 A 
ATOM     17  C   UNL     1       1.335  -3.806  -2.867  0.00  0.00    +0.026 A 
ATOM     18  C   UNL     1       0.835  -3.691  -1.567  0.00  0.00    +0.042 A 
ATOM     19  C   UNL     1       0.572  -2.425  -1.036  0.00  0.00    +0.026 A 
ATOM     20  C   UNL     1       0.813  -1.299  -1.795  0.00  0.00    +0.005 A 
ENDBRANCH   1  18
BRANCH   3  21
ATOM     21  C   UNL     1      -0.615  -6.769   1.059  0.00  0.00    +0.253 C 
ATOM     22  O   UNL     1      -0.841  -7.768   1.713  0.00  0.00    -0.270 OA
ATOM     23  N   UNL     1      -1.482  -6.378   0.104  0.00  0.00    -0.281 N 
ATOM     24  H   UNL     1      -1.276  -5.612  -0.454  0.00  0.00    +0.155 HD
BRANCH  23  25
ATOM     25  C   UNL     1      -2.680  -7.077  -0.081  0.00  0.00    +0.034 A 
ATOM     26  C   UNL     1      -2.719  -8.452   0.111  0.00  0.00    +0.024 A 
ATOM     27  C   UNL     1      -3.903  -9.139  -0.073  0.00  0.00    +0.017 A 
ATOM     28  C   UNL     1      -5.048  -8.460  -0.448  0.00  0.00    +0.018 A 
ATOM     29  C   UNL     1      -5.012  -7.090  -0.640  0.00  0.00    +0.017 A 
ATOM     30  C   UNL     1      -3.832  -6.396  -0.452  0.00  0.00    +0.024 A 
ATOM     31 BR   UNL     1      -6.667  -9.405  -0.699  0.00  0.00    -0.050 Br
ENDBRANCH  23  25
ENDBRANCH   3  21
BRANCH   6  32
ATOM     32  C   UNL     1       3.598  -7.066   4.205  0.00  0.00    +0.193 C 
BRANCH  32  33
ATOM     33  O   UNL     1       4.777  -7.192   5.003  0.00  0.00    -0.390 OA
ATOM     34  H   UNL     1       4.800  -7.991   5.547  0.00  0.00    +0.210 HD
ENDBRANCH  32  33
ENDBRANCH   6  32
TORSDOF 5
