REMARK  Name = ZINC11880748
REMARK  8 active torsions:
REMARK  status: ('A' for Active; 'I' for Inactive)
REMARK    1  A    between atoms: C_1  and  C_2
REMARK    2  A    between atoms: C_3  and  C_4
REMARK    3  A    between atoms: C_4  and  N_5
REMARK    4  A    between atoms: C_8  and  C_12
REMARK    5  A    between atoms: C_8  and  C_20
REMARK    6  A    between atoms: C_12  and  C_13
REMARK    7  A    between atoms: C_13  and  C_14
REMARK    8  A    between atoms: C_26  and  C_28
REMARK                            x       y       z     vdW  Elec       q    Type
REMARK                         _______ _______ _______ _____ _____    ______ ____
ROOT
ATOM      1  N   UNL     1      -2.645   4.200   2.741  0.00  0.00    -0.212 N 
ATOM      2  C   UNL     1      -3.727   4.943   2.433  0.00  0.00    +0.248 C 
ATOM      3  O   UNL     1      -4.800   4.543   2.034  0.00  0.00    -0.273 OA
ATOM      4  C   UNL     1      -3.323   6.381   2.689  0.00  0.00    +0.116 C 
ATOM      5  N   UNL     1      -1.930   6.272   3.156  0.00  0.00    -0.285 N 
ATOM      6  C   UNL     1      -1.626   4.961   3.157  0.00  0.00    +0.310 C 
ATOM      7  O   UNL     1      -0.546   4.519   3.494  0.00  0.00    -0.252 OA
ATOM      8  H   UNL     1      -1.347   7.002   3.415  0.00  0.00    +0.151 HD
ENDROOT
BRANCH   4   9
ATOM      9  C   UNL     1      -4.206   7.003   3.772  0.00  0.00    +0.024 C 
ATOM     10  C   UNL     1      -3.766   8.448   4.022  0.00  0.00    +0.025 C 
ATOM     11  C   UNL     1      -4.675   9.079   5.082  0.00  0.00    +0.108 C 
ATOM     12  N   UNL     1      -4.663   8.229   6.280  0.00  0.00    -0.296 N 
ATOM     13  C   UNL     1      -4.983   6.802   6.138  0.00  0.00    +0.108 C 
ATOM     14  C   UNL     1      -4.071   6.197   5.066  0.00  0.00    +0.025 C 
ATOM     15  C   UNL     1      -4.365   8.749   7.487  0.00  0.00    +0.267 C 
ATOM     16  O   UNL     1      -4.464   8.063   8.486  0.00  0.00    -0.268 OA
BRANCH  15  17
ATOM     17  C   UNL     1      -3.918  10.153   7.597  0.00  0.00    +0.150 A 
ATOM     18  C   UNL     1      -3.686  10.872   8.792  0.00  0.00    +0.005 A 
ATOM     19  C   UNL     1      -3.292  12.105   8.408  0.00  0.00    +0.040 A 
ATOM     20  N   UNL     1      -3.298  12.120   7.056  0.00  0.00    -0.281 N 
ATOM     21  H   UNL     1      -3.053  12.909   6.491  0.00  0.00    +0.189 HD
ATOM     22  N   UNL     1      -3.665  10.977   6.600  0.00  0.00    -0.169 NA
ATOM     23  C   UNL     1      -3.010  12.963   9.621  0.00  0.00    +0.055 C 
ATOM     24  C   UNL     1      -2.862  11.966  10.792  0.00  0.00    +0.011 C 
ATOM     25  C   UNL     1      -3.700  10.766  10.298  0.00  0.00    +0.039 C 
ENDBRANCH  15  17
ENDBRANCH   4   9
BRANCH   1  26
ATOM     26  C   UNL     1      -2.593   2.740   2.640  0.00  0.00    +0.206 C 
BRANCH  26  29
ATOM     27  C   UNL     1      -1.295   1.670  -1.119  0.00  0.00    +0.106 C 
ATOM     28  C   UNL     1      -1.759   2.053   0.224  0.00  0.00    -0.104 C 
ATOM     29  C   UNL     1      -2.129   2.357   1.296  0.00  0.00    -0.083 C 
ENDBRANCH  26  29
ENDBRANCH   1  26
BRANCH   4  30
ATOM     30  C   UNL     1      -3.396   7.199   1.398  0.00  0.00    +0.040 C 
BRANCH  30  31
ATOM     31  C   UNL     1      -2.462   6.585   0.352  0.00  0.00    +0.038 C 
BRANCH  31  32
ATOM     32  C   UNL     1      -2.533   7.391  -0.919  0.00  0.00    -0.047 A 
ATOM     33  C   UNL     1      -3.456   7.061  -1.895  0.00  0.00    +0.003 A 
ATOM     34  C   UNL     1      -3.525   7.803  -3.059  0.00  0.00    +0.000 A 
ATOM     35  C   UNL     1      -2.664   8.867  -3.253  0.00  0.00    +0.000 A 
ATOM     36  C   UNL     1      -1.739   9.193  -2.280  0.00  0.00    +0.000 A 
ATOM     37  C   UNL     1      -1.673   8.455  -1.113  0.00  0.00    +0.003 A 
ENDBRANCH  31  32
ENDBRANCH  30  31
ENDBRANCH   4  30
TORSDOF 7
