REMARK  Name = ZINC40741424
REMARK  12 active torsions:
REMARK  status: ('A' for Active; 'I' for Inactive)
REMARK    1  A    between atoms: C_1  and  C_2
REMARK    2  A    between atoms: C_4  and  O_43
REMARK    3  A    between atoms: C_6  and  N_42
REMARK    4  A    between atoms: C_9  and  O_12
REMARK    5  A    between atoms: O_12  and  C_13
REMARK    6  A    between atoms: C_16  and  C_38
REMARK    7  A    between atoms: C_20  and  O_37
REMARK    8  A    between atoms: C_23  and  O_24
REMARK    9  A    between atoms: C_31  and  O_35
REMARK   10  A    between atoms: O_35  and  C_36
REMARK   11  A    between atoms: C_38  and  C_40
REMARK   12  A    between atoms: C_40  and  O_41
REMARK                            x       y       z     vdW  Elec       q    Type
REMARK                         _______ _______ _______ _____ _____    ______ ____
ROOT
ATOM      1  C   UNL     1       2.027  -0.031   3.658  0.00  0.00    +0.160 C 
ATOM      2  C   UNL     1       0.882  -0.955   4.067  0.00  0.00    +0.075 C 
ATOM      3  C   UNL     1       1.414  -2.281   4.535  0.00  0.00    +0.001 C 
ATOM      4  C   UNL     1       2.575  -2.352   5.230  0.00  0.00    +0.019 C 
ATOM      5  C   UNL     1       3.320  -1.118   5.513  0.00  0.00    +0.027 A 
ATOM      6  C   UNL     1       3.059   0.022   4.754  0.00  0.00    +0.034 A 
ATOM      7  C   UNL     1       3.750   1.199   5.008  0.00  0.00    +0.135 A 
ATOM      8  C   UNL     1       4.710   1.245   6.025  0.00  0.00    +0.078 A 
ATOM      9  C   UNL     1       4.978   0.094   6.794  0.00  0.00    +0.079 A 
ATOM     10  C   UNL     1       4.284  -1.084   6.538  0.00  0.00    +0.136 A 
ATOM     11  C   UNL     1       5.990   0.139   7.863  0.00  0.00    +0.198 C 
ATOM     12  O   UNL     1       6.221  -0.855   8.525  0.00  0.00    -0.286 OA
ATOM     13  C   UNL     1       6.726   1.392   8.128  0.00  0.00    +0.037 A 
ATOM     14  C   UNL     1       7.685   1.443   9.134  0.00  0.00    +0.012 A 
ATOM     15  C   UNL     1       8.371   2.621   9.380  0.00  0.00    +0.004 A 
ATOM     16  C   UNL     1       8.112   3.753   8.633  0.00  0.00    +0.046 A 
ATOM     17  C   UNL     1       7.156   3.724   7.622  0.00  0.00    +0.132 A 
ATOM     18  C   UNL     1       6.456   2.542   7.362  0.00  0.00    +0.075 A 
ATOM     19  C   UNL     1       5.443   2.497   6.293  0.00  0.00    +0.202 C 
ATOM     20  O   UNL     1       5.210   3.491   5.633  0.00  0.00    -0.286 OA
ENDROOT
BRANCH  10  21
ATOM     21  O   UNL     1       4.536  -2.192   7.273  0.00  0.00    -0.505 OA
ATOM     22  H   UNL     1       5.232  -2.756   6.909  0.00  0.00    +0.292 HD
ENDBRANCH  10  21
BRANCH  17  23
ATOM     23  O   UNL     1       6.905   4.839   6.891  0.00  0.00    -0.494 OA
ATOM     24  C   UNL     1       7.659   6.009   7.213  0.00  0.00    +0.277 C 
ENDBRANCH  17  23
BRANCH   7  25
ATOM     25  O   UNL     1       3.494   2.307   4.269  0.00  0.00    -0.506 OA
ATOM     26  H   UNL     1       2.797   2.870   4.632  0.00  0.00    +0.292 HD
ENDBRANCH   7  25
BRANCH   3  27
ATOM     27  C   UNL     1       0.698  -3.463   4.247  0.00  0.00    +0.184 C 
ATOM     28  O   UNL     1       1.123  -4.537   4.622  0.00  0.00    -0.290 OA
BRANCH  27  29
ATOM     29  C   UNL     1      -0.594  -3.392   3.475  0.00  0.00    +0.235 C 
BRANCH  29  30
ATOM     30  O   UNL     1      -1.125  -4.708   3.313  0.00  0.00    -0.387 OA
ATOM     31  H   UNL     1      -1.958  -4.739   2.824  0.00  0.00    +0.210 HD
ENDBRANCH  29  30
ENDBRANCH  27  29
ENDBRANCH   3  27
BRANCH   1  32
ATOM     32  O   UNL     1       2.630  -0.526   2.461  0.00  0.00    -0.343 OA
BRANCH  32  38
ATOM     33  C   UNL     1      -0.019   1.526   0.010  0.00  0.00    +0.040 C 
ATOM     34  C   UNL     1       0.002  -0.004   0.002  0.00  0.00    +0.145 C 
ATOM     35  C   UNL     1       0.719  -0.498  -1.257  0.00  0.00    +0.129 C 
ATOM     36  C   UNL     1       2.172  -0.014  -1.231  0.00  0.00    -0.039 C 
ATOM     37  C   UNL     1       2.842  -0.512   0.053  0.00  0.00    +0.048 C 
ATOM     38  C   UNL     1       2.043  -0.018   1.261  0.00  0.00    +0.250 C 
ATOM     39  O   UNL     1       0.694  -0.478   1.159  0.00  0.00    -0.346 OA
BRANCH  36  40
ATOM     40  N   UNL     1       2.888  -0.544  -2.399  0.00  0.00    +0.382 N 
ATOM     41  H   UNL     1       2.441  -0.220  -3.244  0.00  0.00    -0.090 HD
ATOM     42  H   UNL     1       3.845  -0.224  -2.381  0.00  0.00    -0.090 HD
ATOM     43  H   UNL     1       2.870  -1.553  -2.375  0.00  0.00    -0.090 HD
ENDBRANCH  36  40
BRANCH  35  44
ATOM     44  O   UNL     1       0.691  -1.926  -1.293  0.00  0.00    -0.391 OA
ATOM     45  H   UNL     1      -0.200  -2.302  -1.307  0.00  0.00    +0.210 HD
ENDBRANCH  35  44
ENDBRANCH  32  38
ENDBRANCH   1  32
TORSDOF 10
