REMARK  Name = ZINC45754618
REMARK  12 active torsions:
REMARK  status: ('A' for Active; 'I' for Inactive)
REMARK    1  A    between atoms: C_1  and  C_2
REMARK    2  A    between atoms: C_5  and  C_34
REMARK    3  A    between atoms: N_8  and  C_10
REMARK    4  A    between atoms: C_10  and  C_11
REMARK    5  A    between atoms: C_17  and  C_19
REMARK    6  A    between atoms: C_22  and  C_25
REMARK    7  A    between atoms: C_25  and  N_26
REMARK    8  A    between atoms: C_27  and  O_29
REMARK    9  A    between atoms: O_29  and  C_30
REMARK   10  A    between atoms: C_30  and  C_31
REMARK   11  A    between atoms: C_30  and  C_32
REMARK   12  A    between atoms: C_30  and  C_33
REMARK                            x       y       z     vdW  Elec       q    Type
REMARK                         _______ _______ _______ _____ _____    ______ ____
ROOT
ATOM      1  C   UNL     1       2.971  -2.034   2.241  0.00  0.00    +0.034 A 
ATOM      2  C   UNL     1       3.439  -0.905   2.828  0.00  0.00    +0.070 A 
ATOM      3  S   UNL     1       5.146  -0.941   2.305  0.00  0.00    -0.060 S 
ATOM      4  C   UNL     1       5.085  -2.365   1.411  0.00  0.00    +0.165 A 
ATOM      5  N   UNL     1       3.833  -2.747   1.539  0.00  0.00    -0.231 NA
ATOM      6  N   UNL     1       6.110  -2.989   0.711  0.00  0.00    -0.261 N 
ATOM      7  C   UNL     1       7.344  -2.447   0.697  0.00  0.00    +0.250 C 
ATOM      8  O   UNL     1       7.560  -1.412   1.297  0.00  0.00    -0.270 OA
ATOM      9  H   UNL     1       5.938  -3.815   0.232  0.00  0.00    +0.157 HD
ENDROOT
BRANCH   7  10
ATOM     10  C   UNL     1       8.435  -3.111  -0.047  0.00  0.00    +0.037 A 
ATOM     11  C   UNL     1       8.189  -4.296  -0.742  0.00  0.00    +0.013 A 
ATOM     12  C   UNL     1       9.211  -4.911  -1.435  0.00  0.00    +0.006 A 
ATOM     13  C   UNL     1      10.478  -4.354  -1.443  0.00  0.00    -0.030 A 
ATOM     14  C   UNL     1      10.728  -3.180  -0.756  0.00  0.00    +0.006 A 
ATOM     15  C   UNL     1       9.714  -2.552  -0.064  0.00  0.00    +0.013 A 
BRANCH  13  16
ATOM     16  C   UNL     1      11.590  -5.031  -2.203  0.00  0.00    +0.142 C 
BRANCH  16  17
ATOM     17  N   UNL     1      11.623  -4.522  -3.576  0.00  0.00    -0.277 N 
ATOM     18  C   UNL     1      12.543  -4.987  -4.445  0.00  0.00    +0.401 C 
ATOM     19  O   UNL     1      13.344  -5.829  -4.089  0.00  0.00    -0.226 OA
ATOM     20  H   UNL     1      10.984  -3.850  -3.860  0.00  0.00    +0.152 HD
BRANCH  18  21
ATOM     21  O   UNL     1      12.573  -4.519  -5.707  0.00  0.00    -0.445 OA
BRANCH  21  22
ATOM     22  C   UNL     1      13.574  -5.057  -6.574  0.00  0.00    +0.107 C 
ATOM     23  C   UNL     1      13.381  -6.569  -6.700  0.00  0.00    +0.055 C 
ATOM     24  C   UNL     1      13.454  -4.409  -7.955  0.00  0.00    +0.055 C 
ATOM     25  C   UNL     1      14.960  -4.767  -5.994  0.00  0.00    +0.055 C 
ENDBRANCH  21  22
ENDBRANCH  18  21
ENDBRANCH  16  17
ENDBRANCH  13  16
ENDBRANCH   7  10
BRANCH   1  26
ATOM     26  C   UNL     1       1.534  -2.461   2.390  0.00  0.00    -0.022 C 
BRANCH  26  32
ATOM     27  C   UNL     1      -0.019   1.526   0.010  0.00  0.00    +0.005 C 
ATOM     28  C   UNL     1       0.002  -0.004   0.002  0.00  0.00    -0.031 C 
ATOM     29  C   UNL     1      -1.434  -0.535   0.015  0.00  0.00    +0.003 C 
ATOM     30  C   UNL     1      -1.402  -2.064   0.086  0.00  0.00    -0.031 C 
ATOM     31  C   UNL     1      -0.613  -2.496   1.324  0.00  0.00    -0.075 C 
ATOM     32  N   UNL     1       0.758  -1.980   1.239  0.00  0.00    +0.384 N 
ATOM     33  C   UNL     1       0.740  -0.512   1.242  0.00  0.00    -0.075 C 
ATOM     34  C   UNL     1      -2.832  -2.602   0.177  0.00  0.00    +0.005 C 
ATOM     35  H   UNL     1       1.188  -2.307   0.386  0.00  0.00    -0.081 HD
ENDBRANCH  26  32
ENDBRANCH   1  26
TORSDOF 7
