REMARK  Name = ZINC02135691
REMARK  7 active torsions:
REMARK  status: ('A' for Active; 'I' for Inactive)
REMARK    1  A    between atoms: C_1  and  C_2
REMARK    2  A    between atoms: C_4  and  C_34
REMARK    3  A    between atoms: C_6  and  N_8
REMARK    4  A    between atoms: C_11  and  C_18
REMARK    5  A    between atoms: C_12  and  O_17
REMARK    6  A    between atoms: C_24  and  O_30
REMARK    7  A    between atoms: O_30  and  C_31
REMARK                            x       y       z     vdW  Elec       q    Type
REMARK                         _______ _______ _______ _____ _____    ______ ____
ROOT
ATOM      1  N   UNL     1      -0.069   5.243   0.031  0.00  0.00    -0.229 N 
ATOM      2  C   UNL     1      -1.244   5.897  -0.062  0.00  0.00    +0.267 A 
ATOM      3  O   UNL     1      -2.288   5.274  -0.154  0.00  0.00    -0.267 OA
ATOM      4  C   UNL     1      -1.259   7.303  -0.048  0.00  0.00    +0.069 A 
ATOM      5  C   UNL     1      -0.077   7.977   0.049  0.00  0.00    +0.201 A 
ATOM      6  N   UNL     1       1.097   7.272   0.136  0.00  0.00    -0.278 N 
ATOM      7  H   UNL     1       1.940   7.747   0.205  0.00  0.00    +0.173 HD
ATOM      8  C   UNL     1       1.086   5.926   0.126  0.00  0.00    +0.336 A 
ATOM      9  O   UNL     1       2.137   5.319   0.204  0.00  0.00    -0.246 OA
ENDROOT
BRANCH   4  10
ATOM     10  C   UNL     1      -2.561   8.054  -0.144  0.00  0.00    +0.018 C 
ATOM     11  C   UNL     1      -3.403   7.770   1.077  0.00  0.00    +0.011 A 
ATOM     12  C   UNL     1      -4.732   7.508   1.009  0.00  0.00    -0.022 A 
ATOM     13  C   UNL     1      -5.191   7.280   2.360  0.00  0.00    +0.006 A 
ATOM     14  C   UNL     1      -6.445   6.974   2.899  0.00  0.00    +0.056 A 
ATOM     15  C   UNL     1      -6.514   6.820   4.276  0.00  0.00    +0.121 A 
ATOM     16  C   UNL     1      -5.394   6.963   5.085  0.00  0.00    +0.047 A 
ATOM     17  C   UNL     1      -4.146   7.265   4.571  0.00  0.00    +0.030 A 
ATOM     18  C   UNL     1      -4.049   7.425   3.190  0.00  0.00    +0.047 A 
ATOM     19  N   UNL     1      -2.989   7.719   2.377  0.00  0.00    -0.359 N 
ATOM     20  H   UNL     1      -2.080   7.872   2.678  0.00  0.00    +0.166 HD
ATOM     21  C   UNL     1      -5.511   7.484  -0.282  0.00  0.00    +0.018 C 
ATOM     22  C   UNL     1      -4.661   8.167  -1.362  0.00  0.00    -0.076 C 
ATOM     23  N   UNL     1      -3.295   7.605  -1.348  0.00  0.00    +0.388 N 
ATOM     24  H   UNL     1      -3.352   6.580  -1.345  0.00  0.00    -0.084 HD
ATOM     25  H   UNL     1      -2.792   7.917  -2.187  0.00  0.00    -0.084 HD
BRANCH  15  26
ATOM     26  O   UNL     1      -7.711   6.523   4.849  0.00  0.00    -0.495 OA
ATOM     27  C   UNL     1      -7.731   6.375   6.270  0.00  0.00    +0.277 C 
ENDBRANCH  15  26
ENDBRANCH   4  10
BRANCH   1  33
ATOM     28  C   UNL     1      -0.214   0.993   2.500  0.00  0.00    +0.044 C 
ATOM     29  C   UNL     1      -0.119   1.758   1.205  0.00  0.00    -0.048 A 
ATOM     30  C   UNL     1      -0.014   1.076   0.006  0.00  0.00    +0.006 A 
ATOM     31  C   UNL     1       0.079   1.774  -1.183  0.00  0.00    -0.048 A 
ATOM     32  C   UNL     1       0.056   3.155  -1.179  0.00  0.00    +0.029 A 
ATOM     33  C   UNL     1      -0.050   3.842   0.023  0.00  0.00    +0.055 A 
ATOM     34  C   UNL     1      -0.138   3.139   1.216  0.00  0.00    +0.029 A 
ATOM     35  C   UNL     1       0.199   1.027  -2.487  0.00  0.00    +0.044 C 
ENDBRANCH   1  33
BRANCH   5  36
ATOM     36  O   UNL     1      -0.063   9.326   0.059  0.00  0.00    -0.493 OA
ATOM     37  H   UNL     1       0.822   9.710   0.131  0.00  0.00    +0.294 HD
ENDBRANCH   5  36
TORSDOF 4
