REMARK  Name = ZINC35317783
REMARK  15 active torsions:
REMARK  status: ('A' for Active; 'I' for Inactive)
REMARK    1  A    between atoms: C_1  and  C_2
REMARK    2  A    between atoms: C_9  and  C_11
REMARK    3  A    between atoms: C_11  and  C_12
REMARK    4  A    between atoms: C_12  and  C_13
REMARK    5  A    between atoms: C_18  and  C_20
REMARK    6  A    between atoms: C_20  and  C_22
REMARK    7  A    between atoms: C_20  and  N_25
REMARK    8  A    between atoms: C_22  and  C_23
REMARK    9  A    between atoms: C_22  and  C_24
REMARK   10  A    between atoms: C_26  and  C_28
REMARK   11  A    between atoms: C_28  and  C_29
REMARK   12  A    between atoms: C_29  and  C_30
REMARK   13  A    between atoms: C_30  and  C_31
REMARK   14  A    between atoms: C_31  and  C_32
REMARK   15  A    between atoms: C_32  and  N_33
REMARK                            x       y       z     vdW  Elec       q    Type
REMARK                         _______ _______ _______ _____ _____    ______ ____
ROOT
ATOM      1  C   UNL     1      -0.838   1.518  -0.475  0.00  0.00    +0.029 C 
ATOM      2  C   UNL     1      -0.767  -0.008  -0.407  0.00  0.00    +0.090 C 
ATOM      3  C   UNL     1       0.293  -0.519  -1.391  0.00  0.00    +0.130 C 
ATOM      4  N   UNL     1       0.529  -1.946  -1.128  0.00  0.00    -0.297 N 
ATOM      5  C   UNL     1       0.908  -2.362   0.229  0.00  0.00    +0.127 C 
ATOM      6  C   UNL     1      -0.152  -1.852   1.212  0.00  0.00    +0.127 C 
ATOM      7  N   UNL     1      -0.393  -0.426   0.951  0.00  0.00    -0.296 N 
ATOM      8  C   UNL     1      -0.267   0.484   1.938  0.00  0.00    +0.216 C 
ATOM      9  O   UNL     1      -0.591   1.637   1.745  0.00  0.00    -0.276 OA
ATOM     10  C   UNL     1       0.401  -2.855  -2.115  0.00  0.00    +0.236 C 
ATOM     11  O   UNL     1       0.177  -2.491  -3.250  0.00  0.00    -0.274 OA
ENDROOT
BRANCH   8  12
ATOM     12  C   UNL     1       0.277   0.069   3.280  0.00  0.00    +0.096 C 
BRANCH  12  13
ATOM     13  C   UNL     1       0.316   1.281   4.212  0.00  0.00    +0.013 C 
BRANCH  13  14
ATOM     14  C   UNL     1       0.868   0.860   5.575  0.00  0.00    -0.011 C 
ATOM     15  C   UNL     1      -0.131  -0.079   6.282  0.00  0.00    +0.003 C 
ATOM     16  C   UNL     1      -0.035   0.320   7.776  0.00  0.00    +0.000 C 
ATOM     17  C   UNL     1       0.125   1.859   7.709  0.00  0.00    +0.000 C 
ATOM     18  C   UNL     1       1.031   2.092   6.482  0.00  0.00    +0.003 C 
ENDBRANCH  13  14
ENDBRANCH  12  13
ENDBRANCH   8  12
BRANCH  10  19
ATOM     19  C   UNL     1       0.535  -4.324  -1.807  0.00  0.00    +0.162 C 
BRANCH  19  20
ATOM     20  N   UNL     1       1.175  -5.003  -2.937  0.00  0.00    -0.304 N 
ATOM     21  C   UNL     1       1.849  -6.153  -2.737  0.00  0.00    +0.214 C 
ATOM     22  O   UNL     1       1.926  -6.626  -1.623  0.00  0.00    -0.276 OA
ATOM     23  H   UNL     1       1.115  -4.625  -3.828  0.00  0.00    +0.149 HD
BRANCH  21  24
ATOM     24  C   UNL     1       2.508  -6.851  -3.899  0.00  0.00    +0.096 C 
BRANCH  24  25
ATOM     25  C   UNL     1       3.200  -8.123  -3.404  0.00  0.00    +0.009 C 
BRANCH  25  26
ATOM     26  C   UNL     1       3.869  -8.832  -4.584  0.00  0.00    -0.001 C 
BRANCH  26  27
ATOM     27  C   UNL     1       4.560 -10.104  -4.089  0.00  0.00    -0.020 C 
BRANCH  27  28
ATOM     28  C   UNL     1       5.229 -10.812  -5.268  0.00  0.00    -0.086 C 
BRANCH  28  29
ATOM     29  N   UNL     1       5.893 -12.033  -4.793  0.00  0.00    +0.378 N 
ATOM     30  H   UNL     1       6.334 -12.501  -5.571  0.00  0.00    -0.090 HD
ATOM     31  H   UNL     1       6.592 -11.791  -4.106  0.00  0.00    -0.090 HD
ATOM     32  H   UNL     1       5.210 -12.647  -4.375  0.00  0.00    -0.090 HD
ENDBRANCH  28  29
ENDBRANCH  27  28
ENDBRANCH  26  27
ENDBRANCH  25  26
ENDBRANCH  24  25
ENDBRANCH  21  24
ENDBRANCH  19  20
BRANCH  19  33
ATOM     33  C   UNL     1      -0.852  -4.925  -1.571  0.00  0.00    +0.012 C 
ATOM     34  C   UNL     1      -0.709  -6.390  -1.154  0.00  0.00    +0.009 C 
ATOM     35  C   UNL     1      -1.563  -4.146  -0.463  0.00  0.00    +0.009 C 
ENDBRANCH  19  33
ENDBRANCH  10  19
TORSDOF 12
