REMARK  Name = ZINC17974196
REMARK  8 active torsions:
REMARK  status: ('A' for Active; 'I' for Inactive)
REMARK    1  A    between atoms: C_1  and  C_2
REMARK    2  A    between atoms: N_11  and  C_15
REMARK    3  A    between atoms: C_15  and  C_16
REMARK    4  A    between atoms: N_18  and  C_19
REMARK    5  A    between atoms: N_18  and  C_20
REMARK    6  A    between atoms: C_20  and  C_21
REMARK    7  A    between atoms: N_23  and  C_24
REMARK    8  A    between atoms: C_28  and  C_30
REMARK                            x       y       z     vdW  Elec       q    Type
REMARK                         _______ _______ _______ _____ _____    ______ ____
ROOT
ATOM      1  C   UNL     1      -3.414   0.427   5.767  0.00  0.00    +0.234 C 
ATOM      2  O   UNL     1      -2.267   0.511   5.381  0.00  0.00    -0.274 OA
ATOM      3  N   UNL     1      -3.675   0.332   7.086  0.00  0.00    -0.294 N 
ATOM      4  C   UNL     1      -5.061   0.231   7.552  0.00  0.00    +0.132 C 
ENDROOT
BRANCH   1   5
ATOM      5  C   UNL     1      -4.545   0.429   4.772  0.00  0.00    +0.213 C 
BRANCH   5  15
ATOM      6  C   UNL     1      -0.913   1.359   2.363  0.00  0.00    +0.010 C 
ATOM      7  C   UNL     1      -1.819   1.901   1.255  0.00  0.00    +0.018 C 
ATOM      8  C   UNL     1      -1.264   1.481  -0.108  0.00  0.00    +0.006 C 
ATOM      9  C   UNL     1      -2.181   2.006  -1.215  0.00  0.00    +0.000 C 
ATOM     10  C   UNL     1      -3.582   1.416  -1.041  0.00  0.00    +0.003 C 
ATOM     11  C   UNL     1      -4.146   1.836   0.319  0.00  0.00    +0.035 C 
ATOM     12  C   UNL     1      -3.226   1.338   1.428  0.00  0.00    +0.115 C 
ATOM     13  C   UNL     1      -3.781   1.712   2.783  0.00  0.00    +0.247 C 
ATOM     14  O   UNL     1      -3.984   2.828   3.210  0.00  0.00    -0.273 OA
ATOM     15  N   UNL     1      -4.003   0.541   3.416  0.00  0.00    -0.215 N 
ATOM     16  C   UNL     1      -3.667  -0.505   2.652  0.00  0.00    +0.310 C 
ATOM     17  O   UNL     1      -3.776  -1.663   3.004  0.00  0.00    -0.252 OA
ATOM     18  N   UNL     1      -3.193  -0.130   1.448  0.00  0.00    -0.285 N 
ATOM     19  H   UNL     1      -2.889  -0.714   0.736  0.00  0.00    +0.151 HD
ENDBRANCH   5  15
ENDBRANCH   1   5
BRANCH   3  20
ATOM     20  C   UNL     1      -2.575   0.330   8.053  0.00  0.00    +0.203 C 
BRANCH  20  21
ATOM     21  C   UNL     1      -2.272   1.746   8.472  0.00  0.00    +0.235 C 
ATOM     22  O   UNL     1      -2.912   2.666   8.008  0.00  0.00    -0.274 OA
ATOM     23  N   UNL     1      -1.290   1.990   9.362  0.00  0.00    -0.284 N 
ATOM     24  H   UNL     1      -0.829   1.251   9.790  0.00  0.00    +0.155 HD
BRANCH  23  25
ATOM     25  C   UNL     1      -0.934   3.308   9.668  0.00  0.00    +0.034 A 
ATOM     26  C   UNL     1      -1.009   4.293   8.692  0.00  0.00    +0.025 A 
ATOM     27  C   UNL     1      -0.662   5.595   8.998  0.00  0.00    +0.022 A 
ATOM     28  C   UNL     1      -0.230   5.915  10.273  0.00  0.00    +0.053 A 
ATOM     29  C   UNL     1      -0.150   4.935  11.246  0.00  0.00    +0.075 A 
ATOM     30  C   UNL     1      -0.501   3.633  10.946  0.00  0.00    +0.037 A 
ATOM     31 CL   UNL     1       0.212   7.551  10.652  0.00  0.00    -0.083 Cl
BRANCH  29  32
ATOM     32  C   UNL     1       0.320   5.288  12.633  0.00  0.00    +0.419 C 
ATOM     33  F   UNL     1       0.316   4.140  13.433  0.00  0.00    -0.166 F 
ATOM     34  F   UNL     1       1.618   5.806  12.568  0.00  0.00    -0.166 F 
ATOM     35  F   UNL     1      -0.537   6.245  13.187  0.00  0.00    -0.166 F 
ENDBRANCH  29  32
ENDBRANCH  23  25
ENDBRANCH  20  21
ENDBRANCH   3  20
TORSDOF 6
