REMARK  Name = ZINC36033882
REMARK  8 active torsions:
REMARK  status: ('A' for Active; 'I' for Inactive)
REMARK    1  A    between atoms: C_1  and  C_2
REMARK    2  A    between atoms: C_2  and  C_3
REMARK    3  A    between atoms: C_2  and  C_4
REMARK    4  A    between atoms: C_4  and  C_5
REMARK    5  A    between atoms: C_5  and  C_33
REMARK    6  A    between atoms: C_10  and  C_13
REMARK    7  A    between atoms: C_18  and  O_19
REMARK    8  A    between atoms: N_23  and  C_26
REMARK                            x       y       z     vdW  Elec       q    Type
REMARK                         _______ _______ _______ _____ _____    ______ ____
ROOT
ATOM      1  C   UNL     1       0.340  -0.528   3.154  0.00  0.00    +0.048 C 
ATOM      2  C   UNL     1       1.451  -0.825   4.181  0.00  0.00    +0.086 C 
ATOM      3  C   UNL     1       2.332   0.453   4.196  0.00  0.00    +0.077 C 
ATOM      4  C   UNL     1       1.679   1.396   3.165  0.00  0.00    -0.023 C 
ATOM      5  N   UNL     1       0.255   0.954   3.108  0.00  0.00    +0.396 N 
ATOM      6  C   UNL     1       2.129   1.001   5.591  0.00  0.00    +0.229 C 
ATOM      7  O   UNL     1       2.643   2.007   6.030  0.00  0.00    -0.275 OA
ATOM      8  N   UNL     1       1.293   0.203   6.264  0.00  0.00    -0.210 N 
ATOM      9  C   UNL     1       0.849  -0.869   5.568  0.00  0.00    +0.229 C 
ATOM     10  O   UNL     1       0.093  -1.724   5.976  0.00  0.00    -0.275 OA
ATOM     11  H   UNL     1      -0.170   1.257   2.244  0.00  0.00    -0.083 HD
ATOM     12  H   UNL     1      -0.265   1.303   3.900  0.00  0.00    -0.083 HD
ENDROOT
BRANCH   4  13
ATOM     13  C   UNL     1       1.753   2.825   3.638  0.00  0.00    -0.018 A 
ATOM     14  C   UNL     1       0.688   3.385   4.317  0.00  0.00    +0.020 A 
ATOM     15  C   UNL     1       0.756   4.696   4.752  0.00  0.00    +0.018 A 
ATOM     16  C   UNL     1       1.890   5.450   4.508  0.00  0.00    +0.019 A 
ATOM     17  C   UNL     1       2.957   4.894   3.830  0.00  0.00    +0.047 A 
ATOM     18  C   UNL     1       2.893   3.577   3.397  0.00  0.00    +0.119 A 
ATOM     19 BR   UNL     1      -0.704   5.460   5.680  0.00  0.00    -0.050 Br
BRANCH  18  20
ATOM     20  O   UNL     1       3.944   3.027   2.734  0.00  0.00    -0.507 OA
ATOM     21  H   UNL     1       3.906   3.140   1.775  0.00  0.00    +0.292 HD
ENDBRANCH  18  20
ENDBRANCH   4  13
BRANCH   8  22
ATOM     22  C   UNL     1       0.911   0.450   7.590  0.00  0.00    +0.045 A 
ATOM     23  C   UNL     1      -0.429   0.630   7.906  0.00  0.00    +0.024 A 
ATOM     24  C   UNL     1      -0.803   0.874   9.213  0.00  0.00    +0.003 A 
ATOM     25  C   UNL     1       0.155   0.938  10.208  0.00  0.00    +0.020 A 
ATOM     26  C   UNL     1       1.492   0.759   9.897  0.00  0.00    +0.043 A 
ATOM     27  C   UNL     1       1.871   0.510   8.591  0.00  0.00    +0.044 A 
ATOM     28 CL   UNL     1       2.692   0.841  11.148  0.00  0.00    -0.083 Cl
ENDBRANCH   8  22
BRANCH   1  29
ATOM     29  C   UNL     1      -0.971  -1.115   3.610  0.00  0.00    +0.346 C 
ATOM     30  O   UNL     1      -1.113  -2.325   3.659  0.00  0.00    -0.248 OA
ATOM     31  O   UNL     1      -1.889  -0.380   3.931  0.00  0.00    -0.248 OA
ENDBRANCH   1  29
BRANCH   1  32
ATOM     32  C   UNL     1       0.721  -1.083   1.780  0.00  0.00    +0.002 C 
BRANCH  32  34
ATOM     33  C   UNL     1       0.211  -0.985  -0.664  0.00  0.00    +0.007 C 
ATOM     34  C   UNL     1      -0.258  -0.558   0.728  0.00  0.00    -0.018 C 
ATOM     35  C   UNL     1      -1.650  -1.133   0.996  0.00  0.00    +0.007 C 
ENDBRANCH  32  34
ENDBRANCH   1  32
TORSDOF 6
