REMARK  Name = ZINC09639782
REMARK  9 active torsions:
REMARK  status: ('A' for Active; 'I' for Inactive)
REMARK    1  A    between atoms: C_1  and  C_2
REMARK    2  A    between atoms: C_2  and  C_26
REMARK    3  A    between atoms: C_5  and  C_22
REMARK    4  A    between atoms: C_6  and  N_12
REMARK    5  A    between atoms: C_9  and  C_10
REMARK    6  A    between atoms: C_9  and  C_11
REMARK    7  A    between atoms: C_13  and  C_15
REMARK    8  A    between atoms: C_22  and  O_24
REMARK    9  A    between atoms: O_24  and  C_25
REMARK                            x       y       z     vdW  Elec       q    Type
REMARK                         _______ _______ _______ _____ _____    ______ ____
ROOT
ATOM      1  C   UNL     1      -0.013   1.086   0.008  0.00  0.00    -0.010 C 
ATOM      2  C   UNL     1      -0.729   1.579   1.268  0.00  0.00    -0.069 C 
ATOM      3  C   UNL     1      -2.139   0.982   1.314  0.00  0.00    +0.024 C 
ATOM      4  C   UNL     1      -2.972   1.641   0.224  0.00  0.00    -0.024 A 
ATOM      5  C   UNL     1      -4.109   1.039  -0.444  0.00  0.00    +0.091 A 
ATOM      6  C   UNL     1      -4.763   1.802  -1.405  0.00  0.00    +0.086 A 
ATOM      7  S   UNL     1      -3.869   3.287  -1.407  0.00  0.00    -0.079 S 
ATOM      8  C   UNL     1      -2.665   2.897  -0.170  0.00  0.00    -0.016 A 
ATOM      9  C   UNL     1      -1.547   3.746   0.342  0.00  0.00    -0.041 C 
ATOM     10  C   UNL     1      -2.159   4.995   1.007  0.00  0.00    -0.005 C 
ATOM     11  C   UNL     1      -0.676   4.216  -0.829  0.00  0.00    -0.005 C 
ATOM     12  C   UNL     1       0.047   1.048   2.488  0.00  0.00    -0.010 C 
ATOM     13  N   UNL     1      -0.718   3.061   1.373  0.00  0.00    +0.389 N 
ATOM     14  H   UNL     1       0.252   3.384   1.276  0.00  0.00    -0.084 HD
ATOM     15  H   UNL     1      -1.074   3.322   2.300  0.00  0.00    -0.084 HD
ENDROOT
BRANCH   6  16
ATOM     16  N   UNL     1      -5.862   1.458  -2.174  0.00  0.00    -0.275 N 
ATOM     17  C   UNL     1      -6.364   2.336  -3.065  0.00  0.00    +0.251 C 
ATOM     18  O   UNL     1      -5.851   3.432  -3.193  0.00  0.00    -0.270 OA
ATOM     19  H   UNL     1      -6.270   0.584  -2.072  0.00  0.00    +0.156 HD
BRANCH  17  20
ATOM     20  C   UNL     1      -7.530   1.970  -3.881  0.00  0.00    +0.064 A 
ATOM     21  C   UNL     1      -8.160   0.678  -3.759  0.00  0.00    +0.042 A 
ATOM     22  C   UNL     1      -9.226   0.440  -4.548  0.00  0.00    +0.080 A 
ATOM     23  S   UNL     1      -9.389   1.951  -5.476  0.00  0.00    -0.064 S 
ATOM     24  C   UNL     1      -8.069   2.846  -4.803  0.00  0.00    +0.091 A 
ATOM     25 CL   UNL     1      -7.550   4.456  -5.192  0.00  0.00    -0.075 Cl
ATOM     26 CL   UNL     1     -10.200  -0.995  -4.642  0.00  0.00    -0.076 Cl
ENDBRANCH  17  20
ENDBRANCH   6  16
BRANCH   5  27
ATOM     27  C   UNL     1      -4.561  -0.317  -0.124  0.00  0.00    +0.342 C 
ATOM     28  O   UNL     1      -5.390  -0.491   0.749  0.00  0.00    -0.245 OA
BRANCH  27  29
ATOM     29  O   UNL     1      -4.059  -1.372  -0.798  0.00  0.00    -0.464 OA
ATOM     30  C   UNL     1      -4.554  -2.686  -0.429  0.00  0.00    +0.280 C 
ENDBRANCH  27  29
ENDBRANCH   5  27
TORSDOF 4
