REMARK  Name = ZINC43769394
REMARK  8 active torsions:
REMARK  status: ('A' for Active; 'I' for Inactive)
REMARK    1  A    between atoms: C_1  and  C_2
REMARK    2  A    between atoms: C_6  and  C_20
REMARK    3  A    between atoms: C_10  and  C_19
REMARK    4  A    between atoms: C_12  and  C_14
REMARK    5  A    between atoms: C_14  and  C_15
REMARK    6  A    between atoms: C_15  and  C_16
REMARK    7  A    between atoms: C_20  and  C_22
REMARK    8  A    between atoms: C_20  and  C_23
REMARK                            x       y       z     vdW  Elec       q    Type
REMARK                         _______ _______ _______ _____ _____    ______ ____
ROOT
ATOM      1  C   UNL     1       0.075   0.473  -0.954  0.00  0.00    +0.008 C 
ATOM      2  C   UNL     1       0.152  -0.851  -0.191  0.00  0.00    -0.011 C 
ATOM      3  C   UNL     1       0.956  -1.839  -1.013  0.00  0.00    +0.006 C 
ATOM      4  C   UNL     1       0.905  -3.240  -0.408  0.00  0.00    +0.039 C 
ATOM      5  C   UNL     1       2.083  -3.408   0.564  0.00  0.00    +0.109 C 
ATOM      6  C   UNL     1       1.956  -2.649   1.895  0.00  0.00    +0.155 C 
ATOM      7  O   UNL     1       2.853  -2.241   0.860  0.00  0.00    -0.364 OA
ATOM      8  C   UNL     1       0.655  -1.852   2.079  0.00  0.00    +0.021 C 
ATOM      9  C   UNL     1       0.749  -0.590   1.177  0.00  0.00    -0.002 C 
ATOM     10  C   UNL     1       0.518  -1.427   3.543  0.00  0.00    +0.010 C 
ENDROOT
BRANCH   5  11
ATOM     11  C   UNL     1       2.790  -4.765   0.543  0.00  0.00    +0.133 C 
ATOM     12  C   UNL     1       3.844  -4.808   1.652  0.00  0.00    +0.022 C 
BRANCH  11  13
ATOM     13  C   UNL     1       3.458  -4.962  -0.793  0.00  0.00    +0.362 C 
ATOM     14  O   UNL     1       3.377  -4.098  -1.649  0.00  0.00    -0.246 OA
ATOM     15  O   UNL     1       4.080  -5.987  -1.018  0.00  0.00    -0.246 OA
ENDBRANCH  11  13
ENDBRANCH   5  11
BRANCH   9  16
ATOM     16  C   UNL     1       2.215  -0.182   1.014  0.00  0.00    +0.015 C 
BRANCH  16  17
ATOM     17  C   UNL     1       2.933  -0.313   2.359  0.00  0.00    +0.125 C 
BRANCH  17  18
ATOM     18  C   UNL     1       4.338   0.218   2.232  0.00  0.00    +0.356 C 
ATOM     19  O   UNL     1       4.728   0.659   1.165  0.00  0.00    -0.246 OA
ATOM     20  O   UNL     1       5.084   0.205   3.197  0.00  0.00    -0.246 OA
ENDBRANCH  17  18
ENDBRANCH  16  17
ENDBRANCH   9  16
TORSDOF 5
