REMARK  Name = ZINC09432876
REMARK  13 active torsions:
REMARK  status: ('A' for Active; 'I' for Inactive)
REMARK    1  A    between atoms: C_1  and  O_2
REMARK    2  A    between atoms: O_2  and  C_3
REMARK    3  A    between atoms: C_3  and  C_4
REMARK    4  A    between atoms: C_4  and  N_5
REMARK    5  A    between atoms: C_6  and  C_35
REMARK    6  A    between atoms: C_8  and  C_18
REMARK    7  A    between atoms: N_20  and  C_21
REMARK    8  A    between atoms: C_21  and  C_22
REMARK    9  A    between atoms: C_22  and  C_23
REMARK   10  A    between atoms: C_23  and  N_75
REMARK   11  A    between atoms: C_24  and  C_25
REMARK   12  A    between atoms: C_24  and  N_75
REMARK   13  A    between atoms: C_30  and  N_75
REMARK                            x       y       z     vdW  Elec       q    Type
REMARK                         _______ _______ _______ _____ _____    ______ ____
ROOT
ATOM      1  N   UNL     1       0.150   0.977  -6.248  0.00  0.00    -0.287 N 
ATOM      2  C   UNL     1       1.495   1.533  -6.119  0.00  0.00    +0.129 C 
ATOM      3  C   UNL     1       2.069   1.257  -4.732  0.00  0.00    +0.131 C 
ATOM      4  C   UNL     1       1.931  -0.205  -4.395  0.00  0.00    -0.021 A 
ATOM      5  C   UNL     1       2.880  -0.842  -3.625  0.00  0.00    +0.005 A 
ATOM      6  C   UNL     1       2.731  -2.183  -3.314  0.00  0.00    +0.000 A 
ATOM      7  C   UNL     1       1.631  -2.889  -3.769  0.00  0.00    +0.001 A 
ATOM      8  C   UNL     1       0.677  -2.264  -4.545  0.00  0.00    +0.013 A 
ATOM      9  C   UNL     1       0.827  -0.917  -4.868  0.00  0.00    +0.041 A 
ATOM     10  C   UNL     1      -0.158  -0.227  -5.728  0.00  0.00    +0.247 C 
ATOM     11  O   UNL     1      -1.233  -0.741  -5.965  0.00  0.00    -0.270 OA
ENDROOT
BRANCH   2  12
ATOM     12  C   UNL     1       1.439   3.022  -6.344  0.00  0.00    +0.011 A 
ATOM     13  C   UNL     1       1.199   3.703  -7.491  0.00  0.00    +0.013 A 
ATOM     14  C   UNL     1       1.192   5.085  -7.461  0.00  0.00    +0.008 A 
ATOM     15  C   UNL     1       1.436   5.718  -6.287  0.00  0.00    +0.045 A 
ATOM     16  S   UNL     1       1.678   4.346  -5.171  0.00  0.00    -0.100 S 
ENDBRANCH   2  12
BRANCH   3  17
ATOM     17  C   UNL     1       1.325   2.078  -3.710  0.00  0.00    +0.223 C 
ATOM     18  O   UNL     1       0.124   2.219  -3.805  0.00  0.00    -0.275 OA
ATOM     19  N   UNL     1       1.994   2.654  -2.692  0.00  0.00    -0.315 N 
ATOM     20  H   UNL     1       2.954   2.541  -2.617  0.00  0.00    +0.149 HD
BRANCH  19  21
ATOM     21  C   UNL     1       1.270   3.452  -1.699  0.00  0.00    +0.102 C 
BRANCH  21  22
ATOM     22  C   UNL     1       2.256   3.988  -0.659  0.00  0.00    +0.000 C 
BRANCH  22  23
ATOM     23  C   UNL     1       1.500   4.822   0.378  0.00  0.00    -0.076 C 
BRANCH  23  24
ATOM     24  N   UNL     1       2.455   5.283   1.407  0.00  0.00    +0.386 N 
ATOM     25  H   UNL     1       3.234   5.768   0.947  0.00  0.00    -0.081 HD
BRANCH  24  26
ATOM     26  C   UNL     1       2.987   4.126   2.158  0.00  0.00    -0.068 C 
ATOM     27  C   UNL     1       4.132   3.480   1.350  0.00  0.00    -0.015 C 
ATOM     28  C   UNL     1       3.973   1.962   1.615  0.00  0.00    -0.002 C 
ATOM     29  C   UNL     1       2.435   1.776   1.632  0.00  0.00    -0.002 C 
ATOM     30  C   UNL     1       1.909   3.043   2.337  0.00  0.00    -0.015 C 
ENDBRANCH  24  26
BRANCH  24  31
ATOM     31  C   UNL     1       1.786   6.221   2.333  0.00  0.00    -0.003 C 
BRANCH  31  32
ATOM     32  C   UNL     1       2.838   6.948   3.130  0.00  0.00    +0.089 A 
ATOM     33  C   UNL     1       3.400   8.125   2.801  0.00  0.00    +0.042 A 
ATOM     34  C   UNL     1       4.328   8.435   3.822  0.00  0.00    +0.041 A 
ATOM     35  C   UNL     1       4.277   7.429   4.713  0.00  0.00    +0.195 A 
ATOM     36  O   UNL     1       3.369   6.534   4.292  0.00  0.00    -0.470 OA
ENDBRANCH  31  32
ENDBRANCH  24  31
ENDBRANCH  23  24
ENDBRANCH  22  23
ENDBRANCH  21  22
ENDBRANCH  19  21
ENDBRANCH   3  17
BRANCH   1  37
ATOM     37  C   UNL     1      -0.881   1.741  -6.955  0.00  0.00    +0.137 C 
BRANCH  37  38
ATOM     38  C   UNL     1      -0.845   1.391  -8.444  0.00  0.00    +0.178 C 
BRANCH  38  40
ATOM     39  C   UNL     1      -1.086  -0.444  -9.967  0.00  0.00    +0.194 C 
ATOM     40  O   UNL     1      -1.195   0.017  -8.619  0.00  0.00    -0.381 OA
ENDBRANCH  38  40
ENDBRANCH  37  38
ENDBRANCH   1  37
TORSDOF 12
