REMARK  Name = ZINC63384479
REMARK  11 active torsions:
REMARK  status: ('A' for Active; 'I' for Inactive)
REMARK    1  A    between atoms: CD1_1  and  CG1_2
REMARK    2  A    between atoms: CG1_2  and  CB_3
REMARK    3  A    between atoms: CB_3  and  CG2_5
REMARK    4  A    between atoms: CB_3  and  CA_6
REMARK    5  A    between atoms: CA_6  and  C_8
REMARK    6  A    between atoms: CA_6  and  N_26
REMARK    7  A    between atoms: N_10  and  CA_11
REMARK    8  A    between atoms: CA_11  and  CB_13
REMARK    9  A    between atoms: CA_11  and  C_23
REMARK   10  A    between atoms: CB_13  and  CG_14
REMARK   11  A    between atoms: C_31  and  O_39
REMARK                            x       y       z     vdW  Elec       q    Type
REMARK                         _______ _______ _______ _____ _____    ______ ____
ROOT
ATOM      1  CA  TRP A   1      -2.718   0.066   1.066  0.00  0.00    +0.163 C 
ENDROOT
BRANCH   1   2
ATOM      2  N   TRP A   1      -4.062  -0.505   1.187  0.00  0.00    -0.287 N 
ATOM      3  C   UNK A   0      -4.216  -1.821   1.432  0.00  0.00    +0.308 C 
ATOM      4  O   UNK A   0      -3.239  -2.535   1.553  0.00  0.00    -0.252 OA
ATOM      5  N   UNK A   0      -5.452  -2.347   1.542  0.00  0.00    -0.245 N 
ATOM      6  C   UNK A   0      -6.657  -1.513   1.395  0.00  0.00    +0.210 C 
ATOM      7  C   UNK A   0      -7.674  -1.937   2.422  0.00  0.00    +0.206 C 
ATOM      8  N   UNK A   0      -7.705  -3.144   2.891  0.00  0.00    -0.214 NA
ATOM      9  C   UNK A   0      -6.808  -4.097   2.489  0.00  0.00    +0.089 A 
ATOM     10  C   UNK A   0      -5.647  -3.713   1.797  0.00  0.00    +0.064 A 
ATOM     11  C   UNK A   0      -4.731  -4.660   1.387  0.00  0.00    +0.026 A 
ATOM     12  C   UNK A   0      -4.962  -6.000   1.652  0.00  0.00    +0.002 A 
ATOM     13  C   UNK A   0      -6.106  -6.390   2.325  0.00  0.00    +0.002 A 
ATOM     14  C   UNK A   0      -7.031  -5.446   2.753  0.00  0.00    +0.030 A 
ATOM     15  H   TRP A   1      -4.841   0.064   1.090  0.00  0.00    +0.151 HD
BRANCH   7  16
ATOM     16  O   UNK A   0      -8.576  -1.037   2.865  0.00  0.00    -0.494 OA
ATOM     17  H   UNK A   0      -9.192  -1.388   3.522  0.00  0.00    +0.293 HD
ENDBRANCH   7  16
ENDBRANCH   1   2
BRANCH   1  18
ATOM     18  C   TRP A   1      -2.764   1.533   1.406  0.00  0.00    +0.234 C 
ATOM     19  O   TRP A   1      -3.797   2.154   1.275  0.00  0.00    -0.274 OA
ATOM     20  N   TRP A   1      -1.656   2.155   1.855  0.00  0.00    -0.300 N 
ATOM     21  H   TRP A   1      -0.812   1.678   1.892  0.00  0.00    +0.150 HD
BRANCH  20  22
ATOM     22  CA  TRP A   1      -1.726   3.553   2.289  0.00  0.00    +0.190 C 
BRANCH  22  23
ATOM     23  C   TRP A   1      -2.069   3.607   3.756  0.00  0.00    +0.376 C 
ATOM     24  O   TRP A   1      -1.722   2.704   4.497  0.00  0.00    -0.244 OA
ATOM     25  OXT TRP A   1      -2.695   4.554   4.201  0.00  0.00    -0.244 OA
ENDBRANCH  22  23
BRANCH  22  26
ATOM     26  CB  TRP A   1      -0.372   4.227   2.057  0.00  0.00    +0.067 C 
BRANCH  26  27
ATOM     27  CG  TRP A   1      -0.067   4.246   0.582  0.00  0.00    -0.039 C 
ATOM     28  CD2 TRP A   1      -0.319   5.251  -0.288  0.00  0.00    -0.001 A 
ATOM     29  CE3 TRP A   1      -0.930   6.575  -0.127  0.00  0.00    +0.010 A 
ATOM     30  CZ3 TRP A   1      -1.050   7.378  -1.208  0.00  0.00    +0.001 A 
ATOM     31  CH2 TRP A   1      -0.606   6.978  -2.476  0.00  0.00    +0.002 A 
ATOM     32  CZ2 TRP A   1      -0.035   5.777  -2.703  0.00  0.00    +0.026 A 
ATOM     33  CE2 TRP A   1       0.142   4.852  -1.637  0.00  0.00    +0.043 A 
ATOM     34  NE1 TRP A   1       0.659   3.648  -1.603  0.00  0.00    -0.380 N 
ATOM     35  CD1 TRP A   1       0.590   3.148  -0.225  0.00  0.00    +0.144 C 
ATOM     36  HE1 TRP A   1       1.029   3.169  -2.361  0.00  0.00    +0.160 HD
ENDBRANCH  26  27
ENDBRANCH  22  26
ENDBRANCH  20  22
ENDBRANCH   1  18
BRANCH   1  37
ATOM     37  CB  TRP A   1      -2.216  -0.110  -0.368  0.00  0.00    +0.015 C 
ATOM     38  CG2 TRP A   1      -3.242   0.471  -1.343  0.00  0.00    +0.010 C 
BRANCH  37  40
ATOM     39  CD1 TRP A   1      -0.898  -2.150   0.221  0.00  0.00    +0.004 C 
ATOM     40  CG1 TRP A   1      -2.021  -1.599  -0.661  0.00  0.00    +0.002 C 
ENDBRANCH  37  40
ENDBRANCH   1  37
TORSDOF 9
