REMARK  Name = ZINC38546972
REMARK  6 active torsions:
REMARK  status: ('A' for Active; 'I' for Inactive)
REMARK    1  A    between atoms: C_1  and  C_2
REMARK    2  A    between atoms: C_4  and  C_15
REMARK    3  A    between atoms: C_5  and  N_7
REMARK    4  A    between atoms: C_8  and  C_10
REMARK    5  A    between atoms: C_15  and  C_17
REMARK    6  A    between atoms: C_15  and  N_24
REMARK                            x       y       z     vdW  Elec       q    Type
REMARK                         _______ _______ _______ _____ _____    ______ ____
ROOT
ATOM      1  C   UNL     1      -1.917  -3.223  -0.007  0.00  0.00    +0.135 C 
ENDROOT
BRANCH   1   2
ATOM      2  N   UNL     1      -3.112  -2.601  -0.582  0.00  0.00    -0.320 N 
ATOM      3  C   UNL     1      -4.094  -3.392  -1.166  0.00  0.00    +0.097 A 
ATOM      4  C   UNL     1      -3.939  -4.775  -1.196  0.00  0.00    +0.041 A 
ATOM      5  C   UNL     1      -4.924  -5.550  -1.780  0.00  0.00    +0.005 A 
ATOM      6  C   UNL     1      -6.036  -4.914  -2.317  0.00  0.00    +0.018 A 
ATOM      7  C   UNL     1      -6.125  -3.539  -2.253  0.00  0.00    +0.084 A 
ATOM      8  N   UNL     1      -5.172  -2.824  -1.684  0.00  0.00    -0.350 N 
ATOM      9  H   UNL     1      -3.217  -1.637  -0.555  0.00  0.00    +0.148 HD
ATOM     10  H   UNL     1      -5.261  -1.859  -1.649  0.00  0.00    +0.166 HD
ENDBRANCH   1   2
BRANCH   1  11
ATOM     11  C   UNL     1      -2.206  -3.655   1.408  0.00  0.00    -0.020 A 
ATOM     12  C   UNL     1      -2.967  -2.848   2.234  0.00  0.00    +0.006 A 
ATOM     13  C   UNL     1      -3.233  -3.243   3.532  0.00  0.00    +0.003 A 
ATOM     14  C   UNL     1      -2.739  -4.444   4.005  0.00  0.00    +0.038 A 
ATOM     15  C   UNL     1      -1.978  -5.252   3.178  0.00  0.00    +0.124 A 
ATOM     16  C   UNL     1      -1.717  -4.859   1.877  0.00  0.00    +0.044 A 
ATOM     17  F   UNL     1      -1.494  -6.426   3.640  0.00  0.00    -0.205 F 
ENDBRANCH   1  11
BRANCH   1  21
ATOM     18  C   UNL     1      -0.018   1.503   0.010  0.00  0.00    +0.051 C 
ATOM     19  C   UNL     1       0.002  -0.004   0.002  0.00  0.00    -0.011 A 
ATOM     20  C   UNL     1      -1.040  -0.870   0.002  0.00  0.00    +0.018 A 
ATOM     21  C   UNL     1      -0.784  -2.229  -0.007  0.00  0.00    +0.006 A 
ATOM     22  C   UNL     1       0.511  -2.653  -0.015  0.00  0.00    +0.078 A 
ATOM     23  S   UNL     1       1.405  -1.108  -0.018  0.00  0.00    -0.078 S 
BRANCH  22  24
ATOM     24  N   UNL     1       1.010  -3.958  -0.024  0.00  0.00    -0.273 N 
ATOM     25  C   UNL     1       2.341  -4.170  -0.031  0.00  0.00    +0.284 C 
ATOM     26  O   UNL     1       3.108  -3.225  -0.029  0.00  0.00    -0.266 OA
ATOM     27  H   UNL     1       0.398  -4.710  -0.025  0.00  0.00    +0.156 HD
BRANCH  25  28
ATOM     28  C   UNL     1       2.864  -5.540  -0.040  0.00  0.00    +0.189 A 
ATOM     29  C   UNL     1       4.182  -5.895  -0.042  0.00  0.00    +0.054 A 
ATOM     30  C   UNL     1       4.222  -7.298  -0.052  0.00  0.00    +0.042 A 
ATOM     31  C   UNL     1       2.943  -7.732  -0.055  0.00  0.00    +0.196 A 
ATOM     32  O   UNL     1       2.127  -6.670  -0.043  0.00  0.00    -0.458 OA
ENDBRANCH  25  28
ENDBRANCH  22  24
ENDBRANCH   1  21
TORSDOF 5
