REMARK  Name = ZINC39659672
REMARK  6 active torsions:
REMARK  status: ('A' for Active; 'I' for Inactive)
REMARK    1  A    between atoms: C_1  and  C_2
REMARK    2  A    between atoms: C_2  and  C_35
REMARK    3  A    between atoms: C_5  and  C_8
REMARK    4  A    between atoms: C_8  and  N_9
REMARK    5  A    between atoms: C_10  and  C_12
REMARK    6  A    between atoms: C_23  and  C_25
REMARK                            x       y       z     vdW  Elec       q    Type
REMARK                         _______ _______ _______ _____ _____    ______ ____
ROOT
ATOM      1  C   UNL     1       3.640  -2.112   5.165  0.00  0.00    +0.100 C 
ATOM      2  C   UNL     1       3.409  -3.634   5.031  0.00  0.00    +0.121 C 
ATOM      3  N   UNL     1       4.754  -4.232   5.205  0.00  0.00    -0.295 N 
ATOM      4  C   UNL     1       5.381  -3.425   6.278  0.00  0.00    +0.115 C 
ATOM      5  C   UNL     1       4.933  -1.979   5.987  0.00  0.00    -0.004 C 
ATOM      6  C   UNL     1       4.655  -1.240   7.293  0.00  0.00    -0.010 C 
ATOM      7  C   UNL     1       5.966  -1.069   8.066  0.00  0.00    -0.082 C 
ATOM      8  N   UNL     1       6.924  -0.315   7.247  0.00  0.00    +0.379 N 
ATOM      9  C   UNL     1       7.257  -1.077   6.037  0.00  0.00    -0.082 C 
ATOM     10  C   UNL     1       6.000  -1.248   5.179  0.00  0.00    -0.010 C 
ATOM     11  C   UNL     1       5.285  -5.276   4.537  0.00  0.00    +0.265 C 
ATOM     12  O   UNL     1       4.681  -5.776   3.610  0.00  0.00    -0.268 OA
ATOM     13  H   UNL     1       6.518   0.570   6.985  0.00  0.00    -0.086 HD
ATOM     14  H   UNL     1       7.765  -0.151   7.781  0.00  0.00    -0.086 HD
ENDROOT
BRANCH  11  15
ATOM     15  C   UNL     1       6.609  -5.814   4.936  0.00  0.00    +0.126 A 
ATOM     16  C   UNL     1       7.201  -6.821   4.160  0.00  0.00    +0.033 A 
ATOM     17  C   UNL     1       8.419  -7.324   4.515  0.00  0.00    +0.012 A 
ATOM     18  C   UNL     1       9.044  -6.805   5.664  0.00  0.00    +0.000 A 
ATOM     19  C   UNL     1      10.297  -7.276   6.088  0.00  0.00    +0.010 A 
ATOM     20  C   UNL     1      10.872  -6.750   7.204  0.00  0.00    +0.001 A 
ATOM     21  C   UNL     1      10.234  -5.749   7.935  0.00  0.00    +0.002 A 
ATOM     22  C   UNL     1       9.019  -5.269   7.556  0.00  0.00    +0.028 A 
ATOM     23  C   UNL     1       8.392  -5.787   6.406  0.00  0.00    +0.072 A 
ATOM     24  N   UNL     1       7.204  -5.330   6.008  0.00  0.00    -0.242 NA
ENDBRANCH  11  15
BRANCH   1  26
ATOM     25  N   UNL     1       3.428  -0.212   3.595  0.00  0.00    -0.312 N 
ATOM     26  C   UNL     1       3.816  -1.486   3.806  0.00  0.00    +0.218 C 
ATOM     27  O   UNL     1       4.306  -2.128   2.901  0.00  0.00    -0.275 OA
ATOM     28  H   UNL     1       3.036   0.302   4.319  0.00  0.00    +0.149 HD
BRANCH  25  29
ATOM     29  C   UNL     1       3.599   0.397   2.274  0.00  0.00    +0.138 C 
BRANCH  29  34
ATOM     30  C   UNL     1       5.519   4.185   1.978  0.00  0.00    +0.074 C 
ATOM     31  C   UNL     1       4.064   3.933   2.378  0.00  0.00    +0.165 C 
ATOM     32  O   UNL     1       3.241   3.877   1.201  0.00  0.00    -0.347 OA
ATOM     33  C   UNL     1       3.134   2.467   0.890  0.00  0.00    +0.196 C 
ATOM     34  C   UNL     1       3.083   1.837   2.305  0.00  0.00    +0.164 C 
ATOM     35  O   UNL     1       3.965   2.682   3.071  0.00  0.00    -0.342 OA
ATOM     36  C   UNL     1       3.578   5.064   3.288  0.00  0.00    +0.074 C 
ENDBRANCH  29  34
ENDBRANCH  25  29
ENDBRANCH   1  26
TORSDOF 4
