REMARK  Name = ZINC36610070
REMARK  9 active torsions:
REMARK  status: ('A' for Active; 'I' for Inactive)
REMARK    1  A    between atoms: C_1  and  C_2
REMARK    2  A    between atoms: C_7  and  C_8
REMARK    3  A    between atoms: C_8  and  C_10
REMARK    4  A    between atoms: C_8  and  N_19
REMARK    5  A    between atoms: N_12  and  C_13
REMARK    6  A    between atoms: N_19  and  C_20
REMARK    7  A    between atoms: C_26  and  C_28
REMARK    8  A    between atoms: C_29  and  O_35
REMARK    9  A    between atoms: C_33  and  O_34
REMARK                            x       y       z     vdW  Elec       q    Type
REMARK                         _______ _______ _______ _____ _____    ______ ____
ROOT
ATOM      1  N   UNL     1       0.950  -0.438   3.779  0.00  0.00    -0.251 N 
ATOM      2  C   UNL     1       2.172   0.048   4.073  0.00  0.00    +0.259 C 
ATOM      3  O   UNL     1       2.581   1.046   3.511  0.00  0.00    -0.269 OA
ENDROOT
BRANCH   1   4
ATOM      4  C   UNL     1       0.440  -1.527   4.493  0.00  0.00    +0.038 A 
ATOM      5  C   UNL     1       0.401  -2.786   3.908  0.00  0.00    +0.023 A 
ATOM      6  C   UNL     1      -0.103  -3.860   4.615  0.00  0.00    +0.002 A 
ATOM      7  C   UNL     1      -0.569  -3.682   5.905  0.00  0.00    +0.000 A 
ATOM      8  C   UNL     1      -0.532  -2.430   6.490  0.00  0.00    +0.002 A 
ATOM      9  C   UNL     1      -0.024  -1.353   5.790  0.00  0.00    +0.023 A 
ENDBRANCH   1   4
BRANCH   2  10
ATOM     10  C   UNL     1       3.011  -0.628   5.076  0.00  0.00    +0.120 A 
ATOM     11  C   UNL     1       3.839  -1.696   4.699  0.00  0.00    +0.133 A 
ATOM     12  C   UNL     1       4.625  -2.326   5.650  0.00  0.00    +0.046 A 
ATOM     13  C   UNL     1       4.596  -1.905   6.967  0.00  0.00    +0.007 A 
ATOM     14  C   UNL     1       3.784  -0.853   7.349  0.00  0.00    +0.046 A 
ATOM     15  C   UNL     1       2.994  -0.206   6.413  0.00  0.00    +0.133 A 
BRANCH  15  16
ATOM     16  O   UNL     1       2.202   0.829   6.790  0.00  0.00    -0.506 OA
ATOM     17  H   UNL     1       1.346   0.559   7.150  0.00  0.00    +0.292 HD
ENDBRANCH  15  16
BRANCH  11  18
ATOM     18  O   UNL     1       3.869  -2.112   3.408  0.00  0.00    -0.506 OA
ATOM     19  H   UNL     1       4.533  -1.665   2.866  0.00  0.00    +0.292 HD
ENDBRANCH  11  18
ENDBRANCH   2  10
BRANCH   1  20
ATOM     20  C   UNL     1       0.156   0.174   2.711  0.00  0.00    +0.198 C 
BRANCH  20  27
ATOM     21  C   UNL     1       2.101  -0.824   0.822  0.00  0.00    +0.044 C 
ATOM     22  C   UNL     1       0.692  -1.359   0.806  0.00  0.00    -0.045 A 
ATOM     23  C   UNL     1       0.332  -2.331  -0.108  0.00  0.00    +0.004 A 
ATOM     24  C   UNL     1      -0.960  -2.821  -0.123  0.00  0.00    +0.000 A 
ATOM     25  C   UNL     1      -1.893  -2.340   0.778  0.00  0.00    +0.000 A 
ATOM     26  C   UNL     1      -1.532  -1.369   1.693  0.00  0.00    +0.006 A 
ATOM     27  C   UNL     1      -0.238  -0.881   1.710  0.00  0.00    -0.015 A 
ENDBRANCH  20  27
BRANCH  20  28
ATOM     28  C   UNL     1      -1.084   0.796   3.300  0.00  0.00    +0.239 C 
ATOM     29  O   UNL     1      -1.452   0.479   4.411  0.00  0.00    -0.273 OA
ATOM     30  N   UNL     1      -1.784   1.704   2.592  0.00  0.00    -0.311 N 
ATOM     31  H   UNL     1      -1.529   1.908   1.678  0.00  0.00    +0.149 HD
BRANCH  30  32
ATOM     32  C   UNL     1      -2.931   2.382   3.201  0.00  0.00    +0.073 C 
ATOM     33  C   UNL     1      -4.180   1.513   3.044  0.00  0.00    +0.022 C 
ATOM     34  C   UNL     1      -5.378   2.222   3.681  0.00  0.00    +0.002 C 
ATOM     35  C   UNL     1      -5.602   3.567   2.987  0.00  0.00    +0.000 C 
ATOM     36  C   UNL     1      -4.353   4.436   3.144  0.00  0.00    +0.002 C 
ATOM     37  C   UNL     1      -3.155   3.728   2.508  0.00  0.00    +0.022 C 
ENDBRANCH  30  32
ENDBRANCH  20  28
ENDBRANCH   1  20
TORSDOF 8
