REMARK  Name = ZINC40675184
REMARK  8 active torsions:
REMARK  status: ('A' for Active; 'I' for Inactive)
REMARK    1  A    between atoms: C_1  and  C_2
REMARK    2  A    between atoms: C_5  and  C_18
REMARK    3  A    between atoms: C_7  and  S_8
REMARK    4  A    between atoms: S_8  and  N_11
REMARK    5  A    between atoms: N_11  and  C_12
REMARK    6  A    between atoms: C_12  and  C_13
REMARK    7  A    between atoms: C_12  and  C_14
REMARK    8  A    between atoms: C_12  and  C_15
REMARK                            x       y       z     vdW  Elec       q    Type
REMARK                         _______ _______ _______ _____ _____    ______ ____
ROOT
ATOM      1  S   UNL     1       0.240   0.825   2.398  0.00  0.00    +0.060 S 
ATOM      2  O   UNL     1      -0.636   1.938   2.514  0.00  0.00    -0.153 OA
ATOM      3  O   UNL     1       0.188  -0.282   3.288  0.00  0.00    -0.153 OA
ENDROOT
BRANCH   1  10
ATOM      4  C   UNL     1       0.378   2.486  -0.120  0.00  0.00    +0.049 C 
ATOM      5  C   UNL     1       0.101   1.019  -0.321  0.00  0.00    +0.011 A 
ATOM      6  C   UNL     1      -0.066   0.517  -1.602  0.00  0.00    +0.129 A 
ATOM      7  C   UNL     1      -0.320  -0.828  -1.792  0.00  0.00    +0.053 A 
ATOM      8  C   UNL     1      -0.408  -1.681  -0.688  0.00  0.00    +0.068 A 
ATOM      9  C   UNL     1      -0.238  -1.166   0.599  0.00  0.00    +0.044 A 
ATOM     10  C   UNL     1       0.020   0.177   0.774  0.00  0.00    +0.112 A 
ATOM     11  F   UNL     1       0.020   1.344  -2.667  0.00  0.00    -0.205 F 
BRANCH   8  12
ATOM     12  C   UNL     1      -0.679  -3.118  -0.883  0.00  0.00    +0.387 C 
ATOM     13  O   UNL     1      -0.828  -3.565  -2.011  0.00  0.00    -0.241 OA
ATOM     14  O   UNL     1      -0.756  -3.862   0.085  0.00  0.00    -0.241 OA
ENDBRANCH   8  12
ENDBRANCH   1  10
BRANCH   1  15
ATOM     15  N   UNL     1       1.781   1.426   2.480  0.00  0.00    -0.176 NA
ATOM     16  H   UNL     1       1.925   2.380   2.583  0.00  0.00    +0.149 HD
BRANCH  15  17
ATOM     17  C   UNL     1       2.927   0.517   2.399  0.00  0.00    +0.110 C 
ATOM     18  C   UNL     1       2.949  -0.387   3.633  0.00  0.00    +0.039 C 
ATOM     19  C   UNL     1       2.808  -0.342   1.139  0.00  0.00    +0.039 C 
BRANCH  17  20
ATOM     20  C   UNL     1       4.202   1.320   2.342  0.00  0.00    +0.232 C 
ATOM     21  O   UNL     1       5.205   0.903   2.881  0.00  0.00    -0.274 OA
ATOM     22  N   UNL     1       4.226   2.500   1.691  0.00  0.00    -0.328 N 
ATOM     23  H   UNL     1       3.424   2.833   1.260  0.00  0.00    +0.145 HD
ATOM     24  H   UNL     1       5.047   3.016   1.654  0.00  0.00    +0.145 HD
ENDBRANCH  17  20
ENDBRANCH  15  17
ENDBRANCH   1  15
TORSDOF 5
