REMARK  Name = ZINC60274816
REMARK  4 active torsions:
REMARK  status: ('A' for Active; 'I' for Inactive)
REMARK    1  A    between atoms: C_3  and  N_17
REMARK    2  A    between atoms: C_6  and  N_7
REMARK    3  A    between atoms: N_17  and  S_18
REMARK    4  A    between atoms: S_18  and  C_21
REMARK                            x       y       z     vdW  Elec       q    Type
REMARK                         _______ _______ _______ _____ _____    ______ ____
ROOT
ATOM      1  C   UNL     1      -0.203   1.865  -0.141  0.00  0.00    +0.025 A 
ATOM      2  C   UNL     1       1.067   2.405  -0.091  0.00  0.00    +0.026 A 
ATOM      3  C   UNL     1       2.169   1.574   0.066  0.00  0.00    +0.048 A 
ATOM      4  C   UNL     1       1.992   0.200   0.172  0.00  0.00    +0.026 A 
ATOM      5  C   UNL     1       0.722  -0.339   0.122  0.00  0.00    +0.025 A 
ATOM      6  C   UNL     1      -0.379   0.492  -0.034  0.00  0.00    +0.035 A 
ENDROOT
BRANCH   6   7
ATOM      7  N   UNL     1      -1.669  -0.055  -0.085  0.00  0.00    -0.269 N 
ATOM      8  C   UNL     1      -2.612   0.513  -0.862  0.00  0.00    +0.306 C 
ATOM      9  O   UNL     1      -2.320   1.440  -1.593  0.00  0.00    -0.252 OA
ATOM     10  N   UNL     1      -3.879   0.055  -0.828  0.00  0.00    -0.285 N 
ATOM     11  C   UNL     1      -4.195  -1.045   0.057  0.00  0.00    +0.109 C 
ATOM     12  C   UNL     1      -3.976  -2.387  -0.684  0.00  0.00    +0.019 C 
ATOM     13  C   UNL     1      -5.018  -2.584  -1.704  0.00  0.00    +0.002 C 
ATOM     14  C   UNL     1      -5.019  -1.536  -2.812  0.00  0.00    +0.002 C 
ATOM     15  C   UNL     1      -5.815  -0.335  -2.365  0.00  0.00    +0.019 C 
ATOM     16  C   UNL     1      -4.888   0.699  -1.691  0.00  0.00    +0.109 C 
ATOM     17  H   UNL     1      -1.882  -0.843   0.440  0.00  0.00    +0.156 HD
ENDBRANCH   6   7
BRANCH   3  18
ATOM     18  N   UNL     1       3.456   2.120   0.116  0.00  0.00    -0.216 N 
ATOM     19  H   UNL     1       3.727   2.783  -0.538  0.00  0.00    +0.174 HD
BRANCH  18  20
ATOM     20  S   UNL     1       4.516   1.634   1.291  0.00  0.00    +0.072 S 
ATOM     21  O   UNL     1       4.514   0.213   1.278  0.00  0.00    -0.150 OA
ATOM     22  O   UNL     1       5.702   2.395   1.108  0.00  0.00    -0.150 OA
BRANCH  20  23
ATOM     23  C   UNL     1       3.837   2.124   2.841  0.00  0.00    +0.109 A 
ATOM     24  C   UNL     1       4.050   3.405   3.315  0.00  0.00    +0.030 A 
ATOM     25  C   UNL     1       3.517   3.790   4.530  0.00  0.00    +0.017 A 
ATOM     26  C   UNL     1       2.770   2.894   5.273  0.00  0.00    +0.018 A 
ATOM     27  C   UNL     1       2.557   1.612   4.799  0.00  0.00    +0.017 A 
ATOM     28  C   UNL     1       3.086   1.229   3.581  0.00  0.00    +0.030 A 
ATOM     29 BR   UNL     1       2.041   3.420   6.937  0.00  0.00    -0.050 Br
ENDBRANCH  20  23
ENDBRANCH  18  20
ENDBRANCH   3  18
TORSDOF 4
