REMARK  Name = ZINC14612462
REMARK  12 active torsions:
REMARK  status: ('A' for Active; 'I' for Inactive)
REMARK    1  A    between atoms: C_1  and  N_2
REMARK    2  A    between atoms: C_9  and  O_26
REMARK    3  A    between atoms: C_11  and  C_12
REMARK    4  A    between atoms: C_12  and  C_13
REMARK    5  A    between atoms: C_12  and  O_25
REMARK    6  A    between atoms: C_16  and  O_23
REMARK    7  A    between atoms: C_17  and  O_21
REMARK    8  A    between atoms: C_18  and  C_19
REMARK    9  A    between atoms: C_19  and  O_20
REMARK   10  A    between atoms: O_21  and  C_22
REMARK   11  A    between atoms: O_23  and  C_24
REMARK   12  A    between atoms: O_26  and  C_27
REMARK                            x       y       z     vdW  Elec       q    Type
REMARK                         _______ _______ _______ _____ _____    ______ ____
ROOT
ATOM      1  C   UNL     1       0.488   1.818   0.681  0.00  0.00    -0.095 C 
ATOM      2  N   UNL     1       0.437   0.416   0.244  0.00  0.00    +0.385 N 
ATOM      3  C   UNL     1       1.440   0.192  -0.809  0.00  0.00    -0.074 C 
ATOM      4  C   UNL     1       1.168  -1.165  -1.459  0.00  0.00    +0.017 C 
ATOM      5  C   UNL     1       1.045  -2.226  -0.395  0.00  0.00    -0.040 A 
ATOM      6  C   UNL     1       1.145  -3.556  -0.770  0.00  0.00    +0.053 A 
ATOM      7  C   UNL     1       1.034  -4.563   0.174  0.00  0.00    +0.170 A 
ATOM      8  C   UNL     1       0.821  -4.235   1.509  0.00  0.00    +0.208 A 
ATOM      9  C   UNL     1       0.723  -2.902   1.882  0.00  0.00    +0.167 A 
ATOM     10  C   UNL     1       0.837  -1.895   0.928  0.00  0.00    -0.010 A 
ATOM     11  C   UNL     1       0.734  -0.462   1.379  0.00  0.00    -0.000 C 
ATOM     12  O   UNL     1       0.747  -5.389   2.236  0.00  0.00    -0.449 OA
ATOM     13  C   UNL     1       0.510  -6.434   1.274  0.00  0.00    +0.467 C 
ATOM     14  O   UNL     1       1.095  -5.922   0.063  0.00  0.00    -0.452 OA
ATOM     15  H   UNL     1      -0.483   0.207  -0.114  0.00  0.00    -0.081 HD
ENDROOT
BRANCH   9  16
ATOM     16  O   UNL     1       0.515  -2.577   3.186  0.00  0.00    -0.491 OA
ATOM     17  C   UNL     1       1.661  -2.553   4.040  0.00  0.00    +0.277 C 
ENDBRANCH   9  16
BRANCH  11  18
ATOM     18  C   UNL     1      -0.385  -0.340   2.417  0.00  0.00    +0.136 C 
BRANCH  18  19
ATOM     19  C   UNL     1      -0.911   1.072   2.424  0.00  0.00    -0.011 A 
ATOM     20  C   UNL     1      -0.167   2.083   3.001  0.00  0.00    +0.010 A 
ATOM     21  C   UNL     1      -0.645   3.380   3.010  0.00  0.00    +0.050 A 
ATOM     22  C   UNL     1      -1.874   3.668   2.439  0.00  0.00    +0.162 A 
ATOM     23  C   UNL     1      -2.624   2.651   1.857  0.00  0.00    +0.167 A 
ATOM     24  C   UNL     1      -2.136   1.354   1.847  0.00  0.00    +0.029 A 
BRANCH  23  25
ATOM     25  O   UNL     1      -3.830   2.929   1.294  0.00  0.00    -0.491 OA
ATOM     26  C   UNL     1      -3.835   3.280  -0.091  0.00  0.00    +0.277 C 
ENDBRANCH  23  25
BRANCH  22  27
ATOM     27  O   UNL     1      -2.347   4.943   2.447  0.00  0.00    -0.491 OA
ATOM     28  C   UNL     1      -1.524   5.936   3.062  0.00  0.00    +0.277 C 
ENDBRANCH  22  27
BRANCH  24  29
ATOM     29  C   UNL     1      -2.942   0.250   1.213  0.00  0.00    +0.195 C 
BRANCH  29  30
ATOM     30  O   UNL     1      -3.894  -0.247   2.156  0.00  0.00    -0.390 OA
ATOM     31  H   UNL     1      -4.450  -0.961   1.815  0.00  0.00    +0.210 HD
ENDBRANCH  29  30
ENDBRANCH  24  29
ENDBRANCH  18  19
BRANCH  18  32
ATOM     32  O   UNL     1       0.129  -0.663   3.711  0.00  0.00    -0.388 OA
ATOM     33  H   UNL     1       0.786  -0.036   4.041  0.00  0.00    +0.210 HD
ENDBRANCH  18  32
ENDBRANCH  11  18
TORSDOF 8
