REMARK  Name = ZINC59170667
REMARK  5 active torsions:
REMARK  status: ('A' for Active; 'I' for Inactive)
REMARK    1  A    between atoms: C_8  and  C_22
REMARK    2  A    between atoms: N_10  and  C_11
REMARK    3  A    between atoms: C_14  and  S_17
REMARK    4  A    between atoms: S_17  and  N_20
REMARK    5  A    between atoms: N_24  and  C_25
REMARK                            x       y       z     vdW  Elec       q    Type
REMARK                         _______ _______ _______ _____ _____    ______ ____
ROOT
ATOM      1  C   UNL     1       0.082   1.384  -0.660  0.00  0.00    +0.001 A 
ATOM      2  C   UNL     1       0.912   2.075   0.211  0.00  0.00    +0.004 A 
ATOM      3  C   UNL     1       2.080   1.503   0.673  0.00  0.00    +0.047 A 
ATOM      4  C   UNL     1       2.429   0.224   0.266  0.00  0.00    +0.137 A 
ATOM      5  C   UNL     1       1.584  -0.478  -0.615  0.00  0.00    +0.018 A 
ATOM      6  C   UNL     1       0.405   0.122  -1.073  0.00  0.00    +0.011 A 
ATOM      7  C   UNL     1       1.949  -1.832  -1.036  0.00  0.00    +0.030 A 
ATOM      8  C   UNL     1       2.970  -2.463  -0.338  0.00  0.00    +0.098 A 
ATOM      9  C   UNL     1       3.596  -1.709   0.767  0.00  0.00    +0.212 A 
ATOM     10  N   UNL     1       4.158  -2.332   1.780  0.00  0.00    -0.325 N 
ATOM     11  O   UNL     1       3.574  -0.353   0.705  0.00  0.00    -0.439 OA
ATOM     12  H   UNL     1       4.014  -3.283   1.905  0.00  0.00    +0.169 HD
ENDROOT
BRANCH  10  13
ATOM     13  C   UNL     1       4.945  -1.639   2.658  0.00  0.00    +0.042 A 
ATOM     14  C   UNL     1       5.892  -0.728   2.183  0.00  0.00    +0.027 A 
ATOM     15  C   UNL     1       6.682  -0.033   3.075  0.00  0.00    +0.030 A 
ATOM     16  C   UNL     1       6.538  -0.235   4.436  0.00  0.00    +0.105 A 
ATOM     17  C   UNL     1       5.602  -1.136   4.913  0.00  0.00    +0.030 A 
ATOM     18  C   UNL     1       4.801  -1.834   4.034  0.00  0.00    +0.027 A 
BRANCH  16  19
ATOM     19  S   UNL     1       7.551   0.658   5.567  0.00  0.00    +0.056 S 
ATOM     20  O   UNL     1       7.601  -0.110   6.762  0.00  0.00    -0.153 OA
ATOM     21  O   UNL     1       8.722   1.034   4.854  0.00  0.00    -0.153 OA
BRANCH  19  22
ATOM     22  N   UNL     1       6.753   2.060   5.939  0.00  0.00    -0.204 NA
ATOM     23  H   UNL     1       5.887   2.245   5.541  0.00  0.00    +0.144 HD
ATOM     24  H   UNL     1       7.150   2.697   6.553  0.00  0.00    +0.144 HD
ENDBRANCH  19  22
ENDBRANCH  16  19
ENDBRANCH  10  13
BRANCH   8  25
ATOM     25  C   UNL     1       3.410  -3.825  -0.684  0.00  0.00    +0.253 C 
ATOM     26  O   UNL     1       2.802  -4.467  -1.520  0.00  0.00    -0.270 OA
ATOM     27  N   UNL     1       4.487  -4.361  -0.076  0.00  0.00    -0.281 N 
ATOM     28  H   UNL     1       4.953  -3.862   0.614  0.00  0.00    +0.155 HD
BRANCH  27  29
ATOM     29  C   UNL     1       4.934  -5.636  -0.440  0.00  0.00    +0.034 A 
ATOM     30  C   UNL     1       4.029  -6.588  -0.890  0.00  0.00    +0.026 A 
ATOM     31  C   UNL     1       4.472  -7.846  -1.249  0.00  0.00    +0.040 A 
ATOM     32  C   UNL     1       5.818  -8.158  -1.159  0.00  0.00    +0.124 A 
ATOM     33  C   UNL     1       6.723  -7.211  -0.710  0.00  0.00    +0.040 A 
ATOM     34  C   UNL     1       6.285  -5.950  -0.356  0.00  0.00    +0.026 A 
ATOM     35  F   UNL     1       6.250  -9.389  -1.511  0.00  0.00    -0.205 F 
ENDBRANCH  27  29
ENDBRANCH   8  25
TORSDOF 5
