REMARK  Name = ZINC08769371
REMARK  12 active torsions:
REMARK  status: ('A' for Active; 'I' for Inactive)
REMARK    1  A    between atoms: C_1  and  C_2
REMARK    2  A    between atoms: C_5  and  C_8
REMARK    3  A    between atoms: C_8  and  C_9
REMARK    4  A    between atoms: N_15  and  C_18
REMARK    5  A    between atoms: C_21  and  O_24
REMARK    6  A    between atoms: O_24  and  C_25
REMARK    7  A    between atoms: N_26  and  C_27
REMARK    8  A    between atoms: C_27  and  C_28
REMARK    9  A    between atoms: C_28  and  C_29
REMARK   10  A    between atoms: C_30  and  C_41
REMARK   11  A    between atoms: C_36  and  O_39
REMARK   12  A    between atoms: O_39  and  C_40
REMARK                            x       y       z     vdW  Elec       q    Type
REMARK                         _______ _______ _______ _____ _____    ______ ____
ROOT
ATOM      1  C   UNL     1      -2.925   1.608   5.332  0.00  0.00    +0.064 C 
ATOM      2  N   UNL     1      -1.969   1.945   6.245  0.00  0.00    -0.286 NA
ENDROOT
BRANCH   1   3
ATOM      3  C   UNL     1      -3.972   2.492   5.058  0.00  0.00    +0.210 C 
ATOM      4  C   UNL     1      -4.171   3.714   5.851  0.00  0.00    +0.238 C 
ATOM      5  O   UNL     1      -3.424   3.990   6.771  0.00  0.00    -0.274 OA
ATOM      6  N   UNL     1      -5.199   4.525   5.527  0.00  0.00    -0.238 N 
ATOM      7  C   UNL     1      -6.033   4.230   4.520  0.00  0.00    +0.319 C 
ATOM      8  O   UNL     1      -6.944   4.998   4.282  0.00  0.00    -0.251 OA
ATOM      9  N   UNL     1      -5.913   3.131   3.761  0.00  0.00    -0.193 N 
ATOM     10  C   UNL     1      -4.926   2.236   3.969  0.00  0.00    +0.245 C 
ATOM     11  O   UNL     1      -4.827   1.242   3.273  0.00  0.00    -0.274 OA
ATOM     12  H   UNL     1      -5.341   5.337   6.038  0.00  0.00    +0.159 HD
BRANCH   9  13
ATOM     13  C   UNL     1      -6.835   2.907   2.728  0.00  0.00    +0.046 A 
ATOM     14  C   UNL     1      -6.612   3.448   1.469  0.00  0.00    +0.027 A 
ATOM     15  C   UNL     1      -7.517   3.222   0.450  0.00  0.00    +0.047 A 
ATOM     16  C   UNL     1      -8.655   2.466   0.689  0.00  0.00    +0.120 A 
ATOM     17  C   UNL     1      -8.882   1.930   1.948  0.00  0.00    +0.047 A 
ATOM     18  C   UNL     1      -7.974   2.150   2.965  0.00  0.00    +0.027 A 
BRANCH  16  19
ATOM     19  O   UNL     1      -9.549   2.249  -0.313  0.00  0.00    -0.495 OA
ATOM     20  C   UNL     1      -9.253   2.830  -1.584  0.00  0.00    +0.277 C 
ENDBRANCH  16  19
ENDBRANCH   9  13
ENDBRANCH   1   3
BRANCH   1  25
ATOM     21  C   UNL     1      -2.645  -3.452   2.613  0.00  0.00    +0.044 C 
ATOM     22  C   UNL     1      -2.718  -2.126   3.325  0.00  0.00    -0.050 A 
ATOM     23  C   UNL     1      -1.668  -1.230   3.224  0.00  0.00    +0.004 A 
ATOM     24  C   UNL     1      -1.730  -0.013   3.868  0.00  0.00    +0.010 A 
ATOM     25  C   UNL     1      -2.853   0.311   4.635  0.00  0.00    -0.003 A 
ATOM     26  C   UNL     1      -3.908  -0.601   4.737  0.00  0.00    +0.010 A 
ATOM     27  C   UNL     1      -3.834  -1.812   4.082  0.00  0.00    +0.004 A 
ENDBRANCH   1  25
BRANCH   2  28
ATOM     28  C   UNL     1      -0.871   1.019   6.532  0.00  0.00    +0.146 C 
BRANCH  28  29
ATOM     29  C   UNL     1       0.001   1.592   7.651  0.00  0.00    +0.060 C 
BRANCH  29  30
ATOM     30  C   UNL     1       1.130   0.639   7.947  0.00  0.00    -0.018 A 
ATOM     31  C   UNL     1       1.117  -0.362   8.841  0.00  0.00    +0.017 A 
ATOM     32  N   UNL     1       2.319  -1.013   8.830  0.00  0.00    -0.358 N 
ATOM     33  H   UNL     1       2.547  -1.773   9.390  0.00  0.00    +0.166 HD
ATOM     34  C   UNL     1       3.162  -0.427   7.909  0.00  0.00    +0.047 A 
ATOM     35  C   UNL     1       2.453   0.633   7.316  0.00  0.00    +0.007 A 
ATOM     36  C   UNL     1       3.061   1.417   6.334  0.00  0.00    +0.056 A 
ATOM     37  C   UNL     1       4.359   1.143   5.950  0.00  0.00    +0.121 A 
ATOM     38  C   UNL     1       5.058   0.093   6.539  0.00  0.00    +0.047 A 
ATOM     39  C   UNL     1       4.468  -0.686   7.509  0.00  0.00    +0.030 A 
ATOM     40  C   UNL     1      -0.051  -0.717   9.725  0.00  0.00    +0.063 C 
BRANCH  37  41
ATOM     41  O   UNL     1       4.957   1.903   4.994  0.00  0.00    -0.495 OA
ATOM     42  C   UNL     1       6.301   1.566   4.644  0.00  0.00    +0.277 C 
ENDBRANCH  37  41
ENDBRANCH  29  30
ENDBRANCH  28  29
ENDBRANCH   2  28
TORSDOF 8
