REMARK  Name = ZINC40825654
REMARK  11 active torsions:
REMARK  status: ('A' for Active; 'I' for Inactive)
REMARK    1  A    between atoms: C_1  and  C_2
REMARK    2  A    between atoms: C_2  and  O_3
REMARK    3  A    between atoms: O_3  and  C_4
REMARK    4  A    between atoms: N_6  and  N_7
REMARK    5  A    between atoms: C_14  and  C_30
REMARK    6  A    between atoms: C_15  and  C_17
REMARK    7  A    between atoms: N_19  and  C_20
REMARK    8  A    between atoms: C_22  and  C_28
REMARK    9  A    between atoms: C_22  and  C_29
REMARK   10  A    between atoms: C_24  and  C_26
REMARK   11  A    between atoms: C_24  and  C_27
REMARK                            x       y       z     vdW  Elec       q    Type
REMARK                         _______ _______ _______ _____ _____    ______ ____
ROOT
ATOM      1  N   UNL     1      -3.774  -1.466   0.424  0.00  0.00    -0.182 NA
ATOM      2  C   UNL     1      -4.968  -1.966   0.351  0.00  0.00    +0.070 C 
ATOM      3  C   UNL     1      -5.222  -3.464   0.260  0.00  0.00    +0.058 C 
ATOM      4  C   UNL     1      -6.327  -3.701  -0.776  0.00  0.00    +0.014 C 
ATOM      5  C   UNL     1      -7.647  -3.082  -0.309  0.00  0.00    +0.075 C 
ATOM      6  C   UNL     1      -7.423  -1.634   0.048  0.00  0.00    +0.115 A 
ATOM      7  C   UNL     1      -6.184  -1.122   0.356  0.00  0.00    +0.042 A 
ATOM      8  C   UNL     1      -6.348   0.240   0.637  0.00  0.00    +0.009 A 
ATOM      9  C   UNL     1      -7.683   0.501   0.495  0.00  0.00    +0.193 A 
ATOM     10  O   UNL     1      -8.310  -0.645   0.134  0.00  0.00    -0.454 OA
ATOM     11  C   UNL     1      -5.271   1.222   1.018  0.00  0.00    +0.048 C 
ENDROOT
BRANCH   1  14
ATOM     12  C   UNL     1      -1.417  -1.794   0.492  0.00  0.00    +0.420 C 
ATOM     13  O   UNL     1      -0.449  -2.529   0.484  0.00  0.00    -0.225 OA
ATOM     14  N   UNL     1      -2.658  -2.314   0.415  0.00  0.00    -0.172 N 
ATOM     15  H   UNL     1      -2.779  -3.274   0.354  0.00  0.00    +0.181 HD
BRANCH  12  16
ATOM     16  O   UNL     1      -1.249  -0.461   0.577  0.00  0.00    -0.450 OA
BRANCH  16  18
ATOM     17  C   UNL     1       0.085   1.548   0.745  0.00  0.00    +0.048 C 
ATOM     18  C   UNL     1       0.095   0.021   0.655  0.00  0.00    +0.230 C 
ENDBRANCH  16  18
ENDBRANCH  12  16
ENDBRANCH   1  14
BRANCH   9  19
ATOM     19  C   UNL     1      -8.327   1.805   0.691  0.00  0.00    +0.280 C 
ATOM     20  O   UNL     1      -7.659   2.772   1.007  0.00  0.00    -0.267 OA
ATOM     21  N   UNL     1      -9.658   1.932   0.520  0.00  0.00    -0.306 N 
ATOM     22  H   UNL     1     -10.190   1.161   0.268  0.00  0.00    +0.149 HD
BRANCH  21  23
ATOM     23  C   UNL     1     -10.302   3.237   0.716  0.00  0.00    +0.071 C 
ATOM     24  C   UNL     1     -10.658   3.405   2.194  0.00  0.00    +0.009 C 
ATOM     25  C   UNL     1     -11.341   4.754   2.412  0.00  0.00    -0.072 C 
ATOM     26  N   UNL     1     -12.490   4.935   1.538  0.00  0.00    +0.386 N 
ATOM     27  C   UNL     1     -12.326   4.606   0.131  0.00  0.00    -0.072 C 
ATOM     28  C   UNL     1     -11.595   3.287  -0.097  0.00  0.00    +0.009 C 
ATOM     29  C   UNL     1     -11.627   5.731  -0.636  0.00  0.00    -0.010 C 
ATOM     30  C   UNL     1     -13.741   4.457  -0.479  0.00  0.00    -0.010 C 
ATOM     31  C   UNL     1     -10.327   5.889   2.272  0.00  0.00    -0.010 C 
ATOM     32  C   UNL     1     -11.856   4.777   3.870  0.00  0.00    -0.010 C 
ATOM     33  H   UNL     1     -13.266   4.381   1.909  0.00  0.00    -0.084 HD
ATOM     34  H   UNL     1     -12.797   5.908   1.608  0.00  0.00    -0.084 HD
ENDBRANCH  21  23
ENDBRANCH   9  19
TORSDOF 5
