REMARK  Name = ZINC64900295
REMARK  7 active torsions:
REMARK  status: ('A' for Active; 'I' for Inactive)
REMARK    1  A    between atoms: C_1  and  C_2
REMARK    2  A    between atoms: C_2  and  C_3
REMARK    3  A    between atoms: C_6  and  C_9
REMARK    4  A    between atoms: N_11  and  C_12
REMARK    5  A    between atoms: C_13  and  C_17
REMARK    6  A    between atoms: N_19  and  N_20
REMARK    7  A    between atoms: N_23  and  C_24
REMARK                            x       y       z     vdW  Elec       q    Type
REMARK                         _______ _______ _______ _____ _____    ______ ____
ROOT
ATOM      1  C   UNL     1       4.675  -2.519  -5.851  0.00  0.00    +0.084 A 
ATOM      2  C   UNL     1       6.025  -2.794  -6.012  0.00  0.00    +0.067 A 
ATOM      3  C   UNL     1       6.440  -3.251  -7.318  0.00  0.00    +0.022 A 
ATOM      4  C   UNL     1       5.465  -3.360  -8.239  0.00  0.00    +0.048 A 
ATOM      5  S   UNL     1       4.006  -2.859  -7.352  0.00  0.00    -0.081 S 
ENDROOT
BRANCH   1   8
ATOM      6  C   UNL     1       2.695  -1.860  -4.732  0.00  0.00    +0.249 C 
ATOM      7  O   UNL     1       2.064  -2.061  -5.751  0.00  0.00    -0.270 OA
ATOM      8  N   UNL     1       4.026  -2.071  -4.711  0.00  0.00    -0.275 N 
ATOM      9  H   UNL     1       4.530  -1.911  -3.898  0.00  0.00    +0.156 HD
BRANCH   6  13
ATOM     10  C   UNL     1       0.707  -0.490  -1.238  0.00  0.00    -0.048 A 
ATOM     11  C   UNL     1      -0.014  -0.718  -2.396  0.00  0.00    +0.004 A 
ATOM     12  C   UNL     1       0.625  -1.163  -3.535  0.00  0.00    +0.013 A 
ATOM     13  C   UNL     1       2.004  -1.383  -3.516  0.00  0.00    +0.037 A 
ATOM     14  C   UNL     1       2.726  -1.151  -2.344  0.00  0.00    +0.013 A 
ATOM     15  C   UNL     1       2.075  -0.701  -1.214  0.00  0.00    +0.004 A 
BRANCH  10  17
ATOM     16  C   UNL     1      -0.019   1.526   0.010  0.00  0.00    +0.009 C 
ATOM     17  C   UNL     1       0.002  -0.004   0.002  0.00  0.00    +0.032 C 
ENDBRANCH  10  17
ENDBRANCH   6  13
ENDBRANCH   1   8
BRANCH   2  18
ATOM     18  C   UNL     1       6.982  -2.628  -4.913  0.00  0.00    +0.263 C 
ATOM     19  O   UNL     1       6.598  -2.241  -3.825  0.00  0.00    -0.269 OA
ATOM     20  N   UNL     1       8.286  -2.906  -5.107  0.00  0.00    -0.229 N 
ATOM     21  H   UNL     1       8.592  -3.215  -5.974  0.00  0.00    +0.173 HD
BRANCH  20  22
ATOM     22  N   UNL     1       9.200  -2.748  -4.058  0.00  0.00    -0.218 N 
ATOM     23  C   UNL     1      10.505  -3.025  -4.252  0.00  0.00    +0.316 C 
ATOM     24  O   UNL     1      11.298  -2.888  -3.341  0.00  0.00    -0.251 OA
ATOM     25  N   UNL     1      10.930  -3.455  -5.457  0.00  0.00    -0.295 N 
ATOM     26  H   UNL     1       8.894  -2.439  -3.191  0.00  0.00    +0.174 HD
ATOM     27  H   UNL     1      10.297  -3.564  -6.184  0.00  0.00    +0.151 HD
BRANCH  25  28
ATOM     28  C   UNL     1      12.348  -3.756  -5.668  0.00  0.00    +0.075 C 
ATOM     29  C   UNL     1      12.989  -3.260  -6.966  0.00  0.00    +0.024 C 
ATOM     30  C   UNL     1      12.701  -4.751  -6.776  0.00  0.00    +0.024 C 
ENDBRANCH  25  28
ENDBRANCH  20  22
ENDBRANCH   2  18
TORSDOF 6
