REMARK  Name = ZINC09595103
REMARK  17 active torsions:
REMARK  status: ('A' for Active; 'I' for Inactive)
REMARK    1  A    between atoms: C_1  and  C_2
REMARK    2  A    between atoms: C_4  and  C_32
REMARK    3  A    between atoms: C_5  and  O_9
REMARK    4  A    between atoms: C_6  and  C_8
REMARK    5  A    between atoms: O_9  and  C_10
REMARK    6  A    between atoms: C_10  and  C_11
REMARK    7  A    between atoms: C_11  and  C_13
REMARK    8  A    between atoms: C_11  and  O_31
REMARK    9  A    between atoms: C_13  and  N_65
REMARK   10  A    between atoms: C_14  and  C_15
REMARK   11  A    between atoms: C_14  and  N_65
REMARK   12  A    between atoms: C_15  and  O_16
REMARK   13  A    between atoms: C_17  and  C_18
REMARK   14  A    between atoms: C_17  and  N_65
REMARK   15  A    between atoms: C_18  and  C_20
REMARK   16  A    between atoms: C_18  and  O_30
REMARK   17  A    between atoms: C_20  and  N_21
REMARK                            x       y       z     vdW  Elec       q    Type
REMARK                         _______ _______ _______ _____ _____    ______ ____
ROOT
ATOM      1  N   UNL     1       0.078   1.308  -2.428  0.00  0.00    +0.385 N 
ATOM      2  H   UNL     1       0.174   0.315  -2.185  0.00  0.00    -0.082 HD
ENDROOT
BRANCH   1   3
ATOM      3  C   UNL     1      -0.447   1.415  -3.806  0.00  0.00    -0.044 C 
BRANCH   3   4
ATOM      4  C   UNL     1       0.311   0.431  -4.699  0.00  0.00    +0.135 C 
BRANCH   4   5
ATOM      5  O   UNL     1       0.042  -0.905  -4.269  0.00  0.00    -0.390 OA
ATOM      6  H   UNL     1      -0.893  -1.149  -4.305  0.00  0.00    +0.210 HD
ENDBRANCH   4   5
BRANCH   4   7
ATOM      7  C   UNL     1      -0.146   0.602  -6.149  0.00  0.00    +0.258 C 
BRANCH   7   8
ATOM      8  O   UNL     1       0.643  -0.233  -6.998  0.00  0.00    -0.489 OA
BRANCH   8  13
ATOM      9  C   UNL     1      -0.514  -0.095 -12.509  0.00  0.00    +0.044 C 
ATOM     10  C   UNL     1      -0.205  -0.132 -11.034  0.00  0.00    -0.050 A 
ATOM     11  C   UNL     1       0.726   0.741 -10.503  0.00  0.00    +0.010 A 
ATOM     12  C   UNL     1       1.011   0.709  -9.151  0.00  0.00    -0.008 A 
ATOM     13  C   UNL     1       0.363  -0.200  -8.328  0.00  0.00    +0.126 A 
ATOM     14  C   UNL     1      -0.566  -1.079  -8.865  0.00  0.00    -0.008 A 
ATOM     15  C   UNL     1      -0.852  -1.039 -10.216  0.00  0.00    +0.010 A 
ATOM     16  C   UNL     1      -1.267  -2.072  -7.974  0.00  0.00    +0.047 C 
ATOM     17  C   UNL     1       2.025   1.662  -8.572  0.00  0.00    +0.047 C 
ENDBRANCH   8  13
ENDBRANCH   7   8
ENDBRANCH   4   7
ENDBRANCH   3   4
ENDBRANCH   1   3
BRANCH   1  18
ATOM     18  C   UNL     1       1.405   1.953  -2.341  0.00  0.00    -0.050 C 
BRANCH  18  19
ATOM     19  C   UNL     1       2.123   1.432  -1.095  0.00  0.00    +0.137 C 
BRANCH  19  20
ATOM     20  O   UNL     1       2.382   0.035  -1.244  0.00  0.00    -0.397 OA
ATOM     21  H   UNL     1       2.837  -0.364  -0.490  0.00  0.00    +0.209 HD
ENDBRANCH  19  20
ENDBRANCH  18  19
ENDBRANCH   1  18
BRANCH   1  22
ATOM     22  C   UNL     1      -0.858   1.946  -1.479  0.00  0.00    -0.045 C 
BRANCH  22  23
ATOM     23  C   UNL     1      -2.018   0.985  -1.214  0.00  0.00    +0.118 C 
BRANCH  23  24
ATOM     24  O   UNL     1      -2.798   0.840  -2.403  0.00  0.00    -0.392 OA
ATOM     25  H   UNL     1      -3.181   1.667  -2.726  0.00  0.00    +0.210 HD
ENDBRANCH  23  24
BRANCH  23  26
ATOM     26  C   UNL     1      -2.897   1.544  -0.093  0.00  0.00    +0.151 C 
BRANCH  26  27
ATOM     27  N   UNL     1      -3.938   0.570   0.243  0.00  0.00    -0.344 N 
ATOM     28  C   UNL     1      -5.208   0.567  -0.269  0.00  0.00    +0.087 A 
ATOM     29  C   UNL     1      -5.906  -0.457   0.245  0.00  0.00    +0.027 A 
ATOM     30  C   UNL     1      -5.011  -1.170   1.161  0.00  0.00    -0.000 A 
ATOM     31  C   UNL     1      -3.784  -0.484   1.116  0.00  0.00    +0.049 A 
ATOM     32  C   UNL     1      -2.721  -0.938   1.889  0.00  0.00    +0.026 A 
ATOM     33  C   UNL     1      -2.880  -2.053   2.684  0.00  0.00    +0.002 A 
ATOM     34  C   UNL     1      -4.092  -2.728   2.722  0.00  0.00    +0.001 A 
ATOM     35  C   UNL     1      -5.152  -2.293   1.977  0.00  0.00    +0.010 A 
ENDBRANCH  26  27
ENDBRANCH  23  26
ENDBRANCH  22  23
ENDBRANCH   1  22
TORSDOF 14
