REMARK  Name = ZINC15207872
REMARK  9 active torsions:
REMARK  status: ('A' for Active; 'I' for Inactive)
REMARK    1  A    between atoms: C_1  and  O_2
REMARK    2  A    between atoms: O_2  and  C_3
REMARK    3  A    between atoms: C_6  and  C_9
REMARK    4  A    between atoms: C_14  and  N_18
REMARK    5  A    between atoms: N_18  and  C_19
REMARK    6  A    between atoms: C_19  and  C_20
REMARK    7  A    between atoms: C_20  and  C_21
REMARK    8  A    between atoms: C_24  and  S_27
REMARK    9  A    between atoms: S_27  and  N_30
REMARK                            x       y       z     vdW  Elec       q    Type
REMARK                         _______ _______ _______ _____ _____    ______ ____
ROOT
ATOM      1  C   UNL     1       1.020  -0.396   0.057  0.00  0.00    +0.002 A 
ATOM      2  C   UNL     1      -0.272  -0.063   0.284  0.00  0.00    +0.056 A 
ATOM      3  S   UNL     1      -0.265   1.717   0.188  0.00  0.00    -0.076 S 
ATOM      4  C   UNL     1       1.456   1.974  -0.153  0.00  0.00    +0.114 A 
ATOM      5  C   UNL     1       1.988   0.669  -0.184  0.00  0.00    +0.055 A 
ATOM      6  C   UNL     1       3.382   0.585  -0.445  0.00  0.00    +0.131 A 
ATOM      7  N   UNL     1       4.072   1.698  -0.636  0.00  0.00    -0.220 NA
ATOM      8  C   UNL     1       3.507   2.891  -0.592  0.00  0.00    +0.224 A 
ATOM      9  N   UNL     1       2.217   3.032  -0.354  0.00  0.00    -0.228 NA
ENDROOT
BRANCH   1  13
ATOM     10  C   UNL     1       2.234  -4.472   0.042  0.00  0.00    +0.120 A 
ATOM     11  C   UNL     1       2.802  -3.584   0.945  0.00  0.00    +0.046 A 
ATOM     12  C   UNL     1       2.411  -2.261   0.952  0.00  0.00    +0.012 A 
ATOM     13  C   UNL     1       1.444  -1.817   0.051  0.00  0.00    -0.016 A 
ATOM     14  C   UNL     1       0.871  -2.713  -0.851  0.00  0.00    +0.012 A 
ATOM     15  C   UNL     1       1.271  -4.034  -0.856  0.00  0.00    +0.046 A 
BRANCH  10  17
ATOM     16  C   UNL     1       1.997  -6.635  -0.917  0.00  0.00    +0.277 C 
ATOM     17  O   UNL     1       2.622  -5.775   0.037  0.00  0.00    -0.495 OA
ENDBRANCH  10  17
ENDBRANCH   1  13
BRANCH   6  18
ATOM     18  N   UNL     1       4.011  -0.647  -0.499  0.00  0.00    -0.328 N 
ATOM     19  H   UNL     1       3.487  -1.462  -0.447  0.00  0.00    +0.147 HD
BRANCH  18  20
ATOM     20  C   UNL     1       5.468  -0.720  -0.634  0.00  0.00    +0.107 C 
BRANCH  20  21
ATOM     21  C   UNL     1       5.904  -2.186  -0.668  0.00  0.00    +0.054 C 
BRANCH  21  22
ATOM     22  C   UNL     1       7.403  -2.260  -0.807  0.00  0.00    -0.046 A 
ATOM     23  C   UNL     1       7.979  -2.305  -2.063  0.00  0.00    +0.005 A 
ATOM     24  C   UNL     1       9.354  -2.370  -2.190  0.00  0.00    +0.029 A 
ATOM     25  C   UNL     1      10.152  -2.398  -1.062  0.00  0.00    +0.105 A 
ATOM     26  C   UNL     1       9.576  -2.359   0.194  0.00  0.00    +0.029 A 
ATOM     27  C   UNL     1       8.201  -2.290   0.321  0.00  0.00    +0.005 A 
BRANCH  25  28
ATOM     28  S   UNL     1      11.905  -2.485  -1.224  0.00  0.00    +0.056 S 
ATOM     29  O   UNL     1      12.220  -1.960  -2.507  0.00  0.00    -0.153 OA
ATOM     30  O   UNL     1      12.450  -1.949  -0.027  0.00  0.00    -0.153 OA
BRANCH  28  31
ATOM     31  N   UNL     1      12.315  -4.089  -1.255  0.00  0.00    -0.204 NA
ATOM     32  H   UNL     1      11.625  -4.767  -1.188  0.00  0.00    +0.144 HD
ATOM     33  H   UNL     1      13.245  -4.350  -1.340  0.00  0.00    +0.144 HD
ENDBRANCH  28  31
ENDBRANCH  25  28
ENDBRANCH  21  22
ENDBRANCH  20  21
ENDBRANCH  18  20
ENDBRANCH   6  18
TORSDOF 8
