REMARK  Name = ZINC63874030
REMARK  8 active torsions:
REMARK  status: ('A' for Active; 'I' for Inactive)
REMARK    1  A    between atoms: C_7  and  C_10
REMARK    2  A    between atoms: C_10  and  C_11
REMARK    3  A    between atoms: C_11  and  C_12
REMARK    4  A    between atoms: C_12  and  O_14
REMARK    5  A    between atoms: O_14  and  C_15
REMARK    6  A    between atoms: C_15  and  C_16
REMARK    7  A    between atoms: N_18  and  C_19
REMARK    8  A    between atoms: C_21  and  C_30
REMARK                            x       y       z     vdW  Elec       q    Type
REMARK                         _______ _______ _______ _____ _____    ______ ____
ROOT
ATOM      1  C   UNL     1      -1.800  -7.372  -3.510  0.00  0.00    +0.252 C 
ATOM      2  O   UNL     1      -1.352  -6.689  -4.407  0.00  0.00    -0.272 OA
ATOM      3  N   UNL     1      -2.662  -8.370  -3.790  0.00  0.00    -0.299 N 
ATOM      4  H   UNL     1      -3.020  -8.916  -3.073  0.00  0.00    +0.150 HD
ENDROOT
BRANCH   3   5
ATOM      5  C   UNL     1      -3.057  -8.629  -5.177  0.00  0.00    +0.151 C 
ATOM      6  C   UNL     1      -2.914 -10.127  -5.538  0.00  0.00    +0.132 C 
ATOM      7  C   UNL     1      -2.415 -10.313  -6.949  0.00  0.00    -0.046 C 
ATOM      8  C   UNL     1      -1.819  -9.280  -7.532  0.00  0.00    -0.013 C 
ATOM      9  S   UNL     1      -1.838  -7.934  -6.369  0.00  0.00    -0.106 S 
ATOM     10  C   UNL     1      -1.235  -9.236  -8.916  0.00  0.00    +0.042 C 
ATOM     11  C   UNL     1      -1.097 -10.671  -9.440  0.00  0.00    +0.005 C 
ATOM     12  C   UNL     1      -2.415 -11.410  -9.184  0.00  0.00    +0.005 C 
ATOM     13  C   UNL     1      -2.585 -11.642  -7.683  0.00  0.00    +0.032 C 
BRANCH   6  14
ATOM     14  C   UNL     1      -4.257 -10.797  -5.401  0.00  0.00    +0.220 C 
ATOM     15  O   UNL     1      -5.267 -10.197  -5.702  0.00  0.00    -0.275 OA
ATOM     16  N   UNL     1      -4.335 -12.063  -4.944  0.00  0.00    -0.329 N 
ATOM     17  H   UNL     1      -3.527 -12.542  -4.704  0.00  0.00    +0.145 HD
ATOM     18  H   UNL     1      -5.199 -12.494  -4.856  0.00  0.00    +0.145 HD
ENDBRANCH   6  14
ENDBRANCH   3   5
BRANCH   1  19
ATOM     19  C   UNL     1      -1.393  -7.106  -2.084  0.00  0.00    +0.327 C 
BRANCH  19  20
ATOM     20  O   UNL     1      -0.480  -6.007  -2.047  0.00  0.00    -0.455 OA
BRANCH  20  21
ATOM     21  C   UNL     1      -0.018  -5.639  -0.841  0.00  0.00    +0.308 C 
ATOM     22  O   UNL     1      -0.377  -6.230   0.149  0.00  0.00    -0.251 OA
BRANCH  21  23
ATOM     23  C   UNL     1       0.949  -4.489  -0.724  0.00  0.00    +0.125 C 
BRANCH  23  24
ATOM     24  C   UNL     1       1.315  -4.279   0.747  0.00  0.00    +0.044 C 
BRANCH  24  31
ATOM     25  C   UNL     1       0.727   0.188   1.618  0.00  0.00    +0.001 A 
ATOM     26  C   UNL     1       1.923   0.919   1.637  0.00  0.00    +0.002 A 
ATOM     27  C   UNL     1       3.128   0.351   1.418  0.00  0.00    +0.026 A 
ATOM     28  C   UNL     1       3.229  -1.043   1.155  0.00  0.00    +0.043 A 
ATOM     29  N   UNL     1       4.262  -1.813   0.915  0.00  0.00    -0.380 N 
ATOM     30  C   UNL     1       3.785  -3.185   0.710  0.00  0.00    +0.144 C 
ATOM     31  C   UNL     1       2.281  -3.129   0.865  0.00  0.00    -0.041 C 
ATOM     32  C   UNL     1       1.980  -1.837   1.129  0.00  0.00    -0.001 A 
ATOM     33  C   UNL     1       0.711  -1.143   1.377  0.00  0.00    +0.010 A 
ATOM     34  H   UNL     1       5.187  -1.524   0.878  0.00  0.00    +0.160 HD
ENDBRANCH  24  31
ENDBRANCH  23  24
ENDBRANCH  21  23
ENDBRANCH  20  21
ENDBRANCH  19  20
ENDBRANCH   1  19
TORSDOF 8
