REMARK  Name = ZINC63270937
REMARK  7 active torsions:
REMARK  status: ('A' for Active; 'I' for Inactive)
REMARK    1  A    between atoms: C_1  and  C_2
REMARK    2  A    between atoms: C_2  and  C_4
REMARK    3  A    between atoms: C_7  and  N_10
REMARK    4  A    between atoms: C_11  and  C_13
REMARK    5  A    between atoms: C_13  and  C_14
REMARK    6  A    between atoms: C_14  and  C_15
REMARK    7  A    between atoms: C_15  and  N_16
REMARK                            x       y       z     vdW  Elec       q    Type
REMARK                         _______ _______ _______ _____ _____    ______ ____
ROOT
ATOM      1  N   UNL     1       0.563  -8.559  -7.014  0.00  0.00    -0.299 N 
ATOM      2  C   UNL     1       0.678  -9.421  -8.044  0.00  0.00    +0.302 C 
ATOM      3  O   UNL     1       0.779  -9.000  -9.180  0.00  0.00    -0.253 OA
ATOM      4  N   UNL     1       0.680 -10.749  -7.814  0.00  0.00    -0.283 N 
ATOM      5  C   UNL     1       0.665 -11.247  -6.435  0.00  0.00    +0.114 C 
ATOM      6  C   UNL     1      -0.560 -12.156  -6.232  0.00  0.00    +0.052 C 
ATOM      7  C   UNL     1      -0.620 -13.076  -7.426  0.00  0.00    -0.036 C 
ATOM      8  C   UNL     1      -0.708 -14.397  -7.513  0.00  0.00    -0.001 A 
ATOM      9  C   UNL     1      -0.891 -15.437  -6.487  0.00  0.00    +0.010 A 
ATOM     10  C   UNL     1      -0.919 -16.720  -6.932  0.00  0.00    +0.001 A 
ATOM     11  C   UNL     1      -0.786 -17.070  -8.279  0.00  0.00    +0.002 A 
ATOM     12  C   UNL     1      -0.623 -16.180  -9.290  0.00  0.00    +0.026 A 
ATOM     13  C   UNL     1      -0.586 -14.797  -8.948  0.00  0.00    +0.043 A 
ATOM     14  N   UNL     1      -0.466 -13.746  -9.704  0.00  0.00    -0.376 N 
ATOM     15  C   UNL     1      -0.559 -12.556  -8.858  0.00  0.00    +0.124 C 
ATOM     16  C   UNL     1       0.691 -11.684  -8.951  0.00  0.00    +0.138 C 
ATOM     17  H   UNL     1       0.557  -8.891  -6.102  0.00  0.00    +0.150 HD
ATOM     18  H   UNL     1      -0.337 -13.751 -10.665  0.00  0.00    +0.160 HD
ENDROOT
BRANCH   1  19
ATOM     19  C   UNL     1       0.449  -7.121  -7.271  0.00  0.00    +0.106 C 
BRANCH  19  20
ATOM     20  C   UNL     1       0.333  -6.373  -5.941  0.00  0.00    +0.028 C 
BRANCH  20  21
ATOM     21  C   UNL     1       0.214  -4.872  -6.209  0.00  0.00    +0.097 C 
BRANCH  21  23
ATOM     22  N   UNL     1      -0.017  -2.792  -4.889  0.00  0.00    -0.285 N 
ATOM     23  C   UNL     1       0.099  -4.135  -4.899  0.00  0.00    +0.217 C 
ATOM     24  O   UNL     1       0.112  -4.750  -3.854  0.00  0.00    -0.275 OA
ATOM     25  H   UNL     1      -0.102  -2.307  -5.725  0.00  0.00    +0.155 HD
BRANCH  22  29
ATOM     26  C   UNL     1      -0.012  -0.731  -1.276  0.00  0.00    +0.017 A 
ATOM     27  C   UNL     1       0.752  -1.895  -1.421  0.00  0.00    +0.013 A 
ATOM     28  C   UNL     1       0.748  -2.571  -2.614  0.00  0.00    +0.024 A 
ATOM     29  C   UNL     1      -0.015  -2.102  -3.679  0.00  0.00    +0.033 A 
ATOM     30  C   UNL     1      -0.777  -0.945  -3.540  0.00  0.00    +0.024 A 
ATOM     31  C   UNL     1      -0.783  -0.266  -2.349  0.00  0.00    +0.013 A 
BRANCH  26  33
ATOM     32  C   UNL     1       0.819  -0.506   1.153  0.00  0.00    +0.091 C 
ATOM     33  C   UNL     1      -0.011  -0.004  -0.000  0.00  0.00    +0.160 C 
ATOM     34  O   UNL     1      -0.678   1.002   0.125  0.00  0.00    -0.292 OA
ENDBRANCH  26  33
ENDBRANCH  22  29
ENDBRANCH  21  23
ENDBRANCH  20  21
ENDBRANCH  19  20
ENDBRANCH   1  19
TORSDOF 6
