REMARK  Name = ZINC21253790
REMARK  7 active torsions:
REMARK  status: ('A' for Active; 'I' for Inactive)
REMARK    1  A    between atoms: C_1  and  C_2
REMARK    2  A    between atoms: C_2  and  O_3
REMARK    3  A    between atoms: O_3  and  C_4
REMARK    4  A    between atoms: C_5  and  O_35
REMARK    5  A    between atoms: C_7  and  C_11
REMARK    6  A    between atoms: C_16  and  C_21
REMARK    7  A    between atoms: O_35  and  C_36
REMARK                            x       y       z     vdW  Elec       q    Type
REMARK                         _______ _______ _______ _____ _____    ______ ____
ROOT
ATOM      1  C   UNL     1       3.715  -0.702  -0.036  0.00  0.00    +0.136 C 
ATOM      2  C   UNL     1       4.180  -0.819  -1.468  0.00  0.00    +0.036 C 
ATOM      3  C   UNL     1       5.222  -0.168  -2.014  0.00  0.00    +0.017 C 
ATOM      4  C   UNL     1       5.588  -0.383  -3.473  0.00  0.00    +0.059 C 
ATOM      5  C   UNL     1       4.331  -0.680  -4.289  0.00  0.00    +0.032 C 
ATOM      6  C   UNL     1       3.684  -1.942  -3.706  0.00  0.00    +0.088 C 
ATOM      7  C   UNL     1       3.405  -1.705  -2.252  0.00  0.00    +0.163 C 
ATOM      8  O   UNL     1       2.480  -2.296  -1.728  0.00  0.00    -0.292 OA
ATOM      9  N   UNL     1       6.028   0.697  -1.347  0.00  0.00    -0.316 N 
ATOM     10  C   UNL     1       5.584   1.714  -0.510  0.00  0.00    +0.052 A 
ATOM     11  C   UNL     1       5.781   3.052  -0.801  0.00  0.00    +0.025 A 
ATOM     12  C   UNL     1       5.354   4.013   0.100  0.00  0.00    +0.002 A 
ATOM     13  C   UNL     1       4.739   3.637   1.281  0.00  0.00    +0.002 A 
ATOM     14  C   UNL     1       4.525   2.299   1.565  0.00  0.00    +0.025 A 
ATOM     15  C   UNL     1       4.931   1.337   0.654  0.00  0.00    +0.049 A 
ATOM     16  N   UNL     1       4.636  -0.012   0.842  0.00  0.00    -0.331 N 
ATOM     17  H   UNL     1       7.121   0.622  -1.450  0.00  0.00    +0.152 HD
ATOM     18  H   UNL     1       5.114  -0.553   1.672  0.00  0.00    +0.147 HD
ENDROOT
BRANCH   1  22
ATOM     19  C   UNL     1      -0.017   1.387   0.008  0.00  0.00    +0.176 A 
ATOM     20  C   UNL     1       0.048   0.068   0.447  0.00  0.00    +0.163 A 
ATOM     21  C   UNL     1       1.258  -0.605   0.431  0.00  0.00    +0.055 A 
ATOM     22  C   UNL     1       2.399   0.033  -0.020  0.00  0.00    -0.018 A 
ATOM     23  C   UNL     1       2.336   1.342  -0.457  0.00  0.00    +0.025 A 
ATOM     24  C   UNL     1       1.130   2.021  -0.444  0.00  0.00    +0.063 A 
ATOM     25 BR   UNL     1       1.047   3.813  -1.042  0.00  0.00    -0.046 Br
BRANCH  20  26
ATOM     26  O   UNL     1      -1.075  -0.558   0.891  0.00  0.00    -0.491 OA
ATOM     27  C   UNL     1      -0.933  -1.911   1.327  0.00  0.00    +0.277 C 
ENDBRANCH  20  26
BRANCH  19  28
ATOM     28  O   UNL     1      -1.204   2.051   0.016  0.00  0.00    -0.487 OA
BRANCH  28  30
ATOM     29  C   UNL     1      -2.896   3.450   1.027  0.00  0.00    +0.048 C 
ATOM     30  C   UNL     1      -1.535   2.773   1.204  0.00  0.00    +0.226 C 
ENDBRANCH  28  30
ENDBRANCH  19  28
ENDBRANCH   1  22
BRANCH   5  31
ATOM     31  C   UNL     1       4.702  -0.915  -5.730  0.00  0.00    -0.044 A 
ATOM     32  C   UNL     1       5.565  -1.942  -6.063  0.00  0.00    +0.004 A 
ATOM     33  C   UNL     1       5.902  -2.160  -7.386  0.00  0.00    +0.000 A 
ATOM     34  C   UNL     1       5.382  -1.346  -8.375  0.00  0.00    +0.000 A 
ATOM     35  C   UNL     1       4.523  -0.316  -8.041  0.00  0.00    +0.000 A 
ATOM     36  C   UNL     1       4.183  -0.101  -6.719  0.00  0.00    +0.004 A 
ENDBRANCH   5  31
TORSDOF 5
