REMARK  Name = ZINC39671659
REMARK  8 active torsions:
REMARK  status: ('A' for Active; 'I' for Inactive)
REMARK    1  A    between atoms: C_1  and  C_2
REMARK    2  A    between atoms: C_4  and  C_40
REMARK    3  A    between atoms: N_5  and  C_7
REMARK    4  A    between atoms: C_7  and  C_8
REMARK    5  A    between atoms: C_8  and  C_9
REMARK    6  A    between atoms: C_9  and  N_10
REMARK    7  A    between atoms: C_11  and  C_13
REMARK    8  A    between atoms: C_24  and  C_26
REMARK                            x       y       z     vdW  Elec       q    Type
REMARK                         _______ _______ _______ _____ _____    ______ ____
ROOT
ATOM      1  C   UNL     1       4.876  -6.722   3.974  0.00  0.00    +0.100 C 
ATOM      2  C   UNL     1       5.550  -5.545   4.713  0.00  0.00    +0.121 C 
ATOM      3  N   UNL     1       5.343  -5.838   6.151  0.00  0.00    -0.296 N 
ATOM      4  C   UNL     1       5.533  -7.304   6.260  0.00  0.00    +0.115 C 
ATOM      5  C   UNL     1       4.869  -7.875   4.991  0.00  0.00    -0.004 C 
ATOM      6  C   UNL     1       5.678  -9.055   4.458  0.00  0.00    -0.010 C 
ATOM      7  C   UNL     1       5.608 -10.210   5.460  0.00  0.00    -0.082 C 
ATOM      8  N   UNL     1       4.208 -10.602   5.662  0.00  0.00    +0.379 N 
ATOM      9  C   UNL     1       3.459  -9.492   6.262  0.00  0.00    -0.082 C 
ATOM     10  C   UNL     1       3.437  -8.306   5.293  0.00  0.00    -0.010 C 
ATOM     11  C   UNL     1       5.049  -4.967   7.137  0.00  0.00    +0.247 C 
ATOM     12  O   UNL     1       4.995  -5.350   8.290  0.00  0.00    -0.270 OA
ATOM     13  H   UNL     1       3.796 -10.842   4.773  0.00  0.00    -0.086 HD
ATOM     14  H   UNL     1       4.169 -11.402   6.275  0.00  0.00    -0.086 HD
ENDROOT
BRANCH  11  15
ATOM     15  C   UNL     1       4.792  -3.548   6.818  0.00  0.00    +0.045 A 
ATOM     16  C   UNL     1       5.694  -2.832   6.023  0.00  0.00    +0.014 A 
ATOM     17  C   UNL     1       5.457  -1.508   5.723  0.00  0.00    +0.001 A 
ATOM     18  C   UNL     1       4.324  -0.871   6.204  0.00  0.00    +0.012 A 
ATOM     19  C   UNL     1       3.416  -1.564   6.996  0.00  0.00    +0.031 A 
ATOM     20  C   UNL     1       3.641  -2.915   7.304  0.00  0.00    +0.006 A 
ATOM     21  C   UNL     1       2.523  -3.404   8.149  0.00  0.00    -0.006 A 
ATOM     22  C   UNL     1       2.267  -4.643   8.721  0.00  0.00    +0.009 A 
ATOM     23  C   UNL     1       1.123  -4.833   9.480  0.00  0.00    +0.001 A 
ATOM     24  C   UNL     1       0.231  -3.797   9.673  0.00  0.00    +0.001 A 
ATOM     25  C   UNL     1       0.472  -2.554   9.109  0.00  0.00    +0.012 A 
ATOM     26  C   UNL     1       1.615  -2.350   8.347  0.00  0.00    +0.030 A 
ATOM     27  C   UNL     1       2.144  -1.158   7.641  0.00  0.00    +0.194 C 
ATOM     28  O   UNL     1       1.627  -0.060   7.590  0.00  0.00    -0.287 OA
ENDBRANCH  11  15
BRANCH   1  30
ATOM     29  N   UNL     1       2.908  -6.904   2.486  0.00  0.00    -0.315 N 
ATOM     30  C   UNL     1       3.466  -6.358   3.585  0.00  0.00    +0.218 C 
ATOM     31  O   UNL     1       2.834  -5.574   4.260  0.00  0.00    -0.275 OA
ATOM     32  H   UNL     1       3.414  -7.532   1.946  0.00  0.00    +0.149 HD
BRANCH  29  33
ATOM     33  C   UNL     1       1.538  -6.551   2.108  0.00  0.00    +0.106 C 
BRANCH  33  34
ATOM     34  C   UNL     1       1.150  -7.304   0.834  0.00  0.00    +0.042 C 
BRANCH  34  35
ATOM     35  C   UNL     1      -0.281  -6.934   0.438  0.00  0.00    +0.145 C 
BRANCH  35  40
ATOM     36  C   UNL     1      -0.919  -8.043  -4.416  0.00  0.00    +0.067 C 
ATOM     37  C   UNL     1      -0.922  -8.120  -2.911  0.00  0.00    +0.060 A 
ATOM     38  C   UNL     1      -1.411  -9.183  -2.144  0.00  0.00    +0.047 A 
ATOM     39  C   UNL     1      -1.233  -8.872  -0.839  0.00  0.00    +0.036 A 
ATOM     40  N   UNL     1      -0.652  -7.655  -0.782  0.00  0.00    -0.268 N 
ATOM     41  N   UNL     1      -0.462  -7.206  -2.095  0.00  0.00    -0.176 NA
ATOM     42  C   UNL     1      -1.616  -9.730   0.339  0.00  0.00    +0.065 C 
ENDBRANCH  35  40
ENDBRANCH  34  35
ENDBRANCH  33  34
ENDBRANCH  29  33
ENDBRANCH   1  30
TORSDOF 6
