REMARK  Name = ZINC39676429
REMARK  8 active torsions:
REMARK  status: ('A' for Active; 'I' for Inactive)
REMARK    1  A    between atoms: C_1  and  C_2
REMARK    2  A    between atoms: C_2  and  C_4
REMARK    3  A    between atoms: C_2  and  O_32
REMARK    4  A    between atoms: C_8  and  C_17
REMARK    5  A    between atoms: N_19  and  C_20
REMARK    6  A    between atoms: C_20  and  C_21
REMARK    7  A    between atoms: C_21  and  C_22
REMARK    8  A    between atoms: O_32  and  C_33
REMARK                            x       y       z     vdW  Elec       q    Type
REMARK                         _______ _______ _______ _____ _____    ______ ____
ROOT
ATOM      1  C   UNL     1       0.740  -0.383   1.130  0.00  0.00    +0.256 C 
ATOM      2  O   UNL     1       1.862  -0.797   0.928  0.00  0.00    -0.272 OA
ATOM      3  N   UNL     1       0.346  -0.089   2.385  0.00  0.00    -0.297 N 
ATOM      4  C   UNL     1      -0.974   0.417   2.827  0.00  0.00    +0.121 C 
ATOM      5  C   UNL     1      -1.254  -0.327   4.152  0.00  0.00    +0.100 C 
ATOM      6  C   UNL     1       0.135  -0.727   4.678  0.00  0.00    -0.004 C 
ATOM      7  C   UNL     1       1.134  -0.205   3.635  0.00  0.00    +0.115 C 
ATOM      8  C   UNL     1       0.395  -0.076   6.033  0.00  0.00    -0.010 C 
ATOM      9  C   UNL     1       1.756  -0.535   6.562  0.00  0.00    -0.082 C 
ATOM     10  N   UNL     1       1.766  -1.997   6.689  0.00  0.00    +0.379 N 
ATOM     11  C   UNL     1       1.608  -2.616   5.368  0.00  0.00    -0.082 C 
ATOM     12  C   UNL     1       0.240  -2.245   4.788  0.00  0.00    -0.010 C 
ATOM     13  H   UNL     1       2.642  -2.292   7.095  0.00  0.00    -0.086 HD
ATOM     14  H   UNL     1       1.007  -2.287   7.288  0.00  0.00    -0.086 HD
ENDROOT
BRANCH   5  15
ATOM     15  C   UNL     1      -1.945   0.587   5.131  0.00  0.00    +0.218 C 
ATOM     16  O   UNL     1      -1.727   1.780   5.105  0.00  0.00    -0.275 OA
ATOM     17  N   UNL     1      -2.805   0.079   6.036  0.00  0.00    -0.315 N 
ATOM     18  H   UNL     1      -2.979  -0.875   6.057  0.00  0.00    +0.149 HD
BRANCH  17  19
ATOM     19  C   UNL     1      -3.477   0.967   6.988  0.00  0.00    +0.109 C 
BRANCH  19  20
ATOM     20  C   UNL     1      -4.391   0.143   7.896  0.00  0.00    +0.056 C 
BRANCH  20  21
ATOM     21  C   UNL     1      -5.083   1.056   8.875  0.00  0.00    -0.021 A 
ATOM     22  C   UNL     1      -6.317   1.810   8.642  0.00  0.00    +0.004 A 
ATOM     23  C   UNL     1      -7.188   1.933   7.557  0.00  0.00    +0.030 A 
ATOM     24  C   UNL     1      -8.294   2.747   7.661  0.00  0.00    +0.042 A 
ATOM     25  C   UNL     1      -8.546   3.443   8.836  0.00  0.00    +0.022 A 
ATOM     26  C   UNL     1      -7.696   3.331   9.915  0.00  0.00    +0.027 A 
ATOM     27  C   UNL     1      -6.573   2.515   9.832  0.00  0.00    +0.047 A 
ATOM     28  N   UNL     1      -5.562   2.204  10.714  0.00  0.00    -0.360 N 
ATOM     29  C   UNL     1      -4.687   1.330  10.128  0.00  0.00    +0.087 A 
ATOM     30 CL   UNL     1      -9.380   2.904   6.315  0.00  0.00    -0.084 Cl
ATOM     31  H   UNL     1      -5.483   2.550  11.616  0.00  0.00    +0.165 HD
ENDBRANCH  20  21
ENDBRANCH  19  20
ENDBRANCH  17  19
ENDBRANCH   5  15
BRANCH   1  33
ATOM     32  C   UNL     1      -0.539   1.290  -0.180  0.00  0.00    +0.062 C 
ATOM     33  C   UNL     1      -0.213  -0.197  -0.022  0.00  0.00    +0.256 C 
BRANCH  33  34
ATOM     34  O   UNL     1       0.391  -0.682  -1.223  0.00  0.00    -0.480 OA
BRANCH  34  35
ATOM     35  C   UNL     1      -0.446  -1.080  -2.217  0.00  0.00    +0.122 A 
ATOM     36  C   UNL     1       0.067  -1.667  -3.364  0.00  0.00    +0.045 A 
ATOM     37  C   UNL     1      -0.785  -2.072  -4.373  0.00  0.00    +0.004 A 
ATOM     38  C   UNL     1      -2.150  -1.891  -4.240  0.00  0.00    +0.000 A 
ATOM     39  C   UNL     1      -2.664  -1.306  -3.098  0.00  0.00    +0.004 A 
ATOM     40  C   UNL     1      -1.816  -0.906  -2.084  0.00  0.00    +0.045 A 
ENDBRANCH  34  35
ENDBRANCH  33  34
ENDBRANCH   1  33
TORSDOF 7
