REMARK  Name = ZINC09374833
REMARK  9 active torsions:
REMARK  status: ('A' for Active; 'I' for Inactive)
REMARK    1  A    between atoms: C_1  and  C_2
REMARK    2  A    between atoms: C_2  and  O_3
REMARK    3  A    between atoms: O_3  and  C_4
REMARK    4  A    between atoms: C_4  and  C_6
REMARK    5  A    between atoms: C_7  and  N_31
REMARK    6  A    between atoms: N_18  and  C_21
REMARK    7  A    between atoms: C_21  and  C_22
REMARK    8  A    between atoms: C_22  and  O_24
REMARK    9  A    between atoms: O_24  and  C_25
REMARK                            x       y       z     vdW  Elec       q    Type
REMARK                         _______ _______ _______ _____ _____    ______ ____
ROOT
ATOM      1  C   UNL     1       5.427   0.138  -1.200  0.00  0.00    +0.117 C 
ATOM      2  C   UNL     1       6.326  -0.727  -1.740  0.00  0.00    +0.195 C 
ATOM      3  O   UNL     1       6.069  -2.041  -1.817  0.00  0.00    -0.446 OA
ATOM      4  C   UNL     1       4.800  -2.486  -1.766  0.00  0.00    +0.115 C 
ATOM      5  C   UNL     1       3.817  -1.741  -1.227  0.00  0.00    +0.057 C 
ATOM      6  C   UNL     1       4.112  -0.367  -0.683  0.00  0.00    +0.141 C 
ATOM      7  C   UNL     1       4.089  -0.373   0.814  0.00  0.00    -0.002 A 
ATOM      8  C   UNL     1       4.859  -1.046   1.737  0.00  0.00    +0.007 A 
ATOM      9  C   UNL     1       4.572  -0.824   3.080  0.00  0.00    +0.000 A 
ATOM     10  C   UNL     1       3.562   0.032   3.467  0.00  0.00    +0.002 A 
ATOM     11  C   UNL     1       2.783   0.713   2.545  0.00  0.00    +0.024 A 
ATOM     12  C   UNL     1       3.064   0.503   1.194  0.00  0.00    +0.042 A 
ATOM     13  N   UNL     1       2.450   1.038   0.075  0.00  0.00    -0.259 N 
ATOM     14  C   UNL     1       3.001   0.586  -1.070  0.00  0.00    +0.240 C 
ATOM     15  O   UNL     1       2.668   0.886  -2.197  0.00  0.00    -0.274 OA
ATOM     16  C   UNL     1       2.494  -2.218  -1.153  0.00  0.00    +0.164 C 
ATOM     17  O   UNL     1       1.631  -1.511  -0.672  0.00  0.00    -0.292 OA
ATOM     18  C   UNL     1       2.130  -3.587  -1.658  0.00  0.00    +0.080 C 
ATOM     19  C   UNL     1       3.357  -4.498  -1.550  0.00  0.00    +0.016 C 
ATOM     20  C   UNL     1       4.507  -3.857  -2.329  0.00  0.00    +0.075 C 
ENDROOT
BRANCH   2  21
ATOM     21  N   UNL     1       7.518  -0.247  -2.214  0.00  0.00    -0.329 N 
ATOM     22  H   UNL     1       7.551   0.613  -2.661  0.00  0.00    +0.145 HD
ATOM     23  H   UNL     1       8.329  -0.768  -2.104  0.00  0.00    +0.145 HD
ENDBRANCH   2  21
BRANCH   1  24
ATOM     24  C   UNL     1       5.729   1.507  -1.128  0.00  0.00    +0.342 C 
ATOM     25  O   UNL     1       6.754   1.932  -1.630  0.00  0.00    -0.245 OA
BRANCH  24  26
ATOM     26  O   UNL     1       4.882   2.353  -0.502  0.00  0.00    -0.462 OA
BRANCH  26  28
ATOM     27  C   UNL     1       4.179   4.529   0.279  0.00  0.00    +0.048 C 
ATOM     28  C   UNL     1       5.253   3.733  -0.466  0.00  0.00    +0.229 C 
ENDBRANCH  26  28
ENDBRANCH  24  26
ENDBRANCH   1  24
BRANCH  13  29
ATOM     29  C   UNL     1       1.336   1.988   0.129  0.00  0.00    +0.234 C 
BRANCH  29  30
ATOM     30  C   UNL     1       0.032   1.234   0.131  0.00  0.00    +0.325 C 
ATOM     31  O   UNL     1       0.032   0.026   0.091  0.00  0.00    -0.249 OA
BRANCH  30  32
ATOM     32  O   UNL     1      -1.131   1.903   0.171  0.00  0.00    -0.467 OA
ATOM     33  C   UNL     1      -2.348   1.112   0.164  0.00  0.00    +0.280 C 
ENDBRANCH  30  32
ENDBRANCH  29  30
ENDBRANCH  13  29
TORSDOF 7
