REMARK  Name = ZINC39426051
REMARK  11 active torsions:
REMARK  status: ('A' for Active; 'I' for Inactive)
REMARK    1  A    between atoms: C_1  and  C_2
REMARK    2  A    between atoms: C_2  and  O_3
REMARK    3  A    between atoms: O_3  and  C_4
REMARK    4  A    between atoms: C_7  and  C_10
REMARK    5  A    between atoms: C_12  and  C_33
REMARK    6  A    between atoms: C_13  and  N_32
REMARK    7  A    between atoms: C_20  and  C_22
REMARK    8  A    between atoms: C_20  and  C_23
REMARK    9  A    between atoms: C_27  and  S_29
REMARK   10  A    between atoms: S_29  and  C_30
REMARK   11  A    between atoms: C_30  and  C_31
REMARK                            x       y       z     vdW  Elec       q    Type
REMARK                         _______ _______ _______ _____ _____    ______ ____
ROOT
ATOM      1  C   UNL     1       1.118  -6.025  -1.846  0.00  0.00    +0.097 C 
ATOM      2  C   UNL     1       0.415  -6.407  -3.115  0.00  0.00    +0.077 C 
ATOM      3  C   UNL     1       1.113  -6.705  -4.242  0.00  0.00    +0.108 C 
ATOM      4  N   UNL     1       2.489  -6.668  -4.232  0.00  0.00    -0.237 N 
ATOM      5  C   UNL     1       3.179  -6.728  -3.049  0.00  0.00    +0.027 C 
ATOM      6  C   UNL     1       2.567  -6.438  -1.882  0.00  0.00    +0.025 C 
ATOM      7  C   UNL     1       3.264  -6.514  -0.663  0.00  0.00    +0.162 C 
ATOM      8  O   UNL     1       2.687  -6.240   0.371  0.00  0.00    -0.292 OA
ATOM      9  C   UNL     1       4.709  -6.928  -0.614  0.00  0.00    +0.086 C 
ATOM     10  C   UNL     1       5.003  -7.854  -1.799  0.00  0.00    -0.023 C 
ATOM     11  C   UNL     1       4.635  -7.122  -3.088  0.00  0.00    +0.058 C 
ATOM     12  C   UNL     1       6.492  -8.209  -1.817  0.00  0.00    +0.011 C 
ATOM     13  C   UNL     1       4.168  -9.129  -1.674  0.00  0.00    +0.011 C 
ATOM     14  C   UNL     1       3.186  -6.567  -5.434  0.00  0.00    +0.194 A 
ATOM     15  N   UNL     1       3.576  -7.514  -6.272  0.00  0.00    -0.124 NA
ATOM     16  N   UNL     1       4.207  -7.250  -7.332  0.00  0.00    -0.133 NA
ATOM     17  C   UNL     1       4.518  -6.007  -7.671  0.00  0.00    +0.160 A 
ATOM     18  S   UNL     1       3.804  -5.120  -6.288  0.00  0.00    -0.024 S 
ENDROOT
BRANCH   1  22
ATOM     19  C   UNL     1       0.880  -1.790  -1.332  0.00  0.00    +0.121 A 
ATOM     20  C   UNL     1       0.324  -2.637  -0.385  0.00  0.00    +0.046 A 
ATOM     21  C   UNL     1       0.402  -4.006  -0.553  0.00  0.00    +0.008 A 
ATOM     22  C   UNL     1       1.034  -4.532  -1.665  0.00  0.00    -0.034 A 
ATOM     23  C   UNL     1       1.589  -3.689  -2.610  0.00  0.00    +0.008 A 
ATOM     24  C   UNL     1       1.509  -2.320  -2.449  0.00  0.00    +0.046 A 
BRANCH  19  25
ATOM     25  O   UNL     1       0.804  -0.443  -1.169  0.00  0.00    -0.492 OA
BRANCH  25  27
ATOM     26  C   UNL     1       0.157   1.562   0.015  0.00  0.00    +0.048 C 
ATOM     27  C   UNL     1       0.142   0.032   0.005  0.00  0.00    +0.225 C 
ENDBRANCH  25  27
ENDBRANCH  19  25
ENDBRANCH   1  22
BRANCH   3  28
ATOM     28  N   UNL     1       0.444  -7.045  -5.393  0.00  0.00    -0.345 N 
ATOM     29  H   UNL     1      -0.520  -7.153  -5.380  0.00  0.00    +0.144 HD
ATOM     30  H   UNL     1       0.936  -7.177  -6.219  0.00  0.00    +0.144 HD
ENDBRANCH   3  28
BRANCH   2  31
ATOM     31  C   UNL     1      -1.016  -6.458  -3.140  0.00  0.00    +0.099 C 
ATOM     32  N   UNL     1      -2.151  -6.499  -3.159  0.00  0.00    -0.191 NA
ENDBRANCH   2  31
BRANCH  17  33
ATOM     33  S   UNL     1       5.382  -5.400  -9.081  0.00  0.00    -0.097 S 
BRANCH  33  34
ATOM     34  C   UNL     1       5.781  -6.894 -10.028  0.00  0.00    +0.073 C 
ATOM     35  C   UNL     1       6.543  -6.506 -11.297  0.00  0.00    +0.016 C 
ENDBRANCH  33  34
ENDBRANCH  17  33
TORSDOF 7
