REMARK  Name = ZINC09274498
REMARK  6 active torsions:
REMARK  status: ('A' for Active; 'I' for Inactive)
REMARK    1  A    between atoms: C_1  and  C_2
REMARK    2  A    between atoms: C_5  and  C_33
REMARK    3  A    between atoms: C_6  and  N_8
REMARK    4  A    between atoms: C_17  and  C_23
REMARK    5  A    between atoms: N_25  and  C_26
REMARK    6  A    between atoms: C_26  and  C_27
REMARK                            x       y       z     vdW  Elec       q    Type
REMARK                         _______ _______ _______ _____ _____    ______ ____
ROOT
ATOM      1  N   UNL     1       0.052  -2.797   2.391  0.00  0.00    -0.292 N 
ATOM      2  C   UNL     1       0.153  -2.116   3.592  0.00  0.00    +0.186 A 
ATOM      3  N   UNL     1       0.276  -2.597   4.799  0.00  0.00    -0.139 NA
ATOM      4  N   UNL     1       0.366  -1.761   5.910  0.00  0.00    -0.169 N 
ATOM      5  C   UNL     1       0.498  -2.155   7.214  0.00  0.00    +0.283 A 
ATOM      6  O   UNL     1       0.548  -3.338   7.502  0.00  0.00    -0.265 OA
ATOM      7  C   UNL     1       0.578  -1.132   8.256  0.00  0.00    +0.067 A 
ATOM      8  C   UNL     1       0.714  -1.470   9.606  0.00  0.00    +0.016 A 
ATOM      9  C   UNL     1       0.786  -0.488  10.549  0.00  0.00    +0.014 A 
ATOM     10  C   UNL     1       0.725   0.865  10.183  0.00  0.00    +0.039 A 
ATOM     11  C   UNL     1       0.591   1.226   8.850  0.00  0.00    +0.041 A 
ATOM     12  C   UNL     1       0.516   0.229   7.873  0.00  0.00    +0.080 A 
ATOM     13  N   UNL     1       0.386   0.522   6.567  0.00  0.00    -0.221 NA
ATOM     14  C   UNL     1       0.318  -0.413   5.661  0.00  0.00    +0.201 A 
ATOM     15  S   UNL     1       0.156  -0.356   3.887  0.00  0.00    -0.013 S 
ATOM     16  H   UNL     1      -0.018  -3.765   2.386  0.00  0.00    +0.154 HD
ENDROOT
BRANCH   1  22
ATOM     17  C   UNL     1       1.281   1.220  -0.161  0.00  0.00    +0.044 C 
ATOM     18  C   UNL     1       0.638  -0.140  -0.080  0.00  0.00    -0.049 A 
ATOM     19  C   UNL     1       0.044  -0.691  -1.202  0.00  0.00    +0.004 A 
ATOM     20  C   UNL     1      -0.548  -1.938  -1.132  0.00  0.00    +0.005 A 
ATOM     21  C   UNL     1      -0.547  -2.640   0.058  0.00  0.00    -0.029 A 
ATOM     22  C   UNL     1       0.049  -2.090   1.185  0.00  0.00    +0.036 A 
ATOM     23  C   UNL     1       0.647  -0.838   1.111  0.00  0.00    +0.027 A 
ATOM     24  C   UNL     1      -1.193  -3.999   0.132  0.00  0.00    +0.045 C 
ENDBRANCH   1  22
BRANCH  10  25
ATOM     25  C   UNL     1       0.804   1.913  11.225  0.00  0.00    +0.244 C 
ATOM     26  O   UNL     1       0.752   3.086  10.912  0.00  0.00    -0.270 OA
ATOM     27  N   UNL     1       0.934   1.566  12.521  0.00  0.00    -0.307 N 
ATOM     28  H   UNL     1       0.976   0.630  12.771  0.00  0.00    +0.149 HD
BRANCH  27  29
ATOM     29  C   UNL     1       1.013   2.604  13.552  0.00  0.00    +0.141 C 
BRANCH  29  30
ATOM     30  C   UNL     1       1.154   1.957  14.906  0.00  0.00    -0.012 A 
ATOM     31  C   UNL     1       0.030   1.627  15.648  0.00  0.00    +0.008 A 
ATOM     32  C   UNL     1       0.208   1.034  16.887  0.00  0.00    +0.020 A 
ATOM     33  C   UNL     1       1.491   0.792  17.340  0.00  0.00    +0.111 A 
ATOM     34  N   UNL     1       2.538   1.119  16.608  0.00  0.00    -0.263 NA
ATOM     35  C   UNL     1       2.406   1.679  15.421  0.00  0.00    +0.115 A 
ENDBRANCH  29  30
ENDBRANCH  27  29
ENDBRANCH  10  25
TORSDOF 4
