REMARK  Name = ZINC18919347
REMARK  10 active torsions:
REMARK  status: ('A' for Active; 'I' for Inactive)
REMARK    1  A    between atoms: C_6  and  C_7
REMARK    2  A    between atoms: C_7  and  N_8
REMARK    3  A    between atoms: N_8  and  C_9
REMARK    4  A    between atoms: C_9  and  N_11
REMARK    5  A    between atoms: N_11  and  C_12
REMARK    6  A    between atoms: C_15  and  N_18
REMARK    7  A    between atoms: N_18  and  C_19
REMARK    8  A    between atoms: C_19  and  N_21
REMARK    9  A    between atoms: N_21  and  C_22
REMARK   10  A    between atoms: C_22  and  C_23
REMARK                            x       y       z     vdW  Elec       q    Type
REMARK                         _______ _______ _______ _____ _____    ______ ____
ROOT
ATOM      1  C   UNL     1       1.125   7.279   3.195  0.00  0.00    +0.072 C 
ATOM      2  C   UNL     1       2.554   7.824   3.154  0.00  0.00    +0.024 C 
ATOM      3  C   UNL     1       2.535   9.327   3.441  0.00  0.00    +0.024 C 
ATOM      4  C   UNL     1       1.934   9.574   4.826  0.00  0.00    +0.072 C 
ATOM      5  C   UNL     1       0.505   9.029   4.867  0.00  0.00    +0.024 C 
ATOM      6  C   UNL     1       0.524   7.526   4.580  0.00  0.00    +0.024 C 
ENDROOT
BRANCH   1   7
ATOM      7  N   UNL     1       1.143   5.840   2.920  0.00  0.00    -0.324 N 
ATOM      8  H   UNL     1       1.159   5.206   3.654  0.00  0.00    +0.148 HD
BRANCH   7   9
ATOM      9  C   UNL     1       1.138   5.398   1.647  0.00  0.00    +0.131 C 
ATOM     10  S   UNL     1       1.110   6.516   0.351  0.00  0.00    -0.019 S 
BRANCH   9  11
ATOM     11  N   UNL     1       1.155   4.074   1.393  0.00  0.00    -0.322 N 
ATOM     12  H   UNL     1       1.171   3.440   2.127  0.00  0.00    +0.148 HD
BRANCH  11  13
ATOM     13  C   UNL     1       1.149   3.593   0.010  0.00  0.00    +0.138 C 
BRANCH  13  19
ATOM     14  C   UNL     1      -0.017   1.378   0.010  0.00  0.00    +0.008 A 
ATOM     15  C   UNL     1       0.002  -0.004   0.002  0.00  0.00    +0.038 A 
ATOM     16  C   UNL     1       1.211  -0.679  -0.013  0.00  0.00    +0.123 A 
ATOM     17  C   UNL     1       2.399   0.031  -0.021  0.00  0.00    +0.038 A 
ATOM     18  C   UNL     1       2.378   1.413  -0.013  0.00  0.00    +0.008 A 
ATOM     19  C   UNL     1       1.171   2.086   0.002  0.00  0.00    -0.030 A 
ATOM     20  F   UNL     1       1.230  -2.030  -0.020  0.00  0.00    -0.205 F 
ENDBRANCH  13  19
ENDBRANCH  11  13
ENDBRANCH   9  11
ENDBRANCH   7   9
ENDBRANCH   1   7
BRANCH   4  21
ATOM     21  N   UNL     1       1.916  11.013   5.101  0.00  0.00    -0.324 N 
ATOM     22  H   UNL     1       1.117  11.531   4.918  0.00  0.00    +0.148 HD
BRANCH  21  23
ATOM     23  C   UNL     1       3.009  11.616   5.610  0.00  0.00    +0.131 C 
ATOM     24  S   UNL     1       4.419  10.700   5.934  0.00  0.00    -0.019 S 
BRANCH  23  25
ATOM     25  N   UNL     1       2.992  12.939   5.863  0.00  0.00    -0.322 N 
ATOM     26  H   UNL     1       2.193  13.458   5.679  0.00  0.00    +0.148 HD
BRANCH  25  27
ATOM     27  C   UNL     1       4.180  13.595   6.416  0.00  0.00    +0.138 C 
BRANCH  27  28
ATOM     28  C   UNL     1       3.902  15.064   6.604  0.00  0.00    -0.030 A 
ATOM     29  C   UNL     1       4.176  15.955   5.583  0.00  0.00    +0.008 A 
ATOM     30  C   UNL     1       3.916  17.302   5.753  0.00  0.00    +0.038 A 
ATOM     31  C   UNL     1       3.392  17.760   6.949  0.00  0.00    +0.123 A 
ATOM     32  C   UNL     1       3.123  16.867   7.973  0.00  0.00    +0.038 A 
ATOM     33  C   UNL     1       3.378  15.520   7.799  0.00  0.00    +0.008 A 
ATOM     34  F   UNL     1       3.142  19.077   7.118  0.00  0.00    -0.205 F 
ENDBRANCH  27  28
ENDBRANCH  25  27
ENDBRANCH  23  25
ENDBRANCH  21  23
ENDBRANCH   4  21
TORSDOF 10
