REMARK  Name = ZINC03522140
REMARK  9 active torsions:
REMARK  status: ('A' for Active; 'I' for Inactive)
REMARK    1  A    between atoms: C_1  and  C_2
REMARK    2  A    between atoms: C_2  and  C_4
REMARK    3  A    between atoms: C_2  and  S_17
REMARK    4  A    between atoms: N_6  and  C_7
REMARK    5  A    between atoms: C_10  and  S_13
REMARK    6  A    between atoms: S_13  and  N_16
REMARK    7  A    between atoms: S_17  and  C_18
REMARK    8  A    between atoms: C_21  and  C_24
REMARK    9  A    between atoms: N_22  and  C_23
REMARK                            x       y       z     vdW  Elec       q    Type
REMARK                         _______ _______ _______ _____ _____    ______ ____
ROOT
ATOM      1  C   UNL     1       2.889  -4.629  -2.028  0.00  0.00    +0.029 C 
ATOM      2  C   UNL     1       3.074  -4.150  -0.587  0.00  0.00    +0.137 C 
ENDROOT
BRANCH   2   3
ATOM      3  C   UNL     1       3.315  -2.663  -0.579  0.00  0.00    +0.230 C 
ATOM      4  O   UNL     1       4.448  -2.232  -0.561  0.00  0.00    -0.274 OA
ATOM      5  N   UNL     1       2.270  -1.811  -0.591  0.00  0.00    -0.285 N 
ATOM      6  H   UNL     1       1.365  -2.153  -0.530  0.00  0.00    +0.155 HD
BRANCH   5   7
ATOM      7  C   UNL     1       2.492  -0.433  -0.690  0.00  0.00    +0.034 A 
ATOM      8  C   UNL     1       3.553   0.048  -1.447  0.00  0.00    +0.025 A 
ATOM      9  C   UNL     1       3.769   1.408  -1.544  0.00  0.00    +0.030 A 
ATOM     10  C   UNL     1       2.930   2.292  -0.889  0.00  0.00    +0.105 A 
ATOM     11  C   UNL     1       1.873   1.816  -0.135  0.00  0.00    +0.030 A 
ATOM     12  C   UNL     1       1.652   0.456  -0.034  0.00  0.00    +0.025 A 
BRANCH  10  13
ATOM     13  S   UNL     1       3.209   4.027  -1.015  0.00  0.00    +0.056 S 
ATOM     14  O   UNL     1       2.615   4.618   0.132  0.00  0.00    -0.153 OA
ATOM     15  O   UNL     1       4.584   4.195  -1.333  0.00  0.00    -0.153 OA
BRANCH  13  16
ATOM     16  N   UNL     1       2.352   4.567  -2.325  0.00  0.00    -0.204 NA
ATOM     17  H   UNL     1       1.827   3.943  -2.851  0.00  0.00    +0.144 HD
ATOM     18  H   UNL     1       2.374   5.506  -2.566  0.00  0.00    +0.144 HD
ENDBRANCH  13  16
ENDBRANCH  10  13
ENDBRANCH   5   7
ENDBRANCH   2   3
BRANCH   2  19
ATOM     19  S   UNL     1       4.494  -4.995   0.151  0.00  0.00    -0.074 S 
BRANCH  19  20
ATOM     20  C   UNL     1       3.897  -6.653   0.153  0.00  0.00    +0.192 A 
ATOM     21  N   UNL     1       2.727  -7.061  -0.285  0.00  0.00    -0.122 NA
ATOM     22  N   UNL     1       2.618  -8.332  -0.135  0.00  0.00    -0.128 NA
ATOM     23  C   UNL     1       3.711  -8.815   0.408  0.00  0.00    +0.165 A 
ATOM     24  N   UNL     1       4.566  -7.755   0.604  0.00  0.00    -0.305 N 
ATOM     25  C   UNL     1       5.913  -7.799   1.180  0.00  0.00    +0.153 C 
BRANCH  23  26
ATOM     26  C   UNL     1       3.976 -10.231   0.740  0.00  0.00    +0.019 A 
ATOM     27  C   UNL     1       3.197 -11.241   0.174  0.00  0.00    +0.013 A 
ATOM     28  C   UNL     1       3.451 -12.560   0.485  0.00  0.00    +0.021 A 
ATOM     29  C   UNL     1       4.471 -12.883   1.364  0.00  0.00    +0.041 A 
ATOM     30  C   UNL     1       5.245 -11.885   1.933  0.00  0.00    +0.021 A 
ATOM     31  C   UNL     1       5.003 -10.562   1.626  0.00  0.00    +0.013 A 
ATOM     32 CL   UNL     1       4.782 -14.546   1.756  0.00  0.00    -0.084 Cl
ENDBRANCH  23  26
ENDBRANCH  19  20
ENDBRANCH   2  19
TORSDOF 7
