REMARK  Name = ZINC10786487
REMARK  7 active torsions:
REMARK  status: ('A' for Active; 'I' for Inactive)
REMARK    1  A    between atoms: C_1  and  O_2
REMARK    2  A    between atoms: O_2  and  C_3
REMARK    3  A    between atoms: C_6  and  N_9
REMARK    4  A    between atoms: C_13  and  S_15
REMARK    5  A    between atoms: S_15  and  C_16
REMARK    6  A    between atoms: C_16  and  C_17
REMARK    7  A    between atoms: C_23  and  C_28
REMARK                            x       y       z     vdW  Elec       q    Type
REMARK                         _______ _______ _______ _____ _____    ______ ____
ROOT
ATOM      1  C   UNL     1      -0.739   1.559  -0.425  0.00  0.00    +0.150 C 
ENDROOT
BRANCH   1   2
ATOM      2  C   UNL     1      -0.921   0.069  -0.556  0.00  0.00    +0.121 A 
ATOM      3  N   UNL     1      -0.341  -0.585  -1.595  0.00  0.00    -0.310 N 
ATOM      4  H   UNL     1       0.182  -0.084  -2.239  0.00  0.00    +0.170 HD
ATOM      5  C   UNL     1      -0.479  -1.915  -1.748  0.00  0.00    +0.260 A 
ATOM      6  O   UNL     1       0.049  -2.488  -2.686  0.00  0.00    -0.267 OA
ATOM      7  C   UNL     1      -1.254  -2.647  -0.792  0.00  0.00    +0.080 A 
ATOM      8  C   UNL     1      -1.546  -4.074  -0.740  0.00  0.00    +0.004 A 
ATOM      9  C   UNL     1      -2.312  -4.546   0.273  0.00  0.00    +0.056 A 
ATOM     10  S   UNL     1      -2.687  -3.085   1.222  0.00  0.00    -0.076 S 
ATOM     11  C   UNL     1      -1.815  -1.886   0.247  0.00  0.00    +0.116 A 
ATOM     12  N   UNL     1      -1.629  -0.572   0.335  0.00  0.00    -0.226 NA
BRANCH   8  13
ATOM     13  C   UNL     1      -1.016  -4.992  -1.776  0.00  0.00    -0.017 A 
ATOM     14  C   UNL     1      -1.184  -4.694  -3.128  0.00  0.00    +0.008 A 
ATOM     15  C   UNL     1      -0.683  -5.549  -4.088  0.00  0.00    +0.001 A 
ATOM     16  C   UNL     1      -0.025  -6.707  -3.712  0.00  0.00    +0.000 A 
ATOM     17  C   UNL     1       0.140  -7.011  -2.372  0.00  0.00    +0.001 A 
ATOM     18  C   UNL     1      -0.352  -6.160  -1.403  0.00  0.00    +0.008 A 
ENDBRANCH   8  13
ENDBRANCH   1   2
BRANCH   1  19
ATOM     19  S   UNL     1      -1.621   2.149   1.046  0.00  0.00    -0.089 S 
BRANCH  19  24
ATOM     20  N   UNL     1      -1.115   7.871   1.835  0.00  0.00    -0.292 N 
ATOM     21  C   UNL     1      -1.097   6.536   1.448  0.00  0.00    +0.187 A 
ATOM     22  N   UNL     1      -0.504   5.973   0.413  0.00  0.00    -0.125 NA
ATOM     23  N   UNL     1      -0.611   4.616   0.217  0.00  0.00    -0.133 NA
ATOM     24  C   UNL     1      -1.316   3.885   1.059  0.00  0.00    +0.160 A 
ATOM     25  S   UNL     1      -1.872   5.123   2.220  0.00  0.00    -0.024 S 
ATOM     26  H   UNL     1      -1.526   8.127   2.675  0.00  0.00    +0.154 HD
BRANCH  20  30
ATOM     27  C   UNL     1       0.600  10.774  -0.616  0.00  0.00    +0.120 A 
ATOM     28  C   UNL     1       0.124   9.594  -1.168  0.00  0.00    +0.047 A 
ATOM     29  C   UNL     1      -0.444   8.631  -0.357  0.00  0.00    +0.027 A 
ATOM     30  C   UNL     1      -0.539   8.845   1.012  0.00  0.00    +0.033 A 
ATOM     31  C   UNL     1      -0.067  10.030   1.563  0.00  0.00    +0.027 A 
ATOM     32  C   UNL     1       0.506  10.989   0.751  0.00  0.00    +0.047 A 
BRANCH  27  34
ATOM     33  C   UNL     1       1.629  12.912  -0.780  0.00  0.00    +0.277 C 
ATOM     34  O   UNL     1       1.160  11.721  -1.416  0.00  0.00    -0.495 OA
ENDBRANCH  27  34
ENDBRANCH  20  30
ENDBRANCH  19  24
ENDBRANCH   1  19
TORSDOF 6
