REMARK  Name = ZINC00987164
REMARK  10 active torsions:
REMARK  status: ('A' for Active; 'I' for Inactive)
REMARK    1  A    between atoms: C_1  and  C_2
REMARK    2  A    between atoms: C_2  and  O_3
REMARK    3  A    between atoms: O_3  and  C_4
REMARK    4  A    between atoms: C_6  and  C_12
REMARK    5  A    between atoms: C_9  and  O_10
REMARK    6  A    between atoms: C_15  and  C_26
REMARK    7  A    between atoms: C_21  and  N_25
REMARK    8  A    between atoms: C_22  and  C_23
REMARK    9  A    between atoms: C_28  and  C_32
REMARK   10  A    between atoms: C_30  and  C_31
REMARK                            x       y       z     vdW  Elec       q    Type
REMARK                         _______ _______ _______ _____ _____    ______ ____
ROOT
ATOM      1  C   UNL     1       0.335  -4.882   0.100  0.00  0.00    +0.102 C 
ATOM      2  C   UNL     1       0.622  -5.610  -1.187  0.00  0.00    +0.054 A 
ATOM      3  C   UNL     1       1.124  -5.111  -2.393  0.00  0.00    +0.101 A 
ATOM      4  N   UNL     1       1.209  -6.116  -3.244  0.00  0.00    -0.171 NA
ATOM      5  N   UNL     1       0.762  -7.280  -2.600  0.00  0.00    -0.246 N 
ATOM      6  H   UNL     1       0.716  -8.166  -2.991  0.00  0.00    +0.192 HD
ATOM      7  C   UNL     1       0.407  -6.949  -1.341  0.00  0.00    +0.223 A 
ATOM      8  O   UNL     1      -0.079  -7.732  -0.345  0.00  0.00    -0.423 OA
ATOM      9  C   UNL     1      -0.095  -7.219   0.901  0.00  0.00    +0.200 C 
ATOM     10  C   UNL     1       0.092  -5.908   1.179  0.00  0.00    +0.098 C 
ENDROOT
BRANCH   1  13
ATOM     11  C   UNL     1      -3.218  -3.800  -0.593  0.00  0.00    +0.163 A 
ATOM     12  C   UNL     1      -2.091  -4.591  -0.441  0.00  0.00    +0.054 A 
ATOM     13  C   UNL     1      -0.890  -4.019  -0.066  0.00  0.00    -0.030 A 
ATOM     14  C   UNL     1      -0.809  -2.657   0.158  0.00  0.00    +0.023 A 
ATOM     15  C   UNL     1      -1.930  -1.861   0.007  0.00  0.00    +0.063 A 
ATOM     16  C   UNL     1      -3.136  -2.428  -0.374  0.00  0.00    +0.173 A 
ATOM     17 BR   UNL     1      -1.816   0.001   0.316  0.00  0.00    -0.046 Br
BRANCH  16  18
ATOM     18  O   UNL     1      -4.239  -1.647  -0.528  0.00  0.00    -0.503 OA
ATOM     19  H   UNL     1      -4.764  -1.544   0.277  0.00  0.00    +0.292 HD
ENDBRANCH  16  18
BRANCH  11  20
ATOM     20  O   UNL     1      -4.401  -4.362  -0.961  0.00  0.00    -0.489 OA
BRANCH  20  22
ATOM     21  C   UNL     1      -5.857  -6.237  -1.408  0.00  0.00    +0.048 C 
ATOM     22  C   UNL     1      -4.433  -5.785  -1.083  0.00  0.00    +0.226 C 
ENDBRANCH  20  22
ENDBRANCH  11  20
ENDBRANCH   1  13
BRANCH   3  23
ATOM     23  C   UNL     1       1.497  -3.700  -2.666  0.00  0.00    +0.013 A 
ATOM     24  C   UNL     1       2.291  -2.989  -1.773  0.00  0.00    +0.021 A 
ATOM     25  C   UNL     1       2.609  -1.705  -2.057  0.00  0.00    -0.012 A 
ATOM     26  S   UNL     1       1.787  -1.449  -3.620  0.00  0.00    -0.098 S 
ATOM     27  C   UNL     1       1.072  -3.074  -3.804  0.00  0.00    -0.004 A 
ATOM     28  C   UNL     1       0.219  -3.615  -4.922  0.00  0.00    +0.052 C 
ATOM     29  C   UNL     1       3.445  -0.738  -1.258  0.00  0.00    +0.051 C 
ENDBRANCH   3  23
BRANCH   9  30
ATOM     30  N   UNL     1      -0.314  -8.076   1.951  0.00  0.00    -0.328 N 
ATOM     31  H   UNL     1      -0.451  -9.022   1.784  0.00  0.00    +0.145 HD
ATOM     32  H   UNL     1      -0.331  -7.737   2.859  0.00  0.00    +0.145 HD
ENDBRANCH   9  30
BRANCH  10  33
ATOM     33  C   UNL     1       0.058  -5.479   2.544  0.00  0.00    +0.101 C 
ATOM     34  N   UNL     1       0.032  -5.139   3.628  0.00  0.00    -0.191 NA
ENDBRANCH  10  33
TORSDOF 7
