REMARK  Name = ZINC50973286
REMARK  5 active torsions:
REMARK  status: ('A' for Active; 'I' for Inactive)
REMARK    1  A    between atoms: C_4  and  C_7
REMARK    2  A    between atoms: C_7  and  C_9
REMARK    3  A    between atoms: C_7  and  N_13
REMARK    4  A    between atoms: N_10  and  O_11
REMARK    5  A    between atoms: C_14  and  C_16
REMARK                            x       y       z     vdW  Elec       q    Type
REMARK                         _______ _______ _______ _____ _____    ______ ____
ROOT
ATOM      1  C   UNL     1       2.870  -0.461  -2.526  0.00  0.00    +0.143 C 
ENDROOT
BRANCH   1   5
ATOM      2  C   UNL     1      -0.019   1.526   0.010  0.00  0.00    +0.000 C 
ATOM      3  C   UNL     1       1.417   2.055  -0.000  0.00  0.00    +0.000 C 
ATOM      4  C   UNL     1       2.133   1.562  -1.259  0.00  0.00    +0.006 C 
ATOM      5  C   UNL     1       2.154   0.032  -1.268  0.00  0.00    +0.017 C 
ATOM      6  C   UNL     1       0.718  -0.497  -1.257  0.00  0.00    +0.006 C 
ATOM      7  C   UNL     1       0.002  -0.004   0.002  0.00  0.00    +0.000 C 
ENDBRANCH   1   5
BRANCH   1   8
ATOM      8  C   UNL     1       2.141   0.038  -3.747  0.00  0.00    +0.152 C 
ATOM      9  N   UNL     1       1.132  -0.622  -4.212  0.00  0.00    -0.075 NA
ATOM     10  N   UNL     1       2.550   1.198  -4.367  0.00  0.00    -0.342 N 
ATOM     11  H   UNL     1       3.307   1.693  -4.018  0.00  0.00    +0.144 HD
ATOM     12  H   UNL     1       2.081   1.519  -5.153  0.00  0.00    +0.144 HD
BRANCH   9  13
ATOM     13  O   UNL     1       0.448  -0.153  -5.360  0.00  0.00    -0.408 OA
ATOM     14  H   UNL     1      -0.292  -0.713  -5.632  0.00  0.00    +0.328 HD
ENDBRANCH   9  13
ENDBRANCH   1   8
BRANCH   1  15
ATOM     15  N   UNL     1       2.890  -1.926  -2.534  0.00  0.00    -0.303 N 
ATOM     16  C   UNL     1       3.848  -2.583  -3.217  0.00  0.00    +0.242 C 
ATOM     17  O   UNL     1       4.695  -1.962  -3.824  0.00  0.00    -0.273 OA
ATOM     18  H   UNL     1       2.213  -2.423  -2.049  0.00  0.00    +0.149 HD
BRANCH  16  19
ATOM     19  C   UNL     1       3.869  -4.090  -3.225  0.00  0.00    +0.204 C 
ATOM     20  C   UNL     1       4.140  -4.605  -1.809  0.00  0.00    +0.041 C 
ATOM     21  C   UNL     1       4.220  -6.134  -1.837  0.00  0.00    +0.005 C 
ATOM     22  C   UNL     1       5.306  -6.561  -2.828  0.00  0.00    +0.028 C 
ATOM     23  C   UNL     1       4.989  -5.971  -4.205  0.00  0.00    +0.161 C 
ATOM     24  O   UNL     1       4.899  -4.548  -4.103  0.00  0.00    -0.367 OA
ENDBRANCH  16  19
ENDBRANCH   1  15
TORSDOF 5
