REMARK  Name = ZINC20240266
REMARK  12 active torsions:
REMARK  status: ('A' for Active; 'I' for Inactive)
REMARK    1  A    between atoms: C_1  and  C_2
REMARK    2  A    between atoms: C_2  and  C_3
REMARK    3  A    between atoms: C_2  and  N_4
REMARK    4  A    between atoms: N_4  and  C_5
REMARK    5  A    between atoms: N_4  and  C_31
REMARK    6  A    between atoms: C_5  and  C_6
REMARK    7  A    between atoms: C_6  and  N_7
REMARK    8  A    between atoms: C_8  and  C_10
REMARK    9  A    between atoms: N_12  and  C_30
REMARK   10  A    between atoms: C_16  and  S_21
REMARK   11  A    between atoms: S_21  and  N_24
REMARK   12  A    between atoms: C_31  and  C_32
REMARK                            x       y       z     vdW  Elec       q    Type
REMARK                         _______ _______ _______ _____ _____    ______ ____
ROOT
ATOM      1  C   UNL     1      -1.322   8.914  -0.660  0.00  0.00    +0.100 A 
ATOM      2  C   UNL     1      -0.239   9.292   0.107  0.00  0.00    +0.102 A 
ATOM      3  N   UNL     1       0.899   8.586   0.132  0.00  0.00    -0.349 N 
ATOM      4  C   UNL     1       1.079   7.433  -0.600  0.00  0.00    +0.053 A 
ATOM      5  C   UNL     1       2.283   6.736  -0.538  0.00  0.00    +0.028 A 
ATOM      6  C   UNL     1       2.451   5.585  -1.275  0.00  0.00    +0.030 A 
ATOM      7  C   UNL     1       1.430   5.106  -2.085  0.00  0.00    +0.106 A 
ATOM      8  C   UNL     1       0.233   5.782  -2.166  0.00  0.00    +0.042 A 
ATOM      9  C   UNL     1       0.047   6.946  -1.421  0.00  0.00    +0.048 A 
ATOM     10  C   UNL     1      -1.223   7.694  -1.477  0.00  0.00    +0.202 A 
ATOM     11  O   UNL     1      -2.151   7.318  -2.171  0.00  0.00    -0.286 OA
ATOM     12  C   UNL     1       1.999   9.060   0.975  0.00  0.00    +0.149 C 
ENDROOT
BRANCH   1  14
ATOM     13  N   UNL     1      -2.634  10.831   0.092  0.00  0.00    -0.313 N 
ATOM     14  C   UNL     1      -2.555   9.716  -0.660  0.00  0.00    +0.249 C 
ATOM     15  O   UNL     1      -3.504   9.373  -1.340  0.00  0.00    -0.270 OA
ATOM     16  H   UNL     1      -1.776  11.142   0.707  0.00  0.00    +0.149 HD
BRANCH  13  17
ATOM     17  C   UNL     1      -3.861  11.630   0.092  0.00  0.00    +0.086 C 
BRANCH  17  18
ATOM     18  C   UNL     1      -3.688  12.833   1.022  0.00  0.00    -0.059 C 
BRANCH  18  19
ATOM     19  N   UNL     1      -4.863  13.708   0.916  0.00  0.00    +0.385 N 
ATOM     20  H   UNL     1      -5.085  13.847  -0.152  0.00  0.00    -0.081 HD
BRANCH  19  22
ATOM     21  C   UNL     1      -6.770  12.224   0.518  0.00  0.00    -0.014 C 
ATOM     22  C   UNL     1      -6.038  13.089   1.545  0.00  0.00    -0.074 C 
ATOM     23  C   UNL     1      -5.589  12.217   2.719  0.00  0.00    -0.014 C 
ENDBRANCH  19  22
BRANCH  19  24
ATOM     24  C   UNL     1      -4.590  15.029   1.496  0.00  0.00    -0.043 C 
BRANCH  24  25
ATOM     25  C   UNL     1      -5.642  16.006   1.040  0.00  0.00    -0.064 A 
ATOM     26  C   UNL     1      -5.505  16.652  -0.174  0.00  0.00    +0.002 A 
ATOM     27  C   UNL     1      -6.473  17.545  -0.596  0.00  0.00    +0.000 A 
ATOM     28  C   UNL     1      -7.573  17.798   0.202  0.00  0.00    +0.000 A 
ATOM     29  C   UNL     1      -7.708  17.156   1.418  0.00  0.00    +0.000 A 
ATOM     30  C   UNL     1      -6.742  16.260   1.837  0.00  0.00    +0.002 A 
ENDBRANCH  24  25
ENDBRANCH  19  24
ENDBRANCH  18  19
ENDBRANCH  17  18
ENDBRANCH  13  17
ENDBRANCH   1  14
BRANCH   7  31
ATOM     31  S   UNL     1       1.669   3.631  -3.018  0.00  0.00    +0.061 S 
ATOM     32  O   UNL     1       3.072   3.485  -3.195  0.00  0.00    -0.153 OA
ATOM     33  O   UNL     1       0.766   3.692  -4.113  0.00  0.00    -0.153 OA
BRANCH  31  34
ATOM     34  N   UNL     1       1.179   2.366  -2.069  0.00  0.00    -0.177 NA
ATOM     35  C   UNL     1      -0.214   1.899  -2.106  0.00  0.00    +0.109 C 
ATOM     36  C   UNL     1      -0.222   0.393  -2.386  0.00  0.00    +0.017 C 
ATOM     37  C   UNL     1       0.653  -0.319  -1.352  0.00  0.00    +0.003 C 
ATOM     38  C   UNL     1       2.093   0.186  -1.465  0.00  0.00    +0.017 C 
ATOM     39  C   UNL     1       2.127   1.689  -1.174  0.00  0.00    +0.109 C 
ENDBRANCH  31  34
ENDBRANCH   7  31
TORSDOF 9
