REMARK  Name = ZINC19583784
REMARK  4 active torsions:
REMARK  status: ('A' for Active; 'I' for Inactive)
REMARK    1  A    between atoms: C_1  and  C_2
REMARK    2  A    between atoms: C_3  and  C_8
REMARK    3  A    between atoms: N_5  and  C_7
REMARK    4  A    between atoms: C_8  and  N_9
REMARK                            x       y       z     vdW  Elec       q    Type
REMARK                         _______ _______ _______ _____ _____    ______ ____
ROOT
ATOM      1  N   UNL     1      -2.041   1.175   1.282  0.00  0.00    +0.383 N 
ATOM      2  C   UNL     1      -0.692   1.751   1.360  0.00  0.00    -0.076 C 
ATOM      3  C   UNL     1       0.111   1.337   0.124  0.00  0.00    +0.016 C 
ATOM      4  C   UNL     1      -0.610   1.821  -1.134  0.00  0.00    +0.069 C 
ATOM      5  C   UNL     1      -2.033   1.264  -1.166  0.00  0.00    +0.016 C 
ATOM      6  C   UNL     1      -2.769   1.681   0.110  0.00  0.00    -0.076 C 
ATOM      7  C   UNL     1       0.158   1.337  -2.383  0.00  0.00    +0.069 C 
ATOM      8  C   UNL     1       0.064   2.562  -3.314  0.00  0.00    +0.099 C 
ATOM      9  C   UNL     1       0.076   3.733  -2.318  0.00  0.00    +0.192 C 
ATOM     10  O   UNL     1      -0.641   3.252  -1.166  0.00  0.00    -0.371 OA
ATOM     11  C   UNL     1       1.236   2.622  -4.246  0.00  0.00    +0.049 A 
ATOM     12  C   UNL     1       2.480   3.073  -4.052  0.00  0.00    +0.025 A 
ATOM     13  C   UNL     1       3.186   2.905  -5.264  0.00  0.00    +0.020 A 
ATOM     14  C   UNL     1       2.336   2.351  -6.157  0.00  0.00    +0.092 A 
ATOM     15  N   UNL     1       1.142   2.168  -5.548  0.00  0.00    -0.316 N 
ATOM     16  C   UNL     1      -0.055   1.618  -6.034  0.00  0.00    +0.067 A 
ATOM     17  C   UNL     1      -0.096   0.905  -7.217  0.00  0.00    +0.029 A 
ATOM     18  C   UNL     1      -1.295   0.376  -7.660  0.00  0.00    +0.022 A 
ATOM     19  C   UNL     1      -2.451   0.560  -6.923  0.00  0.00    +0.043 A 
ATOM     20  C   UNL     1      -2.418   1.273  -5.737  0.00  0.00    +0.045 A 
ATOM     21  C   UNL     1      -1.222   1.807  -5.286  0.00  0.00    +0.053 A 
ATOM     22  N   UNL     1      -1.175   2.535  -4.087  0.00  0.00    -0.329 N 
ATOM     23 CL   UNL     1      -3.951  -0.108  -7.487  0.00  0.00    -0.083 Cl
ATOM     24  H   UNL     1      -2.060   3.082  -3.728  0.00  0.00    +0.147 HD
ATOM     25  H   UNL     1      -1.935   0.086   1.165  0.00  0.00    -0.081 HD
ENDROOT
BRANCH   1  26
ATOM     26  C   UNL     1      -2.794   1.428   2.518  0.00  0.00    -0.040 C 
BRANCH  26  29
ATOM     27  C   UNL     1      -3.228  -1.691   2.879  0.00  0.00    +0.068 C 
ATOM     28  C   UNL     1      -2.425  -0.798   3.790  0.00  0.00    +0.061 A 
ATOM     29  C   UNL     1      -2.233   0.578   3.629  0.00  0.00    -0.024 A 
ATOM     30  C   UNL     1      -1.461   1.013   4.652  0.00  0.00    +0.110 A 
ATOM     31  N   UNL     1      -1.169  -0.051   5.428  0.00  0.00    -0.274 N 
ATOM     32  N   UNL     1      -1.782  -1.177   4.864  0.00  0.00    -0.177 NA
ATOM     33  C   UNL     1      -0.355  -0.032   6.646  0.00  0.00    +0.172 C 
ENDBRANCH  26  29
ENDBRANCH   1  26
TORSDOF 2
