REMARK  Name = ZINC40467720
REMARK  6 active torsions:
REMARK  status: ('A' for Active; 'I' for Inactive)
REMARK    1  A    between atoms: C_9  and  C_11
REMARK    2  A    between atoms: C_12  and  C_22
REMARK    3  A    between atoms: C_22  and  C_23
REMARK    4  A    between atoms: C_23  and  C_24
REMARK    5  A    between atoms: C_24  and  C_25
REMARK    6  A    between atoms: C_31  and  N_33
REMARK                            x       y       z     vdW  Elec       q    Type
REMARK                         _______ _______ _______ _____ _____    ______ ____
ROOT
ATOM      1  C   UNL     1       4.997  -2.557  -0.059  0.00  0.00    +0.069 A 
ATOM      2  C   UNL     1       6.143  -2.003  -0.530  0.00  0.00    -0.013 A 
ATOM      3  C   UNL     1       7.200  -2.996  -0.352  0.00  0.00    +0.006 A 
ATOM      4  C   UNL     1       8.569  -3.014  -0.639  0.00  0.00    +0.048 A 
ATOM      5  C   UNL     1       9.313  -4.134  -0.343  0.00  0.00    +0.124 A 
ATOM      6  C   UNL     1       8.710  -5.244   0.239  0.00  0.00    +0.040 A 
ATOM      7  C   UNL     1       7.363  -5.242   0.527  0.00  0.00    +0.029 A 
ATOM      8  C   UNL     1       6.592  -4.121   0.237  0.00  0.00    +0.047 A 
ATOM      9  N   UNL     1       5.258  -3.825   0.408  0.00  0.00    -0.353 N 
ATOM     10  H   UNL     1       4.600  -4.422   0.798  0.00  0.00    +0.166 HD
ATOM     11  F   UNL     1      10.636  -4.155  -0.619  0.00  0.00    -0.205 F 
ENDROOT
BRANCH   1  20
ATOM     12  C   UNL     1      -0.016   1.358   0.009  0.00  0.00    +0.001 A 
ATOM     13  C   UNL     1       1.169   2.089   0.002  0.00  0.00    +0.002 A 
ATOM     14  C   UNL     1       2.379   1.465  -0.013  0.00  0.00    +0.028 A 
ATOM     15  C   UNL     1       2.439   0.060  -0.021  0.00  0.00    +0.072 A 
ATOM     16  C   UNL     1       1.231  -0.682  -0.013  0.00  0.00    +0.000 A 
ATOM     17  C   UNL     1       0.002  -0.004   0.002  0.00  0.00    +0.010 A 
ATOM     18  C   UNL     1       1.289  -2.090  -0.021  0.00  0.00    +0.012 A 
ATOM     19  C   UNL     1       2.513  -2.687  -0.036  0.00  0.00    +0.030 A 
ATOM     20  C   UNL     1       3.676  -1.897  -0.043  0.00  0.00    +0.088 A 
ATOM     21  N   UNL     1       3.613  -0.577  -0.035  0.00  0.00    -0.245 NA
ENDBRANCH   1  20
BRANCH   2  22
ATOM     22  C   UNL     1       6.296  -0.626  -1.124  0.00  0.00    +0.038 C 
BRANCH  22  23
ATOM     23  C   UNL     1       6.630   0.373  -0.015  0.00  0.00    +0.014 C 
BRANCH  23  24
ATOM     24  C   UNL     1       6.785   1.771  -0.618  0.00  0.00    +0.096 C 
BRANCH  24  25
ATOM     25  C   UNL     1       7.113   2.756   0.475  0.00  0.00    +0.219 C 
ATOM     26  O   UNL     1       7.213   2.377   1.623  0.00  0.00    -0.275 OA
ATOM     27  N   UNL     1       7.295   4.057   0.177  0.00  0.00    -0.265 N 
ATOM     28  C   UNL     1       7.598   4.965   1.184  0.00  0.00    +0.166 A 
ATOM     29  N   UNL     1       7.750   4.738   2.471  0.00  0.00    -0.231 NA
ATOM     30  C   UNL     1       8.039   5.718   3.308  0.00  0.00    +0.153 A 
ATOM     31  C   UNL     1       8.171   6.960   2.780  0.00  0.00    +0.185 A 
ATOM     32  S   UNL     1       7.866   6.622   1.054  0.00  0.00    -0.028 S 
ATOM     33  H   UNL     1       7.216   4.360  -0.741  0.00  0.00    +0.157 HD
BRANCH  31  34
ATOM     34  N   UNL     1       8.486   8.242   3.450  0.00  0.00    +0.065 N 
ATOM     35  O   UNL     1       8.667   8.271   4.645  0.00  0.00    -0.126 OA
ATOM     36  O   UNL     1       8.563   9.260   2.802  0.00  0.00    -0.126 OA
ENDBRANCH  31  34
ENDBRANCH  24  25
ENDBRANCH  23  24
ENDBRANCH  22  23
ENDBRANCH   2  22
TORSDOF 6
