REMARK  Name = ZINC09867601
REMARK  5 active torsions:
REMARK  status: ('A' for Active; 'I' for Inactive)
REMARK    1  A    between atoms: C_1  and  C_2
REMARK    2  A    between atoms: N_11  and  C_15
REMARK    3  A    between atoms: C_15  and  N_67
REMARK    4  A    between atoms: N_18  and  S_21
REMARK    5  A    between atoms: S_21  and  C_24
REMARK                            x       y       z     vdW  Elec       q    Type
REMARK                         _______ _______ _______ _____ _____    ______ ____
ROOT
ATOM      1  C   UNL     1      -3.765  -1.881   1.029  0.00  0.00    -0.059 C 
ATOM      2  C   UNL     1      -3.540  -3.276   0.436  0.00  0.00    +0.091 C 
ATOM      3  N   UNL     1      -4.141  -4.269   1.339  0.00  0.00    -0.180 NA
ATOM      4  C   UNL     1      -3.789  -4.216   2.766  0.00  0.00    +0.091 C 
ATOM      5  C   UNL     1      -4.004  -2.784   3.267  0.00  0.00    -0.059 C 
ATOM      6  N   UNL     1      -3.232  -1.859   2.409  0.00  0.00    +0.392 N 
ATOM      7  H   UNL     1      -2.251  -2.162   2.391  0.00  0.00    -0.079 HD
ENDROOT
BRANCH   3   8
ATOM      8  S   UNL     1      -5.186  -5.418   0.764  0.00  0.00    +0.061 S 
ATOM      9  O   UNL     1      -4.895  -5.576  -0.618  0.00  0.00    -0.153 OA
ATOM     10  O   UNL     1      -5.140  -6.503   1.680  0.00  0.00    -0.153 OA
BRANCH   8  11
ATOM     11  C   UNL     1      -6.810  -4.742   0.864  0.00  0.00    +0.106 A 
ATOM     12  C   UNL     1      -7.569  -4.927   2.005  0.00  0.00    +0.029 A 
ATOM     13  C   UNL     1      -8.838  -4.391   2.077  0.00  0.00    +0.006 A 
ATOM     14  C   UNL     1      -9.365  -3.678   1.008  0.00  0.00    -0.044 A 
ATOM     15  C   UNL     1      -8.610  -3.497  -0.129  0.00  0.00    -0.042 A 
ATOM     16  C   UNL     1      -7.330  -4.032  -0.198  0.00  0.00    +0.032 A 
ATOM     17  C   UNL     1      -9.113  -2.727  -1.322  0.00  0.00    +0.035 C 
ATOM     18  C   UNL     1     -10.633  -2.587  -1.269  0.00  0.00    +0.005 C 
ATOM     19  C   UNL     1     -11.021  -2.043   0.111  0.00  0.00    +0.005 C 
ATOM     20  C   UNL     1     -10.762  -3.134   1.148  0.00  0.00    +0.035 C 
ENDBRANCH   8  11
ENDBRANCH   3   8
BRANCH   6  21
ATOM     21  C   UNL     1      -3.301  -0.488   2.955  0.00  0.00    +0.043 C 
BRANCH  21  31
ATOM     22  C   UNL     1      -1.536   3.561   2.539  0.00  0.00    +0.010 C 
ATOM     23  C   UNL     1      -0.790   3.101   1.286  0.00  0.00    +0.018 C 
ATOM     24  C   UNL     1      -1.527   3.600   0.040  0.00  0.00    +0.006 C 
ATOM     25  C   UNL     1      -0.790   3.122  -1.213  0.00  0.00    +0.000 C 
ATOM     26  C   UNL     1      -0.753   1.593  -1.233  0.00  0.00    +0.003 C 
ATOM     27  C   UNL     1      -0.013   1.086   0.008  0.00  0.00    +0.035 C 
ATOM     28  C   UNL     1      -0.726   1.577   1.263  0.00  0.00    +0.115 C 
ATOM     29  C   UNL     1      -2.117   0.991   1.342  0.00  0.00    +0.245 C 
ATOM     30  O   UNL     1      -3.023   1.142   0.552  0.00  0.00    -0.273 OA
ATOM     31  N   UNL     1      -2.136   0.263   2.478  0.00  0.00    -0.241 N 
ATOM     32  C   UNL     1      -0.960   0.312   3.115  0.00  0.00    +0.308 C 
ATOM     33  O   UNL     1      -0.734  -0.264   4.161  0.00  0.00    -0.252 OA
ATOM     34  N   UNL     1      -0.056   1.072   2.468  0.00  0.00    -0.285 N 
ATOM     35  H   UNL     1       0.857   1.250   2.743  0.00  0.00    +0.151 HD
ENDBRANCH  21  31
ENDBRANCH   6  21
TORSDOF 4
