REMARK  Name = ZINC20899164
REMARK  5 active torsions:
REMARK  status: ('A' for Active; 'I' for Inactive)
REMARK    1  A    between atoms: C_1  and  C_2
REMARK    2  A    between atoms: C_5  and  C_7
REMARK    3  A    between atoms: N_24  and  C_27
REMARK    4  A    between atoms: C_32  and  O_33
REMARK    5  A    between atoms: O_33  and  C_34
REMARK                            x       y       z     vdW  Elec       q    Type
REMARK                         _______ _______ _______ _____ _____    ______ ____
ROOT
ATOM      1  C   UNL     1       1.172  -3.951  -0.065  0.00  0.00    +0.094 C 
ATOM      2  C   UNL     1       1.970  -4.242  -1.303  0.00  0.00    +0.071 C 
ATOM      3  C   UNL     1       2.117  -5.701  -1.553  0.00  0.00    +0.027 C 
ATOM      4  N   UNL     1       2.296  -6.662  -0.717  0.00  0.00    -0.316 N 
ATOM      5  C   UNL     1       2.234  -6.942   0.621  0.00  0.00    +0.045 A 
ATOM      6  C   UNL     1       2.292  -8.311   0.934  0.00  0.00    +0.024 A 
ATOM      7  C   UNL     1       2.243  -8.759   2.232  0.00  0.00    +0.002 A 
ATOM      8  C   UNL     1       2.131  -7.848   3.267  0.00  0.00    +0.001 A 
ATOM      9  C   UNL     1       2.073  -6.505   2.980  0.00  0.00    +0.016 A 
ATOM     10  C   UNL     1       2.124  -6.031   1.661  0.00  0.00    +0.030 A 
ATOM     11  S   UNL     1       2.048  -4.297   1.454  0.00  0.00    -0.114 S 
ATOM     12  C   UNL     1       2.052  -6.081  -2.882  0.00  0.00    +0.117 C 
ATOM     13  C   UNL     1       2.269  -5.112  -3.970  0.00  0.00    +0.258 C 
ATOM     14  N   UNL     1       2.191  -5.553  -5.242  0.00  0.00    -0.235 N 
ATOM     15  C   UNL     1       1.923  -6.836  -5.524  0.00  0.00    +0.320 C 
ATOM     16  O   UNL     1       1.867  -7.170  -6.691  0.00  0.00    -0.251 OA
ATOM     17  N   UNL     1       1.716  -7.771  -4.585  0.00  0.00    -0.186 N 
ATOM     18  C   UNL     1       1.768  -7.473  -3.270  0.00  0.00    +0.265 C 
ATOM     19  O   UNL     1       1.583  -8.332  -2.428  0.00  0.00    -0.269 OA
ATOM     20  O   UNL     1       2.513  -3.944  -3.728  0.00  0.00    -0.270 OA
ATOM     21  H   UNL     1       2.331  -4.928  -5.971  0.00  0.00    +0.159 HD
ATOM     22  H   UNL     1       2.567  -7.459  -1.198  0.00  0.00    +0.152 HD
ENDROOT
BRANCH   1  27
ATOM     23  C   UNL     1       0.682   1.693  -0.078  0.00  0.00    +0.051 C 
ATOM     24  C   UNL     1       0.549   0.192  -0.081  0.00  0.00    -0.013 A 
ATOM     25  C   UNL     1      -0.574  -0.566  -0.108  0.00  0.00    +0.011 A 
ATOM     26  C   UNL     1      -0.455  -1.943  -0.105  0.00  0.00    +0.012 A 
ATOM     27  C   UNL     1       0.782  -2.495  -0.075  0.00  0.00    +0.004 A 
ATOM     28  S   UNL     1       1.831  -1.051  -0.056  0.00  0.00    -0.097 S 
ENDBRANCH   1  27
BRANCH  17  29
ATOM     29  C   UNL     1       1.442  -9.089  -4.979  0.00  0.00    +0.087 A 
ATOM     30  C   UNL     1       2.481  -9.992  -5.156  0.00  0.00    +0.028 A 
ATOM     31  C   UNL     1       2.209 -11.290  -5.544  0.00  0.00    +0.002 A 
ATOM     32  C   UNL     1       0.903 -11.692  -5.759  0.00  0.00    +0.004 A 
ATOM     33  C   UNL     1      -0.137 -10.798  -5.585  0.00  0.00    +0.047 A 
ATOM     34  C   UNL     1       0.127  -9.496  -5.189  0.00  0.00    +0.142 A 
BRANCH  34  35
ATOM     35  O   UNL     1      -0.895  -8.618  -5.012  0.00  0.00    -0.493 OA
ATOM     36  C   UNL     1      -2.218  -9.106  -5.245  0.00  0.00    +0.277 C 
ENDBRANCH  34  35
ENDBRANCH  17  29
TORSDOF 3
