REMARK  Name = ZINC41641972
REMARK  10 active torsions:
REMARK  status: ('A' for Active; 'I' for Inactive)
REMARK    1  A    between atoms: C_1  and  C_2
REMARK    2  A    between atoms: C_2  and  C_29
REMARK    3  A    between atoms: C_7  and  N_11
REMARK    4  A    between atoms: C_12  and  C_14
REMARK    5  A    between atoms: N_16  and  C_17
REMARK    6  A    between atoms: C_17  and  C_18
REMARK    7  A    between atoms: C_18  and  C_20
REMARK    8  A    between atoms: C_18  and  N_26
REMARK    9  A    between atoms: N_26  and  C_27
REMARK   10  A    between atoms: N_26  and  C_28
REMARK                            x       y       z     vdW  Elec       q    Type
REMARK                         _______ _______ _______ _____ _____    ______ ____
ROOT
ATOM      1  C   UNL     1      -0.767  -6.973   4.303  0.00  0.00    +0.299 C 
ATOM      2  O   UNL     1       0.253  -6.798   4.938  0.00  0.00    -0.265 OA
ATOM      3  N   UNL     1      -1.537  -8.051   4.551  0.00  0.00    -0.309 N 
ATOM      4  H   UNL     1      -2.352  -8.191   4.044  0.00  0.00    +0.149 HD
ENDROOT
BRANCH   1   6
ATOM      5  N   UNL     1      -0.397  -4.917   3.001  0.00  0.00    -0.278 N 
ATOM      6  C   UNL     1      -1.167  -5.995   3.249  0.00  0.00    +0.303 C 
ATOM      7  O   UNL     1      -2.187  -6.170   2.614  0.00  0.00    -0.265 OA
ATOM      8  H   UNL     1       0.456  -4.817   3.453  0.00  0.00    +0.155 HD
BRANCH   5  15
ATOM      9  C   UNL     1      -3.191  -1.858  -2.876  0.00  0.00    +0.104 C 
ATOM     10  C   UNL     1      -3.157  -2.124  -1.370  0.00  0.00    +0.248 C 
ATOM     11  O   UNL     1      -2.194  -1.269  -0.727  0.00  0.00    -0.448 OA
ATOM     12  C   UNL     1      -1.673  -2.011   0.295  0.00  0.00    +0.167 A 
ATOM     13  C   UNL     1      -0.959  -1.643   1.424  0.00  0.00    +0.051 A 
ATOM     14  C   UNL     1      -0.536  -2.605   2.321  0.00  0.00    +0.027 A 
ATOM     15  C   UNL     1      -0.826  -3.945   2.093  0.00  0.00    +0.038 A 
ATOM     16  C   UNL     1      -1.542  -4.317   0.963  0.00  0.00    +0.073 A 
ATOM     17  C   UNL     1      -1.965  -3.353   0.063  0.00  0.00    +0.169 A 
ATOM     18  O   UNL     1      -2.669  -3.452  -1.102  0.00  0.00    -0.448 OA
ATOM     19  C   UNL     1      -4.547  -1.929  -0.760  0.00  0.00    +0.104 C 
ENDBRANCH   5  15
ENDBRANCH   1   6
BRANCH   3  20
ATOM     20  C   UNL     1      -1.144  -9.011   5.586  0.00  0.00    +0.089 C 
BRANCH  20  21
ATOM     21  C   UNL     1      -2.216 -10.095   5.709  0.00  0.00    -0.049 C 
BRANCH  21  22
ATOM     22  C   UNL     1      -3.488  -9.489   6.307  0.00  0.00    -0.023 C 
ATOM     23  C   UNL     1      -3.963  -8.331   5.428  0.00  0.00    +0.002 C 
ATOM     24  C   UNL     1      -5.234  -7.725   6.025  0.00  0.00    +0.000 C 
ATOM     25  C   UNL     1      -4.940  -7.208   7.435  0.00  0.00    +0.000 C 
ATOM     26  C   UNL     1      -4.465  -8.367   8.314  0.00  0.00    +0.000 C 
ATOM     27  C   UNL     1      -3.193  -8.973   7.716  0.00  0.00    +0.002 C 
ENDBRANCH  21  22
BRANCH  21  28
ATOM     28  N   UNL     1      -2.514 -10.644   4.379  0.00  0.00    +0.379 N 
ATOM     29  C   UNL     1      -1.309 -11.284   3.834  0.00  0.00    -0.096 C 
ATOM     30  C   UNL     1      -3.590 -11.637   4.489  0.00  0.00    -0.096 C 
ATOM     31  H   UNL     1      -2.805  -9.898   3.765  0.00  0.00    -0.082 HD
ENDBRANCH  21  28
ENDBRANCH  20  21
ENDBRANCH   3  20
TORSDOF 6
