REMARK  Name = ZINC36206183
REMARK  12 active torsions:
REMARK  status: ('A' for Active; 'I' for Inactive)
REMARK    1  A    between atoms: C_1  and  C_2
REMARK    2  A    between atoms: C_2  and  C_3
REMARK    3  A    between atoms: C_3  and  C_4
REMARK    4  A    between atoms: C_4  and  C_6
REMARK    5  A    between atoms: C_4  and  O_30
REMARK    6  A    between atoms: C_6  and  N_7
REMARK    7  A    between atoms: N_7  and  C_8
REMARK    8  A    between atoms: N_7  and  C_27
REMARK    9  A    between atoms: C_8  and  C_9
REMARK   10  A    between atoms: C_15  and  C_20
REMARK   11  A    between atoms: C_27  and  C_28
REMARK   12  A    between atoms: C_27  and  C_29
REMARK                            x       y       z     vdW  Elec       q    Type
REMARK                         _______ _______ _______ _____ _____    ______ ____
ROOT
ATOM      1  C   UNL     1      -3.170  -5.682  -1.756  0.00  0.00    +0.094 A 
ATOM      2  N   UNL     1      -4.005  -6.169  -2.710  0.00  0.00    -0.312 N 
ATOM      3  H   UNL     1      -4.879  -5.766  -2.827  0.00  0.00    +0.170 HD
ATOM      4  C   UNL     1      -3.642  -7.199  -3.496  0.00  0.00    +0.260 A 
ATOM      5  O   UNL     1      -4.403  -7.625  -4.348  0.00  0.00    -0.267 OA
ATOM      6  C   UNL     1      -2.349  -7.787  -3.318  0.00  0.00    +0.080 A 
ATOM      7  C   UNL     1      -1.733  -8.897  -4.035  0.00  0.00    +0.004 A 
ATOM      8  C   UNL     1      -0.482  -9.284  -3.687  0.00  0.00    +0.056 A 
ATOM      9  S   UNL     1      -0.059  -8.168  -2.363  0.00  0.00    -0.076 S 
ATOM     10  C   UNL     1      -1.556  -7.217  -2.308  0.00  0.00    +0.116 A 
ATOM     11  N   UNL     1      -1.982  -6.194  -1.573  0.00  0.00    -0.229 NA
ENDROOT
BRANCH   7  12
ATOM     12  C   UNL     1      -2.462  -9.589  -5.125  0.00  0.00    -0.016 A 
ATOM     13  C   UNL     1      -3.768 -10.033  -4.921  0.00  0.00    +0.010 A 
ATOM     14  C   UNL     1      -4.441 -10.676  -5.939  0.00  0.00    +0.020 A 
ATOM     15  C   UNL     1      -3.823 -10.882  -7.161  0.00  0.00    +0.041 A 
ATOM     16  C   UNL     1      -2.526 -10.444  -7.367  0.00  0.00    +0.020 A 
ATOM     17  C   UNL     1      -1.845  -9.794  -6.358  0.00  0.00    +0.010 A 
ATOM     18 CL   UNL     1      -4.676 -11.692  -8.437  0.00  0.00    -0.084 Cl
ENDBRANCH   7  12
BRANCH   1  19
ATOM     19  C   UNL     1      -3.619  -4.526  -0.899  0.00  0.00    -0.003 C 
BRANCH  19  20
ATOM     20  N   UNL     1      -2.632  -4.292   0.163  0.00  0.00    +0.388 N 
ATOM     21  H   UNL     1      -1.703  -4.435  -0.203  0.00  0.00    -0.081 HD
BRANCH  20  22
ATOM     22  C   UNL     1      -2.872  -5.230   1.269  0.00  0.00    -0.074 C 
ATOM     23  C   UNL     1      -4.282  -5.015   1.823  0.00  0.00    -0.014 C 
ATOM     24  C   UNL     1      -2.737  -6.666   0.758  0.00  0.00    -0.014 C 
ENDBRANCH  20  22
BRANCH  20  25
ATOM     25  C   UNL     1      -2.758  -2.914   0.654  0.00  0.00    -0.046 C 
BRANCH  25  26
ATOM     26  C   UNL     1      -1.627  -2.618   1.641  0.00  0.00    +0.098 C 
BRANCH  26  27
ATOM     27  O   UNL     1      -1.823  -3.380   2.833  0.00  0.00    -0.394 OA
ATOM     28  H   UNL     1      -2.685  -3.244   3.250  0.00  0.00    +0.210 HD
ENDBRANCH  26  27
BRANCH  26  29
ATOM     29  C   UNL     1      -1.625  -1.127   1.983  0.00  0.00    +0.029 C 
BRANCH  29  31
ATOM     30  C   UNL     1      -0.419   0.683   3.212  0.00  0.00    +0.004 C 
ATOM     31  C   UNL     1      -0.420  -0.808   2.870  0.00  0.00    -0.001 C 
ENDBRANCH  29  31
ENDBRANCH  26  29
ENDBRANCH  25  26
ENDBRANCH  20  25
ENDBRANCH  19  20
ENDBRANCH   1  19
TORSDOF 9
