REMARK  Name = ZINC41019492
REMARK  10 active torsions:
REMARK  status: ('A' for Active; 'I' for Inactive)
REMARK    1  A    between atoms: C_1  and  C_2
REMARK    2  A    between atoms: C_2  and  S_3
REMARK    3  A    between atoms: S_3  and  C_4
REMARK    4  A    between atoms: C_9  and  C_26
REMARK    5  A    between atoms: C_11  and  C_15
REMARK    6  A    between atoms: C_12  and  C_14
REMARK    7  A    between atoms: N_17  and  C_18
REMARK    8  A    between atoms: C_22  and  C_25
REMARK    9  A    between atoms: C_23  and  C_24
REMARK   10  A    between atoms: C_29  and  O_32
REMARK                            x       y       z     vdW  Elec       q    Type
REMARK                         _______ _______ _______ _____ _____    ______ ____
ROOT
ATOM      1  C   UNL     1      -1.542  -2.381  -0.170  0.00  0.00    +0.210 A 
ATOM      2  N   UNL     1      -0.379  -3.048  -0.141  0.00  0.00    -0.187 NA
ATOM      3  C   UNL     1      -0.613  -4.332  -0.120  0.00  0.00    +0.219 A 
ATOM      4  N   UNL     1      -1.957  -4.516  -0.130  0.00  0.00    -0.220 N 
ATOM      5  N   UNL     1      -2.533  -3.247  -0.161  0.00  0.00    -0.141 NA
ATOM      6  C   UNL     1      -2.593  -5.830  -0.103  0.00  0.00    +0.177 C 
ATOM      7  C   UNL     1      -1.559  -6.893  -0.362  0.00  0.00    +0.060 C 
ATOM      8  C   UNL     1      -0.240  -6.651  -0.343  0.00  0.00    +0.018 C 
ATOM      9  N   UNL     1       0.272  -5.401  -0.093  0.00  0.00    -0.287 N 
ATOM     10  C   UNL     1       0.713  -7.790  -0.602  0.00  0.00    +0.061 C 
ATOM     11  H   UNL     1       1.214  -5.271   0.094  0.00  0.00    +0.155 HD
ENDROOT
BRANCH   6  12
ATOM     12  C   UNL     1      -3.219  -6.057   1.248  0.00  0.00    -0.018 A 
ATOM     13  C   UNL     1      -2.433  -6.037   2.386  0.00  0.00    +0.009 A 
ATOM     14  C   UNL     1      -3.005  -6.246   3.626  0.00  0.00    +0.046 A 
ATOM     15  C   UNL     1      -4.369  -6.475   3.730  0.00  0.00    +0.117 A 
ATOM     16  C   UNL     1      -5.156  -6.494   2.587  0.00  0.00    +0.046 A 
ATOM     17  C   UNL     1      -4.580  -6.280   1.350  0.00  0.00    +0.009 A 
BRANCH  15  18
ATOM     18  O   UNL     1      -4.934  -6.680   4.949  0.00  0.00    -0.507 OA
ATOM     19  H   UNL     1      -5.237  -5.871   5.383  0.00  0.00    +0.292 HD
ENDBRANCH  15  18
ENDBRANCH   6  12
BRANCH   7  20
ATOM     20  C   UNL     1      -1.999  -8.209  -0.639  0.00  0.00    +0.248 C 
ATOM     21  O   UNL     1      -2.465  -8.478  -1.731  0.00  0.00    -0.270 OA
ATOM     22  N   UNL     1      -1.903  -9.165   0.307  0.00  0.00    -0.281 N 
ATOM     23  H   UNL     1      -1.589  -8.937   1.196  0.00  0.00    +0.155 HD
BRANCH  22  24
ATOM     24  C   UNL     1      -2.254 -10.484   0.005  0.00  0.00    +0.037 A 
ATOM     25  C   UNL     1      -3.295 -10.743  -0.876  0.00  0.00    +0.023 A 
ATOM     26  C   UNL     1      -3.640 -12.047  -1.172  0.00  0.00    +0.002 A 
ATOM     27  C   UNL     1      -2.949 -13.095  -0.591  0.00  0.00    +0.004 A 
ATOM     28  C   UNL     1      -1.911 -12.841   0.287  0.00  0.00    -0.046 A 
ATOM     29  C   UNL     1      -1.558 -11.538   0.583  0.00  0.00    -0.026 A 
ATOM     30  C   UNL     1      -0.423 -11.262   1.535  0.00  0.00    +0.046 C 
ATOM     31  C   UNL     1      -1.161 -13.986   0.918  0.00  0.00    +0.044 C 
ENDBRANCH  22  24
ENDBRANCH   7  20
BRANCH   1  32
ATOM     32  S   UNL     1      -1.716  -0.628  -0.207  0.00  0.00    -0.085 S 
BRANCH  32  34
ATOM     33  C   UNL     1      -0.012   1.512  -0.236  0.00  0.00    +0.016 C 
ATOM     34  C   UNL     1      -0.008  -0.018  -0.205  0.00  0.00    +0.074 C 
ENDBRANCH  32  34
ENDBRANCH   1  32
TORSDOF 6
