REMARK  Name = ZINC12850094
REMARK  16 active torsions:
REMARK  status: ('A' for Active; 'I' for Inactive)
REMARK    1  A    between atoms: C_1  and  C_2
REMARK    2  A    between atoms: C_2  and  C_3
REMARK    3  A    between atoms: C_3  and  C_4
REMARK    4  A    between atoms: C_4  and  N_5
REMARK    5  A    between atoms: C_6  and  N_34
REMARK    6  A    between atoms: C_7  and  N_14
REMARK    7  A    between atoms: N_14  and  C_15
REMARK    8  A    between atoms: C_15  and  C_16
REMARK    9  A    between atoms: C_16  and  C_17
REMARK   10  A    between atoms: C_17  and  C_18
REMARK   11  A    between atoms: C_19  and  C_21
REMARK   12  A    between atoms: C_21  and  S_22
REMARK   13  A    between atoms: S_22  and  C_23
REMARK   14  A    between atoms: C_23  and  C_24
REMARK   15  A    between atoms: N_26  and  C_27
REMARK   16  A    between atoms: C_30  and  C_33
REMARK                            x       y       z     vdW  Elec       q    Type
REMARK                         _______ _______ _______ _____ _____    ______ ____
ROOT
ATOM      1  N   UNL     1      -5.312  -3.540   2.452  0.00  0.00    -0.264 N 
ATOM      2  C   UNL     1      -4.722  -3.236   3.627  0.00  0.00    +0.230 C 
ATOM      3  O   UNL     1      -3.592  -2.795   3.642  0.00  0.00    -0.274 OA
ENDROOT
BRANCH   1   6
ATOM      4  N   UNL     1      -4.523  -2.051  -0.813  0.00  0.00    -0.280 N 
ATOM      5  C   UNL     1      -5.184  -2.316   0.363  0.00  0.00    +0.127 A 
ATOM      6  C   UNL     1      -4.658  -3.246   1.237  0.00  0.00    +0.140 A 
ATOM      7  C   UNL     1      -3.457  -3.895   0.895  0.00  0.00    +0.277 A 
ATOM      8  O   UNL     1      -2.970  -4.721   1.649  0.00  0.00    -0.266 OA
ATOM      9  N   UNL     1      -2.849  -3.599  -0.270  0.00  0.00    -0.273 N 
ATOM     10  H   UNL     1      -2.021  -4.046  -0.506  0.00  0.00    +0.173 HD
ATOM     11  C   UNL     1      -3.379  -2.694  -1.111  0.00  0.00    +0.331 A 
ATOM     12  O   UNL     1      -2.812  -2.449  -2.159  0.00  0.00    -0.246 OA
BRANCH   5  13
ATOM     13  N   UNL     1      -6.355  -1.663   0.665  0.00  0.00    -0.343 N 
ATOM     14  H   UNL     1      -6.682  -0.960   0.083  0.00  0.00    +0.144 HD
ATOM     15  H   UNL     1      -6.854  -1.905   1.461  0.00  0.00    +0.144 HD
ENDBRANCH   5  13
BRANCH   4  16
ATOM     16  C   UNL     1      -5.070  -1.066  -1.750  0.00  0.00    +0.128 C 
BRANCH  16  17
ATOM     17  C   UNL     1      -6.016  -1.765  -2.729  0.00  0.00    +0.021 C 
BRANCH  17  19
ATOM     18  C   UNL     1      -7.534  -1.435  -4.686  0.00  0.00    +0.004 C 
ATOM     19  C   UNL     1      -6.588  -0.736  -3.707  0.00  0.00    -0.002 C 
ENDBRANCH  17  19
ENDBRANCH  16  17
ENDBRANCH   4  16
ENDBRANCH   1   6
BRANCH   1  20
ATOM     20  C   UNL     1      -6.633  -4.175   2.438  0.00  0.00    +0.114 C 
BRANCH  20  21
ATOM     21  C   UNL     1      -6.472  -5.689   2.579  0.00  0.00    +0.019 C 
BRANCH  21  22
ATOM     22  C   UNL     1      -7.851  -6.352   2.564  0.00  0.00    -0.002 C 
ATOM     23  C   UNL     1      -7.690  -7.867   2.706  0.00  0.00    +0.004 C 
ENDBRANCH  21  22
ENDBRANCH  20  21
ENDBRANCH   1  20
BRANCH   2  24
ATOM     24  C   UNL     1      -5.467  -3.446   4.920  0.00  0.00    +0.165 C 
BRANCH  24  25
ATOM     25  S   UNL     1      -4.414  -2.949   6.311  0.00  0.00    -0.142 S 
BRANCH  25  26
ATOM     26  C   UNL     1      -5.443  -3.258   7.773  0.00  0.00    +0.165 C 
BRANCH  26  27
ATOM     27  C   UNL     1      -4.677  -2.882   9.015  0.00  0.00    +0.227 C 
ATOM     28  O   UNL     1      -3.548  -2.448   8.923  0.00  0.00    -0.275 OA
ATOM     29  N   UNL     1      -5.246  -3.029  10.228  0.00  0.00    -0.285 N 
ATOM     30  H   UNL     1      -6.117  -3.448  10.307  0.00  0.00    +0.155 HD
BRANCH  29  31
ATOM     31  C   UNL     1      -4.581  -2.575  11.372  0.00  0.00    +0.033 A 
ATOM     32  C   UNL     1      -4.697  -3.273  12.567  0.00  0.00    +0.023 A 
ATOM     33  C   UNL     1      -4.039  -2.823  13.695  0.00  0.00    +0.005 A 
ATOM     34  C   UNL     1      -3.265  -1.679  13.635  0.00  0.00    -0.050 A 
ATOM     35  C   UNL     1      -3.147  -0.981  12.447  0.00  0.00    +0.005 A 
ATOM     36  C   UNL     1      -3.798  -1.430  11.314  0.00  0.00    +0.023 A 
ATOM     37  C   UNL     1      -2.549  -1.190  14.868  0.00  0.00    +0.044 C 
ENDBRANCH  29  31
ENDBRANCH  26  27
ENDBRANCH  25  26
ENDBRANCH  24  25
ENDBRANCH   2  24
TORSDOF 13
