REMARK  Name = ZINC05030889
REMARK  11 active torsions:
REMARK  status: ('A' for Active; 'I' for Inactive)
REMARK    1  A    between atoms: C_1  and  C_2
REMARK    2  A    between atoms: C_2  and  N_3
REMARK    3  A    between atoms: N_3  and  C_4
REMARK    4  A    between atoms: N_3  and  C_6
REMARK    5  A    between atoms: C_4  and  C_5
REMARK    6  A    between atoms: C_9  and  C_13
REMARK    7  A    between atoms: C_10  and  O_12
REMARK    8  A    between atoms: C_18  and  C_31
REMARK    9  A    between atoms: C_18  and  C_32
REMARK   10  A    between atoms: C_24  and  C_30
REMARK   11  A    between atoms: C_25  and  C_29
REMARK                            x       y       z     vdW  Elec       q    Type
REMARK                         _______ _______ _______ _____ _____    ______ ____
ROOT
ATOM      1  C   UNL     1       0.352  -6.207  -1.598  0.00  0.00    +0.139 C 
ATOM      2  C   UNL     1      -1.080  -6.630  -1.380  0.00  0.00    +0.037 C 
ATOM      3  C   UNL     1      -1.948  -6.280  -2.441  0.00  0.00    +0.163 C 
ATOM      4  C   UNL     1      -3.416  -6.585  -2.409  0.00  0.00    +0.086 C 
ATOM      5  C   UNL     1      -3.875  -6.614  -0.946  0.00  0.00    -0.023 C 
ATOM      6  C   UNL     1      -3.026  -7.652  -0.213  0.00  0.00    +0.058 C 
ATOM      7  C   UNL     1      -1.556  -7.278  -0.302  0.00  0.00    +0.017 C 
ATOM      8  N   UNL     1      -0.805  -7.662   0.761  0.00  0.00    -0.316 N 
ATOM      9  C   UNL     1       0.120  -6.857   1.415  0.00  0.00    +0.053 A 
ATOM     10  C   UNL     1      -0.041  -6.459   2.730  0.00  0.00    +0.028 A 
ATOM     11  C   UNL     1       0.944  -5.696   3.334  0.00  0.00    -0.046 A 
ATOM     12  C   UNL     1       2.079  -5.338   2.630  0.00  0.00    -0.046 A 
ATOM     13  C   UNL     1       2.234  -5.720   1.309  0.00  0.00    +0.028 A 
ATOM     14  C   UNL     1       1.239  -6.465   0.695  0.00  0.00    +0.050 A 
ATOM     15  N   UNL     1       1.295  -6.777  -0.659  0.00  0.00    -0.331 N 
ATOM     16  C   UNL     1       3.154  -4.526   3.305  0.00  0.00    +0.044 C 
ATOM     17  C   UNL     1       0.778  -5.253   4.765  0.00  0.00    +0.044 C 
ATOM     18  C   UNL     1      -5.351  -7.008  -0.873  0.00  0.00    +0.011 C 
ATOM     19  C   UNL     1      -3.672  -5.237  -0.311  0.00  0.00    +0.011 C 
ATOM     20  O   UNL     1      -1.488  -5.713  -3.412  0.00  0.00    -0.292 OA
ATOM     21  H   UNL     1       1.980  -7.385  -0.979  0.00  0.00    +0.147 HD
ATOM     22  H   UNL     1      -0.924  -8.567   1.091  0.00  0.00    +0.152 HD
ENDROOT
BRANCH   1  26
ATOM     23  C   UNL     1       0.566  -1.947  -1.314  0.00  0.00    +0.017 A 
ATOM     24  C   UNL     1       0.237  -2.701  -0.203  0.00  0.00    +0.022 A 
ATOM     25  C   UNL     1       0.167  -4.079  -0.295  0.00  0.00    +0.011 A 
ATOM     26  C   UNL     1       0.427  -4.706  -1.499  0.00  0.00    +0.019 A 
ATOM     27  C   UNL     1       0.758  -3.951  -2.615  0.00  0.00    +0.124 A 
ATOM     28  C   UNL     1       0.821  -2.569  -2.521  0.00  0.00    +0.067 A 
BRANCH  23  29
ATOM     29  N   UNL     1       0.636  -0.554  -1.218  0.00  0.00    -0.394 NA
ATOM     30  H   UNL     1       0.882  -0.167  -2.116  0.00  0.00    +0.126 HD
BRANCH  29  32
ATOM     31  C   UNL     1      -1.701  -0.286  -1.899  0.00  0.00    +0.022 C 
ATOM     32  C   UNL     1      -0.670  -0.027  -0.799  0.00  0.00    +0.081 C 
ENDBRANCH  29  32
BRANCH  29  33
ATOM     33  C   UNL     1       1.655  -0.182  -0.227  0.00  0.00    +0.081 C 
ATOM     34  C   UNL     1       3.034  -0.621  -0.725  0.00  0.00    +0.022 C 
ENDBRANCH  29  33
ENDBRANCH  23  29
BRANCH  27  35
ATOM     35  O   UNL     1       1.015  -4.566  -3.800  0.00  0.00    -0.506 OA
ATOM     36  H   UNL     1       0.253  -4.608  -4.394  0.00  0.00    +0.292 HD
ENDBRANCH  27  35
ENDBRANCH   1  26
TORSDOF 5
