REMARK  Name = ZINC20940656
REMARK  9 active torsions:
REMARK  status: ('A' for Active; 'I' for Inactive)
REMARK    1  A    between atoms: C_1  and  C_2
REMARK    2  A    between atoms: C_5  and  N_8
REMARK    3  A    between atoms: C_9  and  C_11
REMARK    4  A    between atoms: C_17  and  C_38
REMARK    5  A    between atoms: C_18  and  C_29
REMARK    6  A    between atoms: C_19  and  C_21
REMARK    7  A    between atoms: C_26  and  O_27
REMARK    8  A    between atoms: O_27  and  C_28
REMARK    9  A    between atoms: N_31  and  C_32
REMARK                            x       y       z     vdW  Elec       q    Type
REMARK                         _______ _______ _______ _____ _____    ______ ____
ROOT
ATOM      1  C   UNL     1      -1.489   4.121   2.530  0.00  0.00    +0.096 A 
ATOM      2  C   UNL     1      -1.623   2.867   3.178  0.00  0.00    +0.149 A 
ATOM      3  N   UNL     1      -1.548   1.929   2.272  0.00  0.00    -0.176 NA
ATOM      4  N   UNL     1      -1.364   2.514   1.022  0.00  0.00    -0.238 N 
ATOM      5  C   UNL     1      -1.332   3.860   1.183  0.00  0.00    +0.134 A 
ATOM      6  N   UNL     1      -1.170   4.731   0.121  0.00  0.00    -0.302 N 
ATOM      7  C   UNL     1      -1.306   4.215  -1.145  0.00  0.00    +0.017 C 
ATOM      8  C   UNL     1      -1.339   2.894  -1.373  0.00  0.00    +0.060 C 
ATOM      9  C   UNL     1      -1.219   1.865  -0.282  0.00  0.00    +0.179 C 
ATOM     10  C   UNL     1      -1.421   5.161  -2.312  0.00  0.00    +0.061 C 
ATOM     11  H   UNL     1      -0.943   5.791   0.309  0.00  0.00    +0.153 HD
ENDROOT
BRANCH   9  12
ATOM     12  C   UNL     1       0.131   1.200  -0.365  0.00  0.00    +0.023 A 
ATOM     13  C   UNL     1       1.282   1.955  -0.244  0.00  0.00    +0.009 A 
ATOM     14  C   UNL     1       2.521   1.347  -0.326  0.00  0.00    +0.001 A 
ATOM     15  C   UNL     1       2.611  -0.018  -0.528  0.00  0.00    +0.004 A 
ATOM     16  C   UNL     1       1.464  -0.778  -0.650  0.00  0.00    +0.046 A 
ATOM     17  C   UNL     1       0.219  -0.169  -0.569  0.00  0.00    +0.126 A 
BRANCH  17  18
ATOM     18  O   UNL     1      -0.911  -0.914  -0.687  0.00  0.00    -0.495 OA
ATOM     19  C   UNL     1      -0.745  -2.318  -0.895  0.00  0.00    +0.277 C 
ENDBRANCH  17  18
ENDBRANCH   9  12
BRANCH   1  21
ATOM     20  N   UNL     1      -1.675   5.544   4.504  0.00  0.00    -0.281 N 
ATOM     21  C   UNL     1      -1.513   5.443   3.169  0.00  0.00    +0.253 C 
ATOM     22  O   UNL     1      -1.387   6.447   2.494  0.00  0.00    -0.270 OA
ATOM     23  H   UNL     1      -1.712   4.636   5.123  0.00  0.00    +0.155 HD
BRANCH  20  28
ATOM     24  C   UNL     1      -2.160  10.651   6.924  0.00  0.00    +0.044 C 
ATOM     25  C   UNL     1      -2.031   9.294   6.281  0.00  0.00    -0.050 A 
ATOM     26  C   UNL     1      -2.743   8.221   6.786  0.00  0.00    +0.005 A 
ATOM     27  C   UNL     1      -2.627   6.976   6.198  0.00  0.00    +0.023 A 
ATOM     28  C   UNL     1      -1.794   6.803   5.100  0.00  0.00    +0.034 A 
ATOM     29  C   UNL     1      -1.077   7.882   4.599  0.00  0.00    +0.023 A 
ATOM     30  C   UNL     1      -1.202   9.125   5.188  0.00  0.00    +0.005 A 
ENDBRANCH  20  28
ENDBRANCH   1  21
BRANCH   8  31
ATOM     31  C   UNL     1      -1.494   2.446  -2.707  0.00  0.00    +0.248 C 
ATOM     32  O   UNL     1      -1.593   3.254  -3.612  0.00  0.00    -0.270 OA
ATOM     33  N   UNL     1      -1.531   1.126  -2.974  0.00  0.00    -0.282 N 
ATOM     34  H   UNL     1      -1.367   0.396  -2.167  0.00  0.00    +0.155 HD
BRANCH  33  35
ATOM     35  C   UNL     1      -1.779   0.683  -4.277  0.00  0.00    +0.034 A 
ATOM     36  C   UNL     1      -2.507  -0.481  -4.489  0.00  0.00    +0.023 A 
ATOM     37  C   UNL     1      -2.755  -0.913  -5.778  0.00  0.00    +0.002 A 
ATOM     38  C   UNL     1      -2.269  -0.194  -6.855  0.00  0.00    +0.000 A 
ATOM     39  C   UNL     1      -1.540   0.962  -6.646  0.00  0.00    +0.002 A 
ATOM     40  C   UNL     1      -1.294   1.402  -5.361  0.00  0.00    +0.023 A 
ENDBRANCH  33  35
ENDBRANCH   8  31
TORSDOF 6
