REMARK  Name = ZINC25297191
REMARK  7 active torsions:
REMARK  status: ('A' for Active; 'I' for Inactive)
REMARK    1  A    between atoms: C_1  and  C_2
REMARK    2  A    between atoms: C_2  and  C_4
REMARK    3  A    between atoms: C_2  and  N_30
REMARK    4  A    between atoms: N_6  and  C_7
REMARK    5  A    between atoms: C_10  and  N_13
REMARK    6  A    between atoms: C_14  and  C_16
REMARK    7  A    between atoms: N_19  and  C_21
REMARK                            x       y       z     vdW  Elec       q    Type
REMARK                         _______ _______ _______ _____ _____    ______ ____
ROOT
ATOM      1  N   UNL     1      -1.206   1.894   0.030  0.00  0.00    -0.280 N 
ATOM      2  C   UNL     1      -0.026   1.243   0.015  0.00  0.00    +0.269 C 
ATOM      3  O   UNL     1      -0.003   0.028  -0.007  0.00  0.00    -0.268 OA
ATOM      4  H   UNL     1      -1.229   2.990   0.126  0.00  0.00    +0.155 HD
ENDROOT
BRANCH   2   5
ATOM      5  C   UNL     1       1.238   2.006   0.019  0.00  0.00    +0.151 A 
ATOM      6  C   UNL     1       2.545   1.467   0.005  0.00  0.00    +0.006 A 
ATOM      7  C   UNL     1       3.381   2.528   0.013  0.00  0.00    +0.049 A 
ATOM      8  N   UNL     1       2.604   3.645   0.038  0.00  0.00    -0.236 N 
ATOM      9  N   UNL     1       1.362   3.319   0.042  0.00  0.00    -0.161 NA
ATOM     10  C   UNL     1       4.818   2.060  -0.006  0.00  0.00    +0.056 C 
ATOM     11  C   UNL     1       4.754   0.586  -0.464  0.00  0.00    +0.011 C 
ATOM     12  C   UNL     1       3.329   0.177  -0.030  0.00  0.00    +0.040 C 
BRANCH   8  13
ATOM     13  C   UNL     1       3.089   4.959   0.058  0.00  0.00    +0.066 A 
ATOM     14  C   UNL     1       4.256   5.261   0.748  0.00  0.00    +0.028 A 
ATOM     15  C   UNL     1       4.735   6.556   0.760  0.00  0.00    +0.002 A 
ATOM     16  C   UNL     1       4.047   7.555   0.095  0.00  0.00    +0.000 A 
ATOM     17  C   UNL     1       2.882   7.259  -0.588  0.00  0.00    +0.002 A 
ATOM     18  C   UNL     1       2.401   5.965  -0.609  0.00  0.00    +0.028 A 
ENDBRANCH   8  13
ENDBRANCH   2   5
BRANCH   1  22
ATOM     19  C   UNL     1      -4.771  -0.244  -0.289  0.00  0.00    +0.034 A 
ATOM     20  C   UNL     1      -3.694  -0.789   0.397  0.00  0.00    +0.025 A 
ATOM     21  C   UNL     1      -2.513  -0.081   0.503  0.00  0.00    +0.025 A 
ATOM     22  C   UNL     1      -2.403   1.176  -0.077  0.00  0.00    +0.034 A 
ATOM     23  C   UNL     1      -3.483   1.724  -0.757  0.00  0.00    +0.025 A 
ATOM     24  C   UNL     1      -4.661   1.013  -0.869  0.00  0.00    +0.025 A 
BRANCH  19  27
ATOM     25  C   UNL     1      -6.710  -0.874  -1.519  0.00  0.00    +0.242 C 
ATOM     26  O   UNL     1      -6.384  -0.108  -2.401  0.00  0.00    -0.273 OA
ATOM     27  N   UNL     1      -5.969  -0.963  -0.396  0.00  0.00    -0.284 N 
ATOM     28  H   UNL     1      -6.305  -1.599   0.435  0.00  0.00    +0.155 HD
BRANCH  25  30
ATOM     29  C   UNL     1      -7.554  -3.204  -1.607  0.00  0.00    +0.042 C 
ATOM     30  C   UNL     1      -7.943  -1.726  -1.677  0.00  0.00    +0.191 C 
BRANCH  30  31
ATOM     31  N   UNL     1      -8.566  -1.446  -2.973  0.00  0.00    -0.240 N 
ATOM     32  C   UNL     1      -8.247  -1.998  -4.156  0.00  0.00    +0.219 A 
ATOM     33  N   UNL     1      -9.035  -1.487  -5.068  0.00  0.00    -0.223 NA
ATOM     34  C   UNL     1      -9.861  -0.604  -4.508  0.00  0.00    +0.245 A 
ATOM     35  N   UNL     1      -9.612  -0.544  -3.226  0.00  0.00    -0.158 NA
ENDBRANCH  30  31
ENDBRANCH  25  30
ENDBRANCH  19  27
ENDBRANCH   1  22
TORSDOF 6
