REMARK  Name = ZINC39252261
REMARK  9 active torsions:
REMARK  status: ('A' for Active; 'I' for Inactive)
REMARK    1  A    between atoms: C_1  and  C_2
REMARK    2  A    between atoms: C_2  and  C_3
REMARK    3  A    between atoms: C_2  and  C_4
REMARK    4  A    between atoms: C_4  and  C_5
REMARK    5  A    between atoms: C_9  and  N_12
REMARK    6  A    between atoms: C_13  and  C_15
REMARK    7  A    between atoms: N_20  and  C_22
REMARK    8  A    between atoms: C_22  and  C_23
REMARK    9  A    between atoms: C_23  and  C_24
REMARK                            x       y       z     vdW  Elec       q    Type
REMARK                         _______ _______ _______ _____ _____    ______ ____
ROOT
ATOM      1  C   UNL     1      -1.292  -7.605  -2.926  0.00  0.00    +0.101 C 
ATOM      2  C   UNL     1      -0.245  -7.507  -4.060  0.00  0.00    +0.110 C 
ATOM      3  C   UNL     1      -0.332  -8.845  -4.761  0.00  0.00    +0.216 C 
ATOM      4  O   UNL     1       0.504  -9.286  -5.522  0.00  0.00    -0.276 OA
ATOM      5  N   UNL     1      -1.469  -9.474  -4.418  0.00  0.00    -0.300 N 
ATOM      6  C   UNL     1      -2.265  -8.666  -3.486  0.00  0.00    +0.121 C 
ENDROOT
BRANCH   1   8
ATOM      7  N   UNL     1      -1.296  -5.212  -2.299  0.00  0.00    -0.290 N 
ATOM      8  C   UNL     1      -1.992  -6.285  -2.723  0.00  0.00    +0.220 C 
ATOM      9  O   UNL     1      -3.181  -6.190  -2.941  0.00  0.00    -0.275 OA
ATOM     10  H   UNL     1      -0.344  -5.289  -2.125  0.00  0.00    +0.151 HD
BRANCH   7  14
ATOM     11  C   UNL     1      -1.416  -2.058  -0.121  0.00  0.00    +0.130 C 
ATOM     12  N   UNL     1      -2.802  -2.614  -0.219  0.00  0.00    -0.241 NA
ATOM     13  N   UNL     1      -2.767  -3.933  -0.840  0.00  0.00    -0.227 NA
ATOM     14  C   UNL     1      -1.976  -3.929  -2.101  0.00  0.00    +0.216 C 
ATOM     15  S   UNL     1      -0.763  -2.582  -1.766  0.00  0.00    -0.102 S 
ATOM     16  H   UNL     1      -3.240  -2.653   0.689  0.00  0.00    +0.142 HD
ATOM     17  H   UNL     1      -2.419  -4.627  -0.196  0.00  0.00    +0.143 HD
BRANCH  11  18
ATOM     18  C   UNL     1      -1.433  -0.534   0.013  0.00  0.00    +0.034 C 
BRANCH  18  20
ATOM     19  C   UNL     1      -0.019   1.526   0.010  0.00  0.00    +0.007 C 
ATOM     20  C   UNL     1       0.002  -0.004   0.002  0.00  0.00    -0.015 C 
ATOM     21  C   UNL     1       0.742  -0.511   1.242  0.00  0.00    +0.007 C 
ENDBRANCH  18  20
ENDBRANCH  11  18
ENDBRANCH   7  14
ENDBRANCH   1   8
BRANCH   5  22
ATOM     22  C   UNL     1      -1.863 -10.796  -4.910  0.00  0.00    +0.112 C 
BRANCH  22  23
ATOM     23  C   UNL     1      -1.324 -11.873  -3.967  0.00  0.00    +0.056 C 
BRANCH  23  24
ATOM     24  C   UNL     1      -1.730 -13.233  -4.474  0.00  0.00    -0.021 A 
ATOM     25  C   UNL     1      -1.025 -14.035  -5.478  0.00  0.00    +0.006 A 
ATOM     26  C   UNL     1       0.134 -13.843  -6.232  0.00  0.00    +0.048 A 
ATOM     27  C   UNL     1       0.540 -14.819  -7.117  0.00  0.00    +0.124 A 
ATOM     28  C   UNL     1      -0.198 -15.988  -7.261  0.00  0.00    +0.040 A 
ATOM     29  C   UNL     1      -1.344 -16.189  -6.523  0.00  0.00    +0.029 A 
ATOM     30  C   UNL     1      -1.772 -15.218  -5.625  0.00  0.00    +0.047 A 
ATOM     31  N   UNL     1      -2.847 -15.129  -4.767  0.00  0.00    -0.360 N 
ATOM     32  C   UNL     1      -2.801 -13.943  -4.087  0.00  0.00    +0.087 A 
ATOM     33  F   UNL     1       1.661 -14.638  -7.849  0.00  0.00    -0.205 F 
ATOM     34  H   UNL     1      -3.531 -15.807  -4.659  0.00  0.00    +0.165 HD
ENDBRANCH  23  24
ENDBRANCH  22  23
ENDBRANCH   5  22
TORSDOF 7
