REMARK  Name = ZINC45521944
REMARK  9 active torsions:
REMARK  status: ('A' for Active; 'I' for Inactive)
REMARK    1  A    between atoms: C_1  and  C_2
REMARK    2  A    between atoms: C_2  and  N_3
REMARK    3  A    between atoms: C_7  and  C_9
REMARK    4  A    between atoms: C_9  and  N_10
REMARK    5  A    between atoms: N_10  and  C_11
REMARK    6  A    between atoms: C_11  and  N_13
REMARK    7  A    between atoms: N_13  and  N_14
REMARK    8  A    between atoms: C_15  and  C_17
REMARK    9  A    between atoms: C_19  and  N_25
REMARK                            x       y       z     vdW  Elec       q    Type
REMARK                         _______ _______ _______ _____ _____    ______ ____
ROOT
ATOM      1  N   UNL     1       1.860  -1.248   3.754  0.00  0.00    -0.230 N 
ATOM      2  C   UNL     1       2.466  -0.802   4.872  0.00  0.00    +0.280 C 
ATOM      3  O   UNL     1       3.634  -1.068   5.079  0.00  0.00    -0.267 OA
ATOM      4  H   UNL     1       0.928  -1.035   3.590  0.00  0.00    +0.173 HD
ENDROOT
BRANCH   2   5
ATOM      5  C   UNL     1       1.708   0.012   5.850  0.00  0.00    +0.149 A 
ATOM      6  C   UNL     1       2.342   0.473   7.000  0.00  0.00    +0.094 A 
ATOM      7  C   UNL     1       1.614   1.240   7.912  0.00  0.00    +0.067 A 
ATOM      8  C   UNL     1       0.276   1.511   7.629  0.00  0.00    +0.100 A 
ATOM      9  C   UNL     1      -0.283   1.015   6.462  0.00  0.00    +0.150 A 
ATOM     10  N   UNL     1       0.431   0.299   5.619  0.00  0.00    -0.228 NA
ATOM     11 CL   UNL     1      -1.948   1.349   6.103  0.00  0.00    -0.060 Cl
ATOM     12 CL   UNL     1      -0.678   2.458   8.726  0.00  0.00    -0.078 Cl
ATOM     13 CL   UNL     1       4.011   0.102   7.297  0.00  0.00    -0.079 Cl
BRANCH   7  14
ATOM     14  N   UNL     1       2.209   1.721   9.076  0.00  0.00    -0.356 N 
ATOM     15  H   UNL     1       3.141   1.525   9.261  0.00  0.00    +0.142 HD
ATOM     16  H   UNL     1       1.692   2.253   9.701  0.00  0.00    +0.142 HD
ENDBRANCH   7  14
ENDBRANCH   2   5
BRANCH   1  17
ATOM     17  N   UNL     1       2.577  -2.018   2.829  0.00  0.00    -0.246 N 
ATOM     18  H   UNL     1       3.509  -2.230   2.993  0.00  0.00    +0.172 HD
BRANCH  17  19
ATOM     19  C   UNL     1       1.972  -2.463   1.710  0.00  0.00    +0.147 C 
ATOM     20  S   UNL     1       2.848  -3.404   0.580  0.00  0.00    -0.017 S 
BRANCH  19  21
ATOM     21  N   UNL     1       0.677  -2.168   1.482  0.00  0.00    -0.327 N 
ATOM     22  H   UNL     1       0.180  -1.635   2.122  0.00  0.00    +0.148 HD
BRANCH  21  23
ATOM     23  C   UNL     1       0.019  -2.653   0.266  0.00  0.00    +0.088 C 
BRANCH  23  28
ATOM     24  N   UNL     1      -2.049  -2.514  -1.060  0.00  0.00    +0.382 N 
ATOM     25  C   UNL     1      -3.240  -3.320  -0.718  0.00  0.00    -0.078 C 
ATOM     26  C   UNL     1      -3.636  -2.856   0.706  0.00  0.00    -0.020 C 
ATOM     27  C   UNL     1      -2.247  -2.629   1.359  0.00  0.00    -0.016 C 
ATOM     28  C   UNL     1      -1.399  -2.082   0.191  0.00  0.00    -0.051 C 
ATOM     29  H   UNL     1      -2.329  -1.705  -1.593  0.00  0.00    -0.081 HD
BRANCH  24  31
ATOM     30  C   UNL     1      -1.755  -3.690  -3.188  0.00  0.00    -0.017 C 
ATOM     31  C   UNL     1      -1.112  -3.326  -1.848  0.00  0.00    -0.082 C 
ENDBRANCH  24  31
ENDBRANCH  23  28
ENDBRANCH  21  23
ENDBRANCH  19  21
ENDBRANCH  17  19
ENDBRANCH   1  17
TORSDOF 8
