REMARK  Name = ZINC10166957
REMARK  9 active torsions:
REMARK  status: ('A' for Active; 'I' for Inactive)
REMARK    1  A    between atoms: C_1  and  C_2
REMARK    2  A    between atoms: C_2  and  C_3
REMARK    3  A    between atoms: C_8  and  O_30
REMARK    4  A    between atoms: C_9  and  C_11
REMARK    5  A    between atoms: C_11  and  C_13
REMARK    6  A    between atoms: C_11  and  N_20
REMARK    7  A    between atoms: C_23  and  C_26
REMARK    8  A    between atoms: C_26  and  O_28
REMARK    9  A    between atoms: O_28  and  C_29
REMARK                            x       y       z     vdW  Elec       q    Type
REMARK                         _______ _______ _______ _____ _____    ______ ____
ROOT
ATOM      1  C   UNL     1       2.896  -2.477   6.417  0.00  0.00    +0.005 C 
ENDROOT
BRANCH   1   8
ATOM      2  C   UNL     1       0.731  -0.503   1.223  0.00  0.00    +0.152 A 
ATOM      3  N   UNL     1       2.039  -0.738   1.297  0.00  0.00    -0.205 NA
ATOM      4  C   UNL     1       2.334  -1.160   2.497  0.00  0.00    +0.199 A 
ATOM      5  N   UNL     1       1.204  -1.214   3.253  0.00  0.00    -0.173 N 
ATOM      6  N   UNL     1       0.180  -0.769   2.377  0.00  0.00    -0.147 NA
ATOM      7  C   UNL     1       1.335  -1.642   4.552  0.00  0.00    +0.225 A 
ATOM      8  C   UNL     1       2.533  -1.988   5.038  0.00  0.00    +0.045 A 
ATOM      9  S   UNL     1       3.590  -1.715   3.624  0.00  0.00    -0.050 S 
BRANCH   2  11
ATOM     10  C   UNL     1      -0.019   1.526   0.010  0.00  0.00    +0.012 C 
ATOM     11  C   UNL     1       0.002  -0.004   0.002  0.00  0.00    +0.075 C 
ENDBRANCH   2  11
BRANCH   7  12
ATOM     12  O   UNL     1       0.237  -1.716   5.352  0.00  0.00    -0.492 OA
ATOM     13  H   UNL     1      -0.584  -1.447   4.917  0.00  0.00    +0.294 HD
ENDBRANCH   7  12
ENDBRANCH   1   8
BRANCH   1  14
ATOM     14  C   UNL     1       3.788  -1.466   7.089  0.00  0.00    -0.055 A 
ATOM     15  C   UNL     1       5.136  -1.421   6.783  0.00  0.00    +0.002 A 
ATOM     16  C   UNL     1       5.955  -0.494   7.399  0.00  0.00    +0.001 A 
ATOM     17  C   UNL     1       5.428   0.388   8.323  0.00  0.00    +0.015 A 
ATOM     18  C   UNL     1       4.080   0.344   8.630  0.00  0.00    +0.018 A 
ATOM     19  C   UNL     1       3.259  -0.580   8.009  0.00  0.00    +0.017 A 
ATOM     20 BR   UNL     1       3.358   1.551   9.894  0.00  0.00    -0.050 Br
ENDBRANCH   1  14
BRANCH   1  21
ATOM     21  N   UNL     1       3.602  -3.760   6.311  0.00  0.00    +0.387 N 
ATOM     22  C   UNL     1       2.735  -4.741   5.647  0.00  0.00    -0.077 C 
ATOM     23  C   UNL     1       3.494  -6.056   5.462  0.00  0.00    -0.004 C 
ATOM     24  C   UNL     1       3.919  -6.592   6.833  0.00  0.00    +0.094 C 
ATOM     25  C   UNL     1       4.761  -5.531   7.546  0.00  0.00    -0.004 C 
ATOM     26  C   UNL     1       3.954  -4.235   7.654  0.00  0.00    -0.077 C 
ATOM     27  H   UNL     1       4.443  -3.636   5.768  0.00  0.00    -0.080 HD
BRANCH  24  28
ATOM     28  C   UNL     1       4.735  -7.846   6.653  0.00  0.00    +0.310 C 
ATOM     29  O   UNL     1       4.955  -8.270   5.543  0.00  0.00    -0.251 OA
BRANCH  28  30
ATOM     30  O   UNL     1       5.216  -8.493   7.726  0.00  0.00    -0.468 OA
ATOM     31  C   UNL     1       5.981  -9.675   7.481  0.00  0.00    +0.280 C 
ENDBRANCH  28  30
ENDBRANCH  24  28
ENDBRANCH   1  21
TORSDOF 7
