REMARK  Name = ZINC03539764
REMARK  12 active torsions:
REMARK  status: ('A' for Active; 'I' for Inactive)
REMARK    1  A    between atoms: C_1  and  C_2
REMARK    2  A    between atoms: C_2  and  O_3
REMARK    3  A    between atoms: O_3  and  C_4
REMARK    4  A    between atoms: C_4  and  C_6
REMARK    5  A    between atoms: C_10  and  N_11
REMARK    6  A    between atoms: C_12  and  C_14
REMARK    7  A    between atoms: C_14  and  C_16
REMARK    8  A    between atoms: C_14  and  N_64
REMARK    9  A    between atoms: C_17  and  N_64
REMARK   10  A    between atoms: C_18  and  C_19
REMARK   11  A    between atoms: C_18  and  N_64
REMARK   12  A    between atoms: C_32  and  C_36
REMARK                            x       y       z     vdW  Elec       q    Type
REMARK                         _______ _______ _______ _____ _____    ______ ____
ROOT
ATOM      1  N   UNL     1       4.026   8.580   0.723  0.00  0.00    -0.281 N 
ATOM      2  C   UNL     1       3.042   7.690   0.487  0.00  0.00    +0.204 C 
ATOM      3  O   UNL     1       1.885   8.054   0.474  0.00  0.00    -0.277 OA
ATOM      4  H   UNL     1       4.951   8.289   0.734  0.00  0.00    +0.155 HD
ENDROOT
BRANCH   1   9
ATOM      5  C   UNL     1       4.580  10.966   1.216  0.00  0.00    +0.091 A 
ATOM      6  C   UNL     1       3.993  12.281   1.417  0.00  0.00    -0.021 A 
ATOM      7  C   UNL     1       2.646  12.328   1.331  0.00  0.00    -0.004 A 
ATOM      8  S   UNL     1       2.155  10.664   0.983  0.00  0.00    -0.077 S 
ATOM      9  C   UNL     1       3.715   9.912   0.951  0.00  0.00    +0.086 A 
ATOM     10  C   UNL     1       1.772  13.534   1.498  0.00  0.00    +0.046 C 
ATOM     11  C   UNL     1       2.603  14.647   2.152  0.00  0.00    -0.009 C 
ATOM     12  C   UNL     1       3.940  14.762   1.414  0.00  0.00    +0.008 C 
ATOM     13  C   UNL     1       4.805  13.536   1.710  0.00  0.00    +0.037 C 
ATOM     14  C   UNL     1       1.847  15.973   2.060  0.00  0.00    +0.008 C 
BRANCH   5  15
ATOM     15  C   UNL     1       6.028  10.762   1.286  0.00  0.00    +0.342 C 
ATOM     16  O   UNL     1       6.707  10.873   0.283  0.00  0.00    -0.245 OA
BRANCH  15  17
ATOM     17  O   UNL     1       6.609  10.451   2.463  0.00  0.00    -0.461 OA
BRANCH  17  19
ATOM     18  C   UNL     1       8.523   9.919   3.871  0.00  0.00    +0.048 C 
ATOM     19  C   UNL     1       8.049  10.263   2.458  0.00  0.00    +0.229 C 
ENDBRANCH  17  19
ENDBRANCH  15  17
ENDBRANCH   5  15
ENDBRANCH   1   9
BRANCH   2  20
ATOM     20  C   UNL     1       3.379   6.242   0.239  0.00  0.00    +0.017 C 
ATOM     21  C   UNL     1       4.281   6.133  -0.993  0.00  0.00    -0.004 C 
BRANCH  20  23
ATOM     22  C   UNL     1       1.488   5.908  -1.235  0.00  0.00    -0.095 C 
ATOM     23  N   UNL     1       2.124   5.489   0.031  0.00  0.00    +0.390 N 
ATOM     24  H   UNL     1       1.484   5.688   0.808  0.00  0.00    -0.081 HD
BRANCH  23  25
ATOM     25  C   UNL     1       2.405   4.039  -0.001  0.00  0.00    -0.003 C 
BRANCH  25  26
ATOM     26  C   UNL     1       1.097   3.290   0.009  0.00  0.00    +0.094 A 
ATOM     27  N   UNL     1       1.132   1.932   0.002  0.00  0.00    -0.312 N 
ATOM     28  H   UNL     1       1.987   1.473  -0.009  0.00  0.00    +0.170 HD
ATOM     29  C   UNL     1      -0.014   1.213   0.009  0.00  0.00    +0.259 A 
ATOM     30  O   UNL     1       0.002  -0.004   0.002  0.00  0.00    -0.267 OA
ATOM     31  C   UNL     1      -1.281   1.960   0.019  0.00  0.00    +0.065 A 
ATOM     32  C   UNL     1      -2.517   1.315   0.033  0.00  0.00    +0.015 A 
ATOM     33  C   UNL     1      -3.673   2.064   0.048  0.00  0.00    +0.001 A 
ATOM     34  C   UNL     1      -3.615   3.452   0.055  0.00  0.00    +0.002 A 
ATOM     35  C   UNL     1      -2.405   4.108   0.047  0.00  0.00    +0.028 A 
ATOM     36  C   UNL     1      -1.219   3.371   0.032  0.00  0.00    +0.078 A 
ATOM     37  N   UNL     1      -0.005   3.976   0.023  0.00  0.00    -0.236 NA
ENDBRANCH  25  26
ENDBRANCH  23  25
ENDBRANCH  20  23
ENDBRANCH   2  20
TORSDOF 8
