REMARK  Name = ZINC14647041
REMARK  11 active torsions:
REMARK  status: ('A' for Active; 'I' for Inactive)
REMARK    1  A    between atoms: C_1  and  C_2
REMARK    2  A    between atoms: C_2  and  C_3
REMARK    3  A    between atoms: C_3  and  O_4
REMARK    4  A    between atoms: O_4  and  C_5
REMARK    5  A    between atoms: C_8  and  C_12
REMARK    6  A    between atoms: N_14  and  C_15
REMARK    7  A    between atoms: C_18  and  S_21
REMARK    8  A    between atoms: S_21  and  N_24
REMARK    9  A    between atoms: N_24  and  C_25
REMARK   10  A    between atoms: C_28  and  C_32
REMARK   11  A    between atoms: C_30  and  C_31
REMARK                            x       y       z     vdW  Elec       q    Type
REMARK                         _______ _______ _______ _____ _____    ______ ____
ROOT
ATOM      1  C   UNL     1       1.631   4.582   3.458  0.00  0.00    +0.034 A 
ATOM      2  C   UNL     1       2.153   3.297   3.535  0.00  0.00    +0.025 A 
ATOM      3  C   UNL     1       2.089   2.459   2.439  0.00  0.00    +0.030 A 
ATOM      4  C   UNL     1       1.504   2.898   1.265  0.00  0.00    +0.109 A 
ATOM      5  C   UNL     1       0.988   4.179   1.183  0.00  0.00    +0.030 A 
ATOM      6  C   UNL     1       1.045   5.020   2.277  0.00  0.00    +0.025 A 
ENDROOT
BRANCH   1   9
ATOM      7  C   UNL     1       0.691   6.297   4.811  0.00  0.00    +0.248 C 
ATOM      8  O   UNL     1      -0.230   6.398   4.024  0.00  0.00    -0.270 OA
ATOM      9  N   UNL     1       1.696   5.432   4.566  0.00  0.00    -0.282 N 
ATOM     10  H   UNL     1       2.463   5.400   5.158  0.00  0.00    +0.155 HD
BRANCH   7  14
ATOM     11  C   UNL     1       0.745   8.671   8.332  0.00  0.00    +0.134 A 
ATOM     12  C   UNL     1       1.782   7.779   8.081  0.00  0.00    +0.047 A 
ATOM     13  C   UNL     1       1.765   7.004   6.943  0.00  0.00    +0.017 A 
ATOM     14  C   UNL     1       0.710   7.122   6.034  0.00  0.00    +0.038 A 
ATOM     15  C   UNL     1      -0.330   8.020   6.290  0.00  0.00    +0.032 A 
ATOM     16  C   UNL     1      -0.309   8.788   7.433  0.00  0.00    +0.060 A 
ATOM     17 BR   UNL     1      -1.716  10.002   7.781  0.00  0.00    -0.046 Br
BRANCH  11  18
ATOM     18  O   UNL     1       0.762   9.429   9.458  0.00  0.00    -0.491 OA
BRANCH  18  19
ATOM     19  C   UNL     1       1.875   9.258  10.338  0.00  0.00    +0.229 C 
BRANCH  19  21
ATOM     20  C   UNL     1       2.912  10.006  12.484  0.00  0.00    +0.007 C 
ATOM     21  C   UNL     1       1.721  10.189  11.542  0.00  0.00    +0.038 C 
ENDBRANCH  19  21
ENDBRANCH  18  19
ENDBRANCH  11  18
ENDBRANCH   7  14
ENDBRANCH   1   9
BRANCH   4  22
ATOM     22  S   UNL     1       1.423   1.827  -0.131  0.00  0.00    +0.072 S 
ATOM     23  O   UNL     1       2.467   0.876   0.026  0.00  0.00    -0.150 OA
ATOM     24  O   UNL     1       1.319   2.660  -1.277  0.00  0.00    -0.150 OA
BRANCH  22  25
ATOM     25  N   UNL     1      -0.001   0.989  -0.023  0.00  0.00    -0.216 N 
ATOM     26  H   UNL     1       0.010   0.020   0.034  0.00  0.00    +0.174 HD
BRANCH  25  27
ATOM     27  C   UNL     1      -1.217   1.675  -0.021  0.00  0.00    +0.051 A 
ATOM     28  C   UNL     1      -1.370   2.822  -0.791  0.00  0.00    +0.025 A 
ATOM     29  C   UNL     1      -2.574   3.498  -0.787  0.00  0.00    +0.005 A 
ATOM     30  C   UNL     1      -3.627   3.035  -0.019  0.00  0.00    -0.050 A 
ATOM     31  C   UNL     1      -3.478   1.894   0.748  0.00  0.00    +0.008 A 
ATOM     32  C   UNL     1      -2.278   1.210   0.745  0.00  0.00    -0.028 A 
ATOM     33  C   UNL     1      -2.118  -0.037   1.576  0.00  0.00    +0.046 C 
ATOM     34  C   UNL     1      -4.939   3.775  -0.018  0.00  0.00    +0.044 C 
ENDBRANCH  25  27
ENDBRANCH  22  25
ENDBRANCH   4  22
TORSDOF 8
