REMARK  Name = ZINC15005480
REMARK  8 active torsions:
REMARK  status: ('A' for Active; 'I' for Inactive)
REMARK    1  A    between atoms: C_1  and  C_2
REMARK    2  A    between atoms: C_5  and  C_8
REMARK    3  A    between atoms: C_8  and  N_64
REMARK    4  A    between atoms: C_11  and  C_14
REMARK    5  A    between atoms: C_11  and  O_34
REMARK    6  A    between atoms: C_21  and  C_23
REMARK    7  A    between atoms: N_25  and  C_26
REMARK    8  A    between atoms: C_26  and  C_27
REMARK                            x       y       z     vdW  Elec       q    Type
REMARK                         _______ _______ _______ _____ _____    ______ ____
ROOT
ATOM      1  C   UNL     1       0.458  -4.595  -5.121  0.00  0.00    -0.015 A 
ATOM      2  C   UNL     1       1.708  -4.553  -5.724  0.00  0.00    +0.010 A 
ATOM      3  C   UNL     1       1.862  -4.893  -7.051  0.00  0.00    +0.047 A 
ATOM      4  C   UNL     1       0.757  -5.284  -7.798  0.00  0.00    +0.136 A 
ATOM      5  C   UNL     1      -0.507  -5.326  -7.181  0.00  0.00    +0.021 A 
ATOM      6  C   UNL     1      -0.641  -4.982  -5.834  0.00  0.00    +0.018 A 
ATOM      7  C   UNL     1      -1.439  -5.767  -8.218  0.00  0.00    +0.063 A 
ATOM      8  C   UNL     1      -0.695  -5.952  -9.339  0.00  0.00    +0.190 A 
ATOM      9  O   UNL     1       0.598  -5.665  -9.080  0.00  0.00    -0.450 OA
ENDROOT
BRANCH   1  12
ATOM     10  C   UNL     1      -0.040  -2.328  -2.077  0.00  0.00    -0.075 C 
ATOM     11  C   UNL     1       0.044  -2.715  -3.555  0.00  0.00    +0.021 C 
ATOM     12  C   UNL     1       0.315  -4.218  -3.669  0.00  0.00    +0.088 C 
ATOM     13  C   UNL     1       1.609  -4.554  -2.923  0.00  0.00    +0.021 C 
ATOM     14  C   UNL     1       1.479  -4.114  -1.463  0.00  0.00    -0.075 C 
ATOM     15  N   UNL     1       1.244  -2.654  -1.422  0.00  0.00    +0.383 N 
ATOM     16  H   UNL     1       2.004  -2.180  -1.923  0.00  0.00    -0.081 HD
BRANCH  12  17
ATOM     17  O   UNL     1      -0.772  -4.945  -3.092  0.00  0.00    -0.384 OA
ATOM     18  H   UNL     1      -1.625  -4.780  -3.517  0.00  0.00    +0.211 HD
ENDBRANCH  12  17
BRANCH  15  19
ATOM     19  C   UNL     1       1.229  -2.186  -0.021  0.00  0.00    -0.043 C 
BRANCH  19  24
ATOM     20  C   UNL     1       1.151   3.592   0.010  0.00  0.00    +0.044 C 
ATOM     21  C   UNL     1       1.171   2.086   0.002  0.00  0.00    -0.050 A 
ATOM     22  C   UNL     1      -0.017   1.378   0.010  0.00  0.00    +0.003 A 
ATOM     23  C   UNL     1       0.002  -0.004   0.002  0.00  0.00    +0.002 A 
ATOM     24  C   UNL     1       1.208  -0.679  -0.013  0.00  0.00    -0.064 A 
ATOM     25  C   UNL     1       2.396   0.029  -0.021  0.00  0.00    +0.002 A 
ATOM     26  C   UNL     1       2.377   1.411  -0.015  0.00  0.00    +0.003 A 
ENDBRANCH  19  24
ENDBRANCH  15  19
ENDBRANCH   1  12
BRANCH   8  27
ATOM     27  C   UNL     1      -1.219  -6.397 -10.638  0.00  0.00    +0.280 C 
ATOM     28  O   UNL     1      -2.406  -6.631 -10.768  0.00  0.00    -0.267 OA
ATOM     29  N   UNL     1      -0.384  -6.546 -11.686  0.00  0.00    -0.305 N 
ATOM     30  H   UNL     1       0.562  -6.360 -11.583  0.00  0.00    +0.149 HD
BRANCH  29  31
ATOM     31  C   UNL     1      -0.906  -6.990 -12.981  0.00  0.00    +0.142 C 
BRANCH  31  32
ATOM     32  C   UNL     1       0.223  -7.075 -13.975  0.00  0.00    +0.005 A 
ATOM     33  C   UNL     1       0.417  -6.058 -14.890  0.00  0.00    +0.008 A 
ATOM     34  C   UNL     1       1.456  -6.133 -15.799  0.00  0.00    +0.000 A 
ATOM     35  C   UNL     1       2.296  -7.232 -15.800  0.00  0.00    +0.003 A 
ATOM     36  C   UNL     1       2.100  -8.253 -14.890  0.00  0.00    +0.038 A 
ATOM     37  C   UNL     1       1.063  -8.176 -13.976  0.00  0.00    +0.128 A 
ATOM     38  F   UNL     1       0.871  -9.174 -13.086  0.00  0.00    -0.205 F 
ENDBRANCH  31  32
ENDBRANCH  29  31
ENDBRANCH   8  27
TORSDOF 7
