REMARK  Name = ZINC17445657
REMARK  8 active torsions:
REMARK  status: ('A' for Active; 'I' for Inactive)
REMARK    1  A    between atoms: C_1  and  C_2
REMARK    2  A    between atoms: C_2  and  C_3
REMARK    3  A    between atoms: C_2  and  C_4
REMARK    4  A    between atoms: C_4  and  C_6
REMARK    5  A    between atoms: C_4  and  N_20
REMARK    6  A    between atoms: N_8  and  N_9
REMARK    7  A    between atoms: C_10  and  C_12
REMARK    8  A    between atoms: C_21  and  C_23
REMARK                            x       y       z     vdW  Elec       q    Type
REMARK                         _______ _______ _______ _____ _____    ______ ____
ROOT
ATOM      1  C   UNL     1      -2.164   7.238  -0.966  0.00  0.00    +0.163 C 
ENDROOT
BRANCH   1   2
ATOM      2  C   UNL     1      -3.031   8.081  -1.865  0.00  0.00    +0.250 C 
ATOM      3  O   UNL     1      -3.563   7.583  -2.835  0.00  0.00    -0.272 OA
ATOM      4  N   UNL     1      -3.215   9.388  -1.593  0.00  0.00    -0.233 N 
ATOM      5  H   UNL     1      -2.732   9.803  -0.861  0.00  0.00    +0.173 HD
BRANCH   4   6
ATOM      6  N   UNL     1      -4.103  10.147  -2.366  0.00  0.00    -0.230 N 
ATOM      7  C   UNL     1      -4.286  11.454  -2.093  0.00  0.00    +0.267 C 
ATOM      8  O   UNL     1      -3.680  11.975  -1.175  0.00  0.00    -0.268 OA
ATOM      9  H   UNL     1      -4.585   9.732  -3.098  0.00  0.00    +0.173 HD
BRANCH   7  10
ATOM     10  C   UNL     1      -5.215  12.248  -2.902  0.00  0.00    +0.076 A 
ATOM     11  C   UNL     1      -5.543  13.583  -2.791  0.00  0.00    +0.024 A 
ATOM     12  C   UNL     1      -6.466  14.113  -3.693  0.00  0.00    -0.036 A 
ATOM     13  C   UNL     1      -6.976  13.257  -4.619  0.00  0.00    -0.006 A 
ATOM     14  S   UNL     1      -6.211  11.743  -4.292  0.00  0.00    -0.088 S 
ATOM     15  C   UNL     1      -7.960  13.938  -5.530  0.00  0.00    +0.043 C 
ATOM     16  C   UNL     1      -8.340  15.240  -4.791  0.00  0.00    +0.010 C 
ATOM     17  C   UNL     1      -7.090  15.492  -3.926  0.00  0.00    +0.036 C 
ENDBRANCH   7  10
ENDBRANCH   4   6
ENDBRANCH   1   2
BRANCH   1  18
ATOM     18  N   UNL     1      -2.617   5.845  -1.016  0.00  0.00    -0.303 N 
ATOM     19  C   UNL     1      -2.372   5.019   0.019  0.00  0.00    +0.220 C 
ATOM     20  O   UNL     1      -1.775   5.428   0.993  0.00  0.00    -0.275 OA
ATOM     21  H   UNL     1      -3.094   5.518  -1.795  0.00  0.00    +0.149 HD
BRANCH  19  22
ATOM     22  C   UNL     1      -2.837   3.587  -0.033  0.00  0.00    +0.048 C 
ATOM     23  C   UNL     1      -2.192   2.883  -1.228  0.00  0.00    +0.019 C 
ATOM     24  C   UNL     1      -2.665   1.429  -1.281  0.00  0.00    -0.009 C 
ATOM     25  C   UNL     1      -2.261   0.714   0.011  0.00  0.00    +0.007 C 
ATOM     26  C   UNL     1      -2.907   1.418   1.206  0.00  0.00    -0.009 C 
ATOM     27  C   UNL     1      -2.434   2.872   1.259  0.00  0.00    +0.019 C 
ATOM     28  C   UNL     1      -4.429   1.382   1.058  0.00  0.00    +0.007 C 
ATOM     29  C   UNL     1      -4.833   2.096  -0.234  0.00  0.00    -0.009 C 
ATOM     30  C   UNL     1      -4.187   1.393  -1.429  0.00  0.00    +0.007 C 
ATOM     31  C   UNL     1      -4.360   3.550  -0.181  0.00  0.00    +0.019 C 
ENDBRANCH  19  22
ENDBRANCH   1  18
BRANCH   1  33
ATOM     32  C   UNL     1      -0.223   8.765  -1.340  0.00  0.00    +0.009 C 
ATOM     33  C   UNL     1      -0.711   7.318  -1.437  0.00  0.00    +0.012 C 
ATOM     34  C   UNL     1       0.162   6.426  -0.551  0.00  0.00    +0.009 C 
ENDBRANCH   1  33
TORSDOF 6
