REMARK  Name = ZINC19926369
REMARK  12 active torsions:
REMARK  status: ('A' for Active; 'I' for Inactive)
REMARK    1  A    between atoms: C_1  and  C_2
REMARK    2  A    between atoms: C_2  and  O_3
REMARK    3  A    between atoms: O_3  and  C_4
REMARK    4  A    between atoms: N_6  and  C_7
REMARK    5  A    between atoms: C_21  and  C_23
REMARK    6  A    between atoms: C_23  and  C_24
REMARK    7  A    between atoms: C_24  and  N_25
REMARK    8  A    between atoms: N_25  and  C_26
REMARK    9  A    between atoms: C_28  and  C_34
REMARK   10  A    between atoms: C_28  and  C_35
REMARK   11  A    between atoms: C_30  and  C_32
REMARK   12  A    between atoms: C_30  and  C_33
REMARK                            x       y       z     vdW  Elec       q    Type
REMARK                         _______ _______ _______ _____ _____    ______ ____
ROOT
ATOM      1  C   UNL     1       2.139  -3.948  -2.066  0.00  0.00    +0.038 A 
ATOM      2  C   UNL     1       2.187  -4.777  -0.953  0.00  0.00    +0.024 A 
ATOM      3  C   UNL     1       2.778  -6.022  -1.048  0.00  0.00    +0.019 A 
ATOM      4  C   UNL     1       3.327  -6.446  -2.251  0.00  0.00    +0.035 A 
ATOM      5  C   UNL     1       3.286  -5.618  -3.369  0.00  0.00    +0.057 A 
ATOM      6  C   UNL     1       2.681  -4.369  -3.270  0.00  0.00    +0.048 A 
ATOM      7  N   UNL     1       3.836  -6.002  -4.591  0.00  0.00    -0.238 N 
ATOM      8  C   UNL     1       4.031  -7.322  -4.997  0.00  0.00    +0.055 A 
ATOM      9  C   UNL     1       4.097  -7.603  -6.357  0.00  0.00    +0.025 A 
ATOM     10  C   UNL     1       4.295  -8.899  -6.793  0.00  0.00    +0.002 A 
ATOM     11  C   UNL     1       4.429  -9.928  -5.879  0.00  0.00    +0.001 A 
ATOM     12  C   UNL     1       4.364  -9.660  -4.525  0.00  0.00    +0.017 A 
ATOM     13  C   UNL     1       4.163  -8.360  -4.080  0.00  0.00    +0.035 A 
ATOM     14  S   UNL     1       4.071  -8.039  -2.350  0.00  0.00    -0.086 S 
ATOM     15  C   UNL     1       4.207  -5.026  -5.443  0.00  0.00    +0.222 C 
ATOM     16  O   UNL     1       3.935  -3.870  -5.197  0.00  0.00    -0.275 OA
ENDROOT
BRANCH   1  19
ATOM     17  C   UNL     1       1.645  -1.970  -0.835  0.00  0.00    +0.405 C 
ATOM     18  O   UNL     1       2.189  -2.454   0.138  0.00  0.00    -0.226 OA
ATOM     19  N   UNL     1       1.537  -2.686  -1.972  0.00  0.00    -0.251 N 
ATOM     20  H   UNL     1       1.042  -2.327  -2.726  0.00  0.00    +0.158 HD
BRANCH  17  21
ATOM     21  O   UNL     1       1.151  -0.719  -0.778  0.00  0.00    -0.450 OA
BRANCH  21  23
ATOM     22  C   UNL     1       0.683   1.376   0.333  0.00  0.00    +0.048 C 
ATOM     23  C   UNL     1       1.301  -0.018   0.458  0.00  0.00    +0.230 C 
ENDBRANCH  21  23
ENDBRANCH  17  21
ENDBRANCH   1  19
BRANCH  15  24
ATOM     24  C   UNL     1       4.958  -5.371  -6.703  0.00  0.00    +0.078 C 
BRANCH  24  25
ATOM     25  C   UNL     1       5.785  -4.164  -7.151  0.00  0.00    -0.073 C 
BRANCH  25  26
ATOM     26  N   UNL     1       6.518  -4.500  -8.379  0.00  0.00    +0.381 N 
ATOM     27  H   UNL     1       7.131  -5.281  -8.201  0.00  0.00    -0.086 HD
ATOM     28  H   UNL     1       5.862  -4.746  -9.105  0.00  0.00    -0.086 HD
BRANCH  26  29
ATOM     29  C   UNL     1       7.313  -3.338  -8.809  0.00  0.00    -0.074 C 
ATOM     30  C   UNL     1       8.415  -3.075  -7.781  0.00  0.00    -0.029 C 
ATOM     31  C   UNL     1       9.258  -1.878  -8.220  0.00  0.00    -0.075 C 
ATOM     32  N   UNL     1       9.780  -2.041  -9.569  0.00  0.00    +0.386 N 
ATOM     33  C   UNL     1       8.860  -2.492 -10.600  0.00  0.00    -0.075 C 
ATOM     34  C   UNL     1       7.974  -3.650 -10.151  0.00  0.00    -0.029 C 
ATOM     35  C   UNL     1       7.993  -1.345 -11.127  0.00  0.00    -0.010 C 
ATOM     36  C   UNL     1       9.709  -2.999 -11.790  0.00  0.00    -0.010 C 
ATOM     37  C   UNL     1      10.465  -1.790  -7.259  0.00  0.00    -0.010 C 
ATOM     38  C   UNL     1       8.460  -0.584  -8.065  0.00  0.00    -0.010 C 
ATOM     39  H   UNL     1      10.186  -1.150  -9.866  0.00  0.00    -0.084 HD
ATOM     40  H   UNL     1      10.567  -2.695  -9.531  0.00  0.00    -0.084 HD
ENDBRANCH  26  29
ENDBRANCH  25  26
ENDBRANCH  24  25
ENDBRANCH  15  24
TORSDOF 7
