REMARK  Name = ZINC09034143
REMARK  11 active torsions:
REMARK  status: ('A' for Active; 'I' for Inactive)
REMARK    1  A    between atoms: C_1  and  C_2
REMARK    2  A    between atoms: C_2  and  C_34
REMARK    3  A    between atoms: C_4  and  N_9
REMARK    4  A    between atoms: C_6  and  C_7
REMARK    5  A    between atoms: C_6  and  C_8
REMARK    6  A    between atoms: C_10  and  C_12
REMARK    7  A    between atoms: N_18  and  C_19
REMARK    8  A    between atoms: C_24  and  O_32
REMARK    9  A    between atoms: C_25  and  O_30
REMARK   10  A    between atoms: O_30  and  C_31
REMARK   11  A    between atoms: O_32  and  C_33
REMARK                            x       y       z     vdW  Elec       q    Type
REMARK                         _______ _______ _______ _____ _____    ______ ____
ROOT
ATOM      1  C   UNL     1       1.207   4.517  -5.505  0.00  0.00    +0.166 C 
ATOM      2  C   UNL     1       2.726   4.795  -5.484  0.00  0.00    +0.041 C 
ATOM      3  C   UNL     1       2.857   5.916  -6.540  0.00  0.00    +0.098 C 
ATOM      4  C   UNL     1       1.490   6.564  -6.564  0.00  0.00    +0.219 C 
ATOM      5  O   UNL     1       1.245   7.650  -7.046  0.00  0.00    -0.275 OA
ATOM      6  N   UNL     1       0.588   5.763  -5.973  0.00  0.00    -0.251 N 
ENDROOT
BRANCH   6   7
ATOM      7  C   UNL     1      -0.832   6.090  -5.817  0.00  0.00    +0.302 C 
ATOM      8  C   UNL     1      -0.990   7.293  -4.920  0.00  0.00    +0.029 A 
ATOM      9  C   UNL     1      -0.649   7.545  -3.614  0.00  0.00    +0.013 A 
ATOM     10  C   UNL     1      -0.929   8.779  -3.046  0.00  0.00    +0.050 A 
ATOM     11  C   UNL     1      -1.555   9.764  -3.792  0.00  0.00    +0.162 A 
ATOM     12  C   UNL     1      -1.906   9.521  -5.117  0.00  0.00    +0.176 A 
ATOM     13  C   UNL     1      -1.623   8.275  -5.690  0.00  0.00    +0.112 A 
ATOM     14  C   UNL     1      -1.861   7.720  -7.031  0.00  0.00    +0.345 C 
ATOM     15  O   UNL     1      -2.396   8.317  -7.945  0.00  0.00    -0.245 OA
ATOM     16  O   UNL     1      -1.404   6.457  -7.102  0.00  0.00    -0.435 OA
BRANCH  12  17
ATOM     17  O   UNL     1      -2.519  10.486  -5.848  0.00  0.00    -0.491 OA
ATOM     18  C   UNL     1      -3.948  10.513  -5.818  0.00  0.00    +0.277 C 
ENDBRANCH  12  17
BRANCH  11  19
ATOM     19  O   UNL     1      -1.827  10.971  -3.228  0.00  0.00    -0.491 OA
ATOM     20  C   UNL     1      -1.440  11.153  -1.865  0.00  0.00    +0.277 C 
ENDBRANCH  11  19
ENDBRANCH   6   7
BRANCH   1  22
ATOM     21  N   UNL     1       1.202   3.098  -3.479  0.00  0.00    -0.311 N 
ATOM     22  C   UNL     1       0.718   4.181  -4.120  0.00  0.00    +0.234 C 
ATOM     23  O   UNL     1      -0.110   4.884  -3.581  0.00  0.00    -0.274 OA
ATOM     24  H   UNL     1       1.865   2.535  -3.909  0.00  0.00    +0.149 HD
BRANCH  21  28
ATOM     25  C   UNL     1      -2.144   0.476  -1.019  0.00  0.00    -0.010 C 
ATOM     26  C   UNL     1      -1.049   1.551  -0.843  0.00  0.00    -0.072 C 
ATOM     27  C   UNL     1      -0.543   1.925  -2.234  0.00  0.00    +0.009 C 
ATOM     28  C   UNL     1       0.726   2.770  -2.129  0.00  0.00    +0.070 C 
ATOM     29  C   UNL     1       1.795   1.954  -1.403  0.00  0.00    +0.009 C 
ATOM     30  C   UNL     1       1.318   1.579  -0.002  0.00  0.00    -0.072 C 
ATOM     31  C   UNL     1       1.398   2.807   0.913  0.00  0.00    -0.010 C 
ATOM     32  C   UNL     1       2.301   0.527   0.558  0.00  0.00    -0.010 C 
ATOM     33  C   UNL     1      -1.712   2.772  -0.194  0.00  0.00    -0.010 C 
ATOM     34  N   UNL     1      -0.027   0.945   0.053  0.00  0.00    +0.386 N 
ATOM     35  H   UNL     1       0.076  -0.043  -0.205  0.00  0.00    -0.084 HD
ATOM     36  H   UNL     1      -0.371   1.013   1.018  0.00  0.00    -0.084 HD
ENDBRANCH  21  28
ENDBRANCH   1  22
TORSDOF 5
