REMARK  Name = ZINC03338015
REMARK  10 active torsions:
REMARK  status: ('A' for Active; 'I' for Inactive)
REMARK    1  A    between atoms: C_1  and  C_2
REMARK    2  A    between atoms: C_2  and  O_3
REMARK    3  A    between atoms: O_3  and  C_4
REMARK    4  A    between atoms: C_4  and  C_6
REMARK    5  A    between atoms: C_8  and  C_28
REMARK    6  A    between atoms: C_10  and  N_11
REMARK    7  A    between atoms: C_12  and  C_14
REMARK    8  A    between atoms: C_14  and  C_16
REMARK    9  A    between atoms: C_14  and  N_59
REMARK   10  A    between atoms: C_17  and  N_59
REMARK                            x       y       z     vdW  Elec       q    Type
REMARK                         _______ _______ _______ _____ _____    ______ ____
ROOT
ATOM      1  N   UNL     1      -5.464  -1.900  -0.019  0.00  0.00    -0.281 N 
ATOM      2  C   UNL     1      -4.908  -3.127   0.045  0.00  0.00    +0.203 C 
ATOM      3  O   UNL     1      -3.716  -3.243   0.236  0.00  0.00    -0.277 OA
ATOM      4  H   UNL     1      -6.417  -1.807  -0.172  0.00  0.00    +0.155 HD
ENDROOT
BRANCH   1   9
ATOM      5  C   UNL     1      -5.056   0.567   0.101  0.00  0.00    +0.088 A 
ATOM      6  C   UNL     1      -4.062   1.528   0.290  0.00  0.00    +0.033 A 
ATOM      7  C   UNL     1      -2.788   1.091   0.482  0.00  0.00    +0.022 A 
ATOM      8  S   UNL     1      -2.966  -0.682   0.414  0.00  0.00    -0.073 S 
ATOM      9  C   UNL     1      -4.674  -0.773   0.134  0.00  0.00    +0.086 A 
BRANCH   7  10
ATOM     10  C   UNL     1      -1.563   1.887   0.699  0.00  0.00    -0.011 A 
ATOM     11  C   UNL     1      -0.335   1.249   0.884  0.00  0.00    +0.009 A 
ATOM     12  C   UNL     1       0.806   1.999   1.081  0.00  0.00    +0.001 A 
ATOM     13  C   UNL     1       0.735   3.380   1.099  0.00  0.00    +0.000 A 
ATOM     14  C   UNL     1      -0.479   4.019   0.921  0.00  0.00    +0.001 A 
ATOM     15  C   UNL     1      -1.628   3.282   0.724  0.00  0.00    +0.009 A 
ENDBRANCH   7  10
BRANCH   5  16
ATOM     16  C   UNL     1      -6.453   0.952  -0.118  0.00  0.00    +0.342 C 
ATOM     17  O   UNL     1      -7.303   0.096  -0.275  0.00  0.00    -0.245 OA
BRANCH  16  18
ATOM     18  O   UNL     1      -6.796   2.256  -0.146  0.00  0.00    -0.461 OA
BRANCH  18  20
ATOM     19  C   UNL     1      -8.393   4.082  -0.366  0.00  0.00    +0.048 C 
ATOM     20  C   UNL     1      -8.198   2.564  -0.367  0.00  0.00    +0.229 C 
ENDBRANCH  18  20
ENDBRANCH  16  18
ENDBRANCH   5  16
ENDBRANCH   1   9
BRANCH   2  21
ATOM     21  C   UNL     1      -5.768  -4.353  -0.121  0.00  0.00    +0.014 C 
ATOM     22  C   UNL     1      -6.439  -4.322  -1.496  0.00  0.00    -0.004 C 
BRANCH  21  23
ATOM     23  N   UNL     1      -4.921  -5.556  -0.014  0.00  0.00    +0.391 N 
ATOM     24  H   UNL     1      -4.165  -5.379   0.657  0.00  0.00    -0.084 HD
ATOM     25  H   UNL     1      -4.519  -5.771  -0.934  0.00  0.00    -0.084 HD
BRANCH  23  26
ATOM     26  C   UNL     1      -5.722  -6.706   0.448  0.00  0.00    -0.040 C 
ATOM     27  C   UNL     1      -5.799  -6.687   1.973  0.00  0.00    -0.011 C 
ATOM     28  C   UNL     1      -6.436  -8.000   2.442  0.00  0.00    +0.003 C 
ATOM     29  C   UNL     1      -5.443  -9.133   2.187  0.00  0.00    +0.035 C 
ATOM     30  C   UNL     1      -4.950  -9.094   0.764  0.00  0.00    -0.046 A 
ATOM     31  C   UNL     1      -5.074  -7.978  -0.033  0.00  0.00    -0.058 A 
ATOM     32  C   UNL     1      -4.590  -8.005  -1.334  0.00  0.00    +0.002 A 
ATOM     33  C   UNL     1      -3.990  -9.142  -1.836  0.00  0.00    +0.000 A 
ATOM     34  C   UNL     1      -3.869 -10.263  -1.037  0.00  0.00    +0.000 A 
ATOM     35  C   UNL     1      -4.347 -10.238   0.257  0.00  0.00    +0.004 A 
ENDBRANCH  23  26
ENDBRANCH  21  23
ENDBRANCH   2  21
TORSDOF 8
