REMARK  Name = ZINC00835888
REMARK  8 active torsions:
REMARK  status: ('A' for Active; 'I' for Inactive)
REMARK    1  A    between atoms: C_4  and  C_7
REMARK    2  A    between atoms: C_7  and  C_9
REMARK    3  A    between atoms: C_7  and  N_49
REMARK    4  A    between atoms: C_14  and  N_15
REMARK    5  A    between atoms: C_16  and  C_18
REMARK    6  A    between atoms: C_25  and  C_26
REMARK    7  A    between atoms: C_25  and  N_49
REMARK    8  A    between atoms: N_28  and  N_29
REMARK                            x       y       z     vdW  Elec       q    Type
REMARK                         _______ _______ _______ _____ _____    ______ ____
ROOT
ATOM      1  C   UNL     1      -0.031   1.089   2.431  0.00  0.00    -0.008 C 
ENDROOT
BRANCH   1   2
ATOM      2  C   UNL     1      -1.011   1.028   3.574  0.00  0.00    -0.035 A 
ATOM      3  C   UNL     1      -2.189   1.747   3.514  0.00  0.00    +0.019 A 
ATOM      4  C   UNL     1      -3.089   1.692   4.563  0.00  0.00    +0.018 A 
ATOM      5  C   UNL     1      -2.813   0.915   5.675  0.00  0.00    +0.017 A 
ATOM      6  C   UNL     1      -1.638   0.193   5.740  0.00  0.00    +0.024 A 
ATOM      7  C   UNL     1      -0.734   0.244   4.686  0.00  0.00    +0.036 A 
ATOM      8 BR   UNL     1      -4.700   2.679   4.478  0.00  0.00    -0.050 Br
BRANCH   7   9
ATOM      9  N   UNL     1       0.456  -0.490   4.747  0.00  0.00    -0.281 N 
ATOM     10  C   UNL     1       1.084  -0.657   5.928  0.00  0.00    +0.248 C 
ATOM     11  O   UNL     1       0.577  -0.241   6.951  0.00  0.00    -0.270 OA
ATOM     12  H   UNL     1       0.828  -0.878   3.940  0.00  0.00    +0.155 HD
BRANCH  10  13
ATOM     13  C   UNL     1       2.391  -1.347   5.978  0.00  0.00    +0.037 A 
ATOM     14  C   UNL     1       2.973  -1.831   4.806  0.00  0.00    +0.013 A 
ATOM     15  C   UNL     1       4.195  -2.470   4.859  0.00  0.00    +0.001 A 
ATOM     16  C   UNL     1       4.838  -2.639   6.072  0.00  0.00    +0.000 A 
ATOM     17  C   UNL     1       4.263  -2.166   7.239  0.00  0.00    +0.001 A 
ATOM     18  C   UNL     1       3.045  -1.521   7.199  0.00  0.00    +0.013 A 
ENDBRANCH  10  13
ENDBRANCH   7   9
ENDBRANCH   1   2
BRANCH   1  22
ATOM     19  C   UNL     1       3.123   3.802   3.403  0.00  0.00    +0.000 A 
ATOM     20  C   UNL     1       3.315   2.440   3.541  0.00  0.00    +0.000 A 
ATOM     21  C   UNL     1       2.295   1.562   3.227  0.00  0.00    +0.002 A 
ATOM     22  C   UNL     1       1.082   2.046   2.774  0.00  0.00    -0.057 A 
ATOM     23  C   UNL     1       0.891   3.408   2.631  0.00  0.00    +0.002 A 
ATOM     24  C   UNL     1       1.910   4.286   2.950  0.00  0.00    +0.000 A 
ENDBRANCH   1  22
BRANCH   1  25
ATOM     25  N   UNL     1      -0.729   1.559   1.220  0.00  0.00    +0.392 N 
ATOM     26  H   UNL     1      -0.751   2.586   1.218  0.00  0.00    -0.084 HD
ATOM     27  H   UNL     1      -1.689   1.196   1.220  0.00  0.00    -0.084 HD
BRANCH  25  28
ATOM     28  C   UNL     1      -0.030   1.086   0.010  0.00  0.00    +0.017 C 
BRANCH  28  29
ATOM     29  C   UNL     1      -0.764   1.581  -1.210  0.00  0.00    +0.209 C 
ATOM     30  O   UNL     1      -1.763   2.256  -1.084  0.00  0.00    -0.277 OA
ATOM     31  N   UNL     1      -0.309   1.272  -2.441  0.00  0.00    -0.255 N 
ATOM     32  H   UNL     1       0.490   0.732  -2.542  0.00  0.00    +0.169 HD
BRANCH  31  33
ATOM     33  N   UNL     1      -0.975   1.721  -3.546  0.00  0.00    -0.254 NA
ATOM     34  H   UNL     1      -0.519   1.412  -4.392  0.00  0.00    +0.140 HD
ATOM     35  H   UNL     1      -1.941   1.431  -3.530  0.00  0.00    +0.140 HD
ENDBRANCH  31  33
ENDBRANCH  28  29
ENDBRANCH  25  28
ENDBRANCH   1  25
TORSDOF 8
