REMARK  Name = ZINC08776463
REMARK  7 active torsions:
REMARK  status: ('A' for Active; 'I' for Inactive)
REMARK    1  A    between atoms: C_1  and  C_2
REMARK    2  A    between atoms: C_2  and  N_3
REMARK    3  A    between atoms: N_3  and  C_4
REMARK    4  A    between atoms: C_5  and  N_20
REMARK    5  A    between atoms: N_6  and  C_13
REMARK    6  A    between atoms: C_13  and  C_14
REMARK    7  A    between atoms: C_21  and  C_23
REMARK                            x       y       z     vdW  Elec       q    Type
REMARK                         _______ _______ _______ _____ _____    ______ ____
ROOT
ATOM      1  C   UNL     1       3.496   8.908  -0.035  0.00  0.00    +0.140 A 
ATOM      2  C   UNL     1       4.874   8.825  -0.034  0.00  0.00    +0.128 A 
ATOM      3  N   UNL     1       5.616   9.981   0.045  0.00  0.00    -0.276 N 
ATOM      4  C   UNL     1       5.006  11.177   0.133  0.00  0.00    +0.331 A 
ATOM      5  O   UNL     1       5.679  12.186   0.208  0.00  0.00    -0.246 OA
ATOM      6  N   UNL     1       3.665  11.277   0.139  0.00  0.00    -0.273 N 
ATOM      7  H   UNL     1       3.236  12.178   0.204  0.00  0.00    +0.173 HD
ATOM      8  C   UNL     1       2.892  10.176   0.057  0.00  0.00    +0.277 A 
ATOM      9  O   UNL     1       1.676  10.278   0.063  0.00  0.00    -0.266 OA
ENDROOT
BRANCH   1  10
ATOM     10  N   UNL     1       2.708   7.742  -0.122  0.00  0.00    -0.260 N 
ATOM     11  C   UNL     1       2.823   6.928  -1.190  0.00  0.00    +0.259 C 
ATOM     12  O   UNL     1       3.664   7.155  -2.040  0.00  0.00    -0.269 OA
BRANCH  11  13
ATOM     13  C   UNL     1       1.934   5.768  -1.328  0.00  0.00    +0.094 A 
ATOM     14  C   UNL     1       1.809   4.916  -2.382  0.00  0.00    +0.068 A 
ATOM     15  C   UNL     1       0.888   3.853  -2.319  0.00  0.00    +0.008 A 
ATOM     16  C   UNL     1       0.615   2.869  -3.304  0.00  0.00    +0.010 A 
ATOM     17  C   UNL     1      -0.314   1.903  -3.082  0.00  0.00    +0.001 A 
ATOM     18  C   UNL     1      -1.032   1.843  -1.894  0.00  0.00    +0.001 A 
ATOM     19  C   UNL     1      -0.793   2.777  -0.906  0.00  0.00    +0.016 A 
ATOM     20  C   UNL     1       0.147   3.763  -1.118  0.00  0.00    +0.021 A 
ATOM     21  S   UNL     1       0.750   5.128  -0.156  0.00  0.00    -0.082 S 
ATOM     22 CL   UNL     1       2.784   5.140  -3.801  0.00  0.00    -0.082 Cl
ENDBRANCH  11  13
BRANCH  10  24
ATOM     23  C   UNL     1       2.413   6.426   1.918  0.00  0.00    +0.025 C 
ATOM     24  C   UNL     1       1.763   7.415   0.949  0.00  0.00    +0.111 C 
ENDBRANCH  10  24
ENDBRANCH   1  10
BRANCH   2  25
ATOM     25  N   UNL     1       5.497   7.603  -0.117  0.00  0.00    -0.343 N 
ATOM     26  H   UNL     1       4.970   6.796  -0.226  0.00  0.00    +0.144 HD
ATOM     27  H   UNL     1       6.464   7.548  -0.067  0.00  0.00    +0.144 HD
ENDBRANCH   2  25
BRANCH   3  28
ATOM     28  C   UNL     1       7.079   9.908   0.042  0.00  0.00    +0.163 C 
BRANCH  28  29
ATOM     29  C   UNL     1       7.579   9.780   1.457  0.00  0.00    -0.028 A 
ATOM     30  C   UNL     1       7.873  10.913   2.192  0.00  0.00    +0.005 A 
ATOM     31  C   UNL     1       8.328  10.794   3.492  0.00  0.00    +0.000 A 
ATOM     32  C   UNL     1       8.498   9.543   4.054  0.00  0.00    +0.000 A 
ATOM     33  C   UNL     1       8.209   8.410   3.317  0.00  0.00    +0.000 A 
ATOM     34  C   UNL     1       7.749   8.528   2.019  0.00  0.00    +0.005 A 
ENDBRANCH  28  29
ENDBRANCH   3  28
TORSDOF 6
