REMARK  Name = ZINC59170625
REMARK  10 active torsions:
REMARK  status: ('A' for Active; 'I' for Inactive)
REMARK    1  A    between atoms: C_1  and  C_2
REMARK    2  A    between atoms: C_2  and  C_3
REMARK    3  A    between atoms: C_6  and  N_9
REMARK    4  A    between atoms: C_10  and  C_12
REMARK    5  A    between atoms: C_18  and  O_33
REMARK    6  A    between atoms: N_22  and  C_23
REMARK    7  A    between atoms: C_26  and  S_29
REMARK    8  A    between atoms: S_29  and  N_32
REMARK    9  A    between atoms: O_33  and  C_34
REMARK   10  A    between atoms: C_34  and  C_35
REMARK                            x       y       z     vdW  Elec       q    Type
REMARK                         _______ _______ _______ _____ _____    ______ ____
ROOT
ATOM      1  C   UNL     1       4.684  -2.266  -5.917  0.00  0.00    +0.098 A 
ATOM      2  C   UNL     1       6.053  -2.501  -5.913  0.00  0.00    +0.030 A 
ATOM      3  C   UNL     1       6.668  -2.918  -7.175  0.00  0.00    +0.022 A 
ATOM      4  C   UNL     1       7.973  -3.428  -7.202  0.00  0.00    +0.012 A 
ATOM      5  C   UNL     1       8.525  -3.817  -8.389  0.00  0.00    +0.004 A 
ATOM      6  C   UNL     1       7.806  -3.712  -9.571  0.00  0.00    +0.049 A 
ATOM      7  C   UNL     1       6.517  -3.209  -9.569  0.00  0.00    +0.163 A 
ATOM      8  C   UNL     1       5.936  -2.805  -8.370  0.00  0.00    +0.179 A 
ATOM      9  O   UNL     1       4.677  -2.303  -8.346  0.00  0.00    -0.435 OA
ATOM     10  C   UNL     1       3.972  -2.465  -7.195  0.00  0.00    +0.212 A 
ATOM     11  N   UNL     1       2.695  -2.783  -7.217  0.00  0.00    -0.325 N 
ATOM     12  H   UNL     1       2.235  -2.998  -6.391  0.00  0.00    +0.169 HD
ENDROOT
BRANCH  11  13
ATOM     13  C   UNL     1       2.018  -2.811  -8.405  0.00  0.00    +0.042 A 
ATOM     14  C   UNL     1       2.181  -1.778  -9.330  0.00  0.00    +0.027 A 
ATOM     15  C   UNL     1       1.495  -1.813 -10.526  0.00  0.00    +0.030 A 
ATOM     16  C   UNL     1       0.647  -2.869 -10.810  0.00  0.00    +0.105 A 
ATOM     17  C   UNL     1       0.481  -3.896  -9.898  0.00  0.00    +0.030 A 
ATOM     18  C   UNL     1       1.165  -3.877  -8.701  0.00  0.00    +0.027 A 
BRANCH  16  19
ATOM     19  S   UNL     1      -0.225  -2.906 -12.341  0.00  0.00    +0.056 S 
ATOM     20  O   UNL     1      -1.370  -3.722 -12.136  0.00  0.00    -0.153 OA
ATOM     21  O   UNL     1      -0.319  -1.560 -12.787  0.00  0.00    -0.153 OA
BRANCH  19  22
ATOM     22  N   UNL     1       0.734  -3.701 -13.432  0.00  0.00    -0.204 NA
ATOM     23  H   UNL     1       0.330  -4.206 -14.155  0.00  0.00    +0.144 HD
ATOM     24  H   UNL     1       1.699  -3.661 -13.348  0.00  0.00    +0.144 HD
ENDBRANCH  19  22
ENDBRANCH  16  19
ENDBRANCH  11  13
BRANCH   1  26
ATOM     25  N   UNL     1       2.674  -1.491  -4.764  0.00  0.00    -0.281 N 
ATOM     26  C   UNL     1       3.973  -1.843  -4.699  0.00  0.00    +0.253 C 
ATOM     27  O   UNL     1       4.559  -1.812  -3.633  0.00  0.00    -0.270 OA
ATOM     28  H   UNL     1       2.193  -1.567  -5.603  0.00  0.00    +0.155 HD
BRANCH  25  32
ATOM     29  C   UNL     1       0.724  -0.079  -1.365  0.00  0.00    -0.048 A 
ATOM     30  C   UNL     1       0.402   0.434  -2.609  0.00  0.00    +0.005 A 
ATOM     31  C   UNL     1       1.047  -0.032  -3.738  0.00  0.00    +0.023 A 
ATOM     32  C   UNL     1       2.019  -1.017  -3.623  0.00  0.00    +0.034 A 
ATOM     33  C   UNL     1       2.340  -1.530  -2.373  0.00  0.00    +0.023 A 
ATOM     34  C   UNL     1       1.696  -1.055  -1.248  0.00  0.00    +0.005 A 
BRANCH  29  36
ATOM     35  C   UNL     1       0.786   1.625   0.435  0.00  0.00    +0.009 C 
ATOM     36  C   UNL     1       0.018   0.432  -0.136  0.00  0.00    +0.032 C 
ENDBRANCH  29  36
ENDBRANCH  25  32
ENDBRANCH   1  26
BRANCH   7  37
ATOM     37  O   UNL     1       5.821  -3.109 -10.733  0.00  0.00    -0.489 OA
BRANCH  37  38
ATOM     38  C   UNL     1       6.481  -3.542 -11.923  0.00  0.00    +0.226 C 
ATOM     39  C   UNL     1       5.549  -3.354 -13.121  0.00  0.00    +0.048 C 
ENDBRANCH  37  38
ENDBRANCH   7  37
TORSDOF 8
