REMARK  Name = ZINC67128695
REMARK  6 active torsions:
REMARK  status: ('A' for Active; 'I' for Inactive)
REMARK    1  A    between atoms: C_4  and  N_7
REMARK    2  A    between atoms: N_7  and  C_8
REMARK    3  A    between atoms: C_14  and  C_16
REMARK    4  A    between atoms: C_16  and  N_17
REMARK    5  A    between atoms: C_19  and  O_27
REMARK    6  A    between atoms: C_22  and  C_24
REMARK                            x       y       z     vdW  Elec       q    Type
REMARK                         _______ _______ _______ _____ _____    ______ ____
ROOT
ATOM      1  N   UNL     1       2.849  -0.440  -2.559  0.00  0.00    -0.297 N 
ATOM      2  C   UNL     1       2.351  -0.105  -3.766  0.00  0.00    +0.200 C 
ATOM      3  O   UNL     1       1.409   0.655  -3.844  0.00  0.00    -0.278 OA
ENDROOT
BRANCH   1   7
ATOM      4  C   UNL     1       0.049   1.527  -0.011  0.00  0.00    +0.000 C 
ATOM      5  C   UNL     1       1.486   2.050  -0.047  0.00  0.00    +0.002 C 
ATOM      6  C   UNL     1       2.176   1.560  -1.322  0.00  0.00    +0.022 C 
ATOM      7  C   UNL     1       2.189   0.030  -1.339  0.00  0.00    +0.076 C 
ATOM      8  C   UNL     1       0.751  -0.493  -1.303  0.00  0.00    +0.022 C 
ATOM      9  C   UNL     1       0.062  -0.003  -0.028  0.00  0.00    +0.002 C 
ENDBRANCH   1   7
BRANCH   1  10
ATOM     10  C   UNL     1       4.051  -1.272  -2.468  0.00  0.00    +0.076 C 
ATOM     11  C   UNL     1       3.755  -2.501  -1.606  0.00  0.00    +0.022 C 
ATOM     12  C   UNL     1       5.010  -3.371  -1.510  0.00  0.00    +0.002 C 
ATOM     13  C   UNL     1       6.144  -2.563  -0.876  0.00  0.00    +0.000 C 
ATOM     14  C   UNL     1       6.439  -1.334  -1.739  0.00  0.00    +0.002 C 
ATOM     15  C   UNL     1       5.184  -0.465  -1.834  0.00  0.00    +0.022 C 
ENDBRANCH   1  10
BRANCH   2  16
ATOM     16  C   UNL     1       2.964  -0.675  -5.019  0.00  0.00    +0.020 C 
BRANCH  16  17
ATOM     17  N   UNL     1       2.330  -0.066  -6.196  0.00  0.00    +0.395 N 
ATOM     18  C   UNL     1       2.705   1.368  -6.294  0.00  0.00    -0.045 C 
ATOM     19  C   UNL     1       2.465   1.696  -7.789  0.00  0.00    +0.097 C 
ATOM     20  C   UNL     1       2.920   0.403  -8.504  0.00  0.00    +0.023 C 
ATOM     21  C   UNL     1       2.835  -0.700  -7.433  0.00  0.00    +0.022 C 
ATOM     22  H   UNL     1       1.328  -0.161  -6.140  0.00  0.00    -0.080 HD
BRANCH  21  23
ATOM     23  C   UNL     1       1.884  -1.779  -7.881  0.00  0.00    +0.197 C 
ATOM     24  O   UNL     1       0.879  -2.007  -7.241  0.00  0.00    -0.278 OA
ATOM     25  N   UNL     1       2.149  -2.492  -8.994  0.00  0.00    -0.331 N 
ATOM     26  H   UNL     1       2.952  -2.310  -9.507  0.00  0.00    +0.145 HD
ATOM     27  H   UNL     1       1.536  -3.186  -9.283  0.00  0.00    +0.145 HD
ENDBRANCH  21  23
BRANCH  19  28
ATOM     28  O   UNL     1       3.261   2.810  -8.197  0.00  0.00    -0.394 OA
ATOM     29  H   UNL     1       3.147   3.056  -9.125  0.00  0.00    +0.210 HD
ENDBRANCH  19  28
ENDBRANCH  16  17
ENDBRANCH   2  16
TORSDOF 6
