REMARK  Name = ZINC01850554
REMARK  13 active torsions:
REMARK  status: ('A' for Active; 'I' for Inactive)
REMARK    1  A    between atoms: C_1  and  C_2
REMARK    2  A    between atoms: C_2  and  N_3
REMARK    3  A    between atoms: N_3  and  C_4
REMARK    4  A    between atoms: N_3  and  C_6
REMARK    5  A    between atoms: C_4  and  C_5
REMARK    6  A    between atoms: C_9  and  N_12
REMARK    7  A    between atoms: N_12  and  C_13
REMARK    8  A    between atoms: C_26  and  C_35
REMARK    9  A    between atoms: N_28  and  C_29
REMARK   10  A    between atoms: C_36  and  C_38
REMARK   11  A    between atoms: C_41  and  O_46
REMARK   12  A    between atoms: C_42  and  O_44
REMARK   13  A    between atoms: O_44  and  C_45
REMARK                            x       y       z     vdW  Elec       q    Type
REMARK                         _______ _______ _______ _____ _____    ______ ____
ROOT
ATOM      1  C   UNL     1       0.419  -6.528  -2.941  0.00  0.00    +0.184 C 
ATOM      2  N   UNL     1       0.099  -5.796  -3.979  0.00  0.00    -0.226 NA
ATOM      3  C   UNL     1      -0.288  -6.356  -5.154  0.00  0.00    +0.087 A 
ATOM      4  C   UNL     1      -0.622  -5.540  -6.242  0.00  0.00    +0.030 A 
ATOM      5  C   UNL     1      -1.013  -6.110  -7.432  0.00  0.00    +0.002 A 
ATOM      6  C   UNL     1      -1.079  -7.489  -7.564  0.00  0.00    +0.002 A 
ATOM      7  C   UNL     1      -0.753  -8.308  -6.503  0.00  0.00    +0.025 A 
ATOM      8  C   UNL     1      -0.356  -7.754  -5.293  0.00  0.00    +0.062 A 
ATOM      9  N   UNL     1      -0.027  -8.565  -4.222  0.00  0.00    -0.269 N 
ATOM     10  C   UNL     1       0.370  -7.999  -3.031  0.00  0.00    +0.171 C 
ATOM     11  N   UNL     1       0.696  -8.729  -1.993  0.00  0.00    -0.209 NA
ATOM     12  C   UNL     1       0.685 -10.079  -1.972  0.00  0.00    +0.164 A 
ATOM     13  C   UNL     1       0.313 -10.802  -3.093  0.00  0.00    +0.044 A 
ATOM     14  C   UNL     1       0.395 -12.152  -2.786  0.00  0.00    +0.068 A 
ATOM     15  N   UNL     1       0.795 -12.274  -1.543  0.00  0.00    -0.169 NA
ATOM     16  N   UNL     1       0.987 -10.996  -1.001  0.00  0.00    -0.214 N 
ATOM     17  C   UNL     1       0.076 -13.288  -3.723  0.00  0.00    +0.068 C 
ATOM     18  C   UNL     1      -0.086 -10.030  -4.331  0.00  0.00    +0.146 C 
ENDROOT
BRANCH  16  19
ATOM     19  C   UNL     1       1.412 -10.708   0.302  0.00  0.00    +0.068 A 
ATOM     20  C   UNL     1       2.224  -9.607   0.541  0.00  0.00    +0.028 A 
ATOM     21  C   UNL     1       2.642  -9.326   1.827  0.00  0.00    +0.002 A 
ATOM     22  C   UNL     1       2.252 -10.140   2.876  0.00  0.00    +0.000 A 
ATOM     23  C   UNL     1       1.444 -11.237   2.640  0.00  0.00    +0.002 A 
ATOM     24  C   UNL     1       1.018 -11.520   1.357  0.00  0.00    +0.028 A 
ENDBRANCH  16  19
BRANCH  18  25
ATOM     25  C   UNL     1       0.827 -10.455  -5.452  0.00  0.00    -0.018 A 
ATOM     26  C   UNL     1       2.053  -9.837  -5.615  0.00  0.00    +0.009 A 
ATOM     27  C   UNL     1       2.894 -10.224  -6.641  0.00  0.00    +0.049 A 
ATOM     28  C   UNL     1       2.510 -11.234  -7.509  0.00  0.00    +0.158 A 
ATOM     29  C   UNL     1       1.276 -11.857  -7.344  0.00  0.00    +0.162 A 
ATOM     30  C   UNL     1       0.440 -11.467  -6.310  0.00  0.00    +0.055 A 
BRANCH  29  31
ATOM     31  O   UNL     1       0.894 -12.848  -8.193  0.00  0.00    -0.491 OA
ATOM     32  C   UNL     1      -0.385 -13.442  -7.963  0.00  0.00    +0.277 C 
ENDBRANCH  29  31
BRANCH  28  33
ATOM     33  O   UNL     1       3.336 -11.616  -8.519  0.00  0.00    -0.503 OA
ATOM     34  H   UNL     1       3.948 -12.325  -8.280  0.00  0.00    +0.292 HD
ENDBRANCH  28  33
ENDBRANCH  18  25
BRANCH   1  35
ATOM     35  N   UNL     1       0.808  -5.921  -1.761  0.00  0.00    -0.193 NA
BRANCH  35  39
ATOM     36  C   UNL     1      -0.024  -1.891  -1.121  0.00  0.00    +0.014 A 
ATOM     37  C   UNL     1      -0.839  -2.640  -1.949  0.00  0.00    +0.023 A 
ATOM     38  C   UNL     1      -0.566  -3.977  -2.164  0.00  0.00    +0.027 A 
ATOM     39  C   UNL     1       0.529  -4.568  -1.547  0.00  0.00    +0.056 A 
ATOM     40  C   UNL     1       1.346  -3.812  -0.715  0.00  0.00    +0.027 A 
ATOM     41  C   UNL     1       1.070  -2.475  -0.509  0.00  0.00    +0.023 A 
BRANCH  36  42
ATOM     42  N   UNL     1      -0.303  -0.538  -0.906  0.00  0.00    -0.394 NA
ATOM     43  H   UNL     1       0.389  -0.146  -0.285  0.00  0.00    +0.126 HD
BRANCH  42  45
ATOM     44  C   UNL     1       1.148   0.139  -2.759  0.00  0.00    +0.022 C 
ATOM     45  C   UNL     1      -0.271   0.178  -2.188  0.00  0.00    +0.081 C 
ENDBRANCH  42  45
BRANCH  42  46
ATOM     46  C   UNL     1      -1.636  -0.403  -0.303  0.00  0.00    +0.081 C 
ATOM     47  C   UNL     1      -1.636  -1.051   1.083  0.00  0.00    +0.022 C 
ENDBRANCH  42  46
ENDBRANCH  36  42
ENDBRANCH  35  39
ENDBRANCH   1  35
TORSDOF 9
