REMARK  Name = ZINC36145483
REMARK  14 active torsions:
REMARK  status: ('A' for Active; 'I' for Inactive)
REMARK    1  A    between atoms: C_1  and  O_2
REMARK    2  A    between atoms: O_2  and  C_3
REMARK    3  A    between atoms: C_6  and  C_9
REMARK    4  A    between atoms: C_9  and  C_10
REMARK    5  A    between atoms: C_9  and  C_18
REMARK    6  A    between atoms: C_9  and  O_37
REMARK    7  A    between atoms: C_13  and  O_16
REMARK    8  A    between atoms: O_16  and  C_17
REMARK    9  A    between atoms: C_21  and  C_23
REMARK   10  A    between atoms: C_23  and  N_24
REMARK   11  A    between atoms: N_24  and  C_25
REMARK   12  A    between atoms: N_24  and  C_31
REMARK   13  A    between atoms: C_25  and  C_26
REMARK   14  A    between atoms: C_31  and  C_32
REMARK                            x       y       z     vdW  Elec       q    Type
REMARK                         _______ _______ _______ _____ _____    ______ ____
ROOT
ATOM      1  C   UNL     1       2.419  -3.603  -4.891  0.00  0.00    +0.146 A 
ATOM      2  C   UNL     1       2.947  -3.119  -6.030  0.00  0.00    +0.048 A 
ATOM      3  C   UNL     1       1.922  -3.150  -7.003  0.00  0.00    +0.043 A 
ATOM      4  C   UNL     1       0.828  -3.650  -6.401  0.00  0.00    +0.089 A 
ATOM      5  O   UNL     1       1.137  -3.928  -5.124  0.00  0.00    -0.463 OA
ENDROOT
BRANCH   1   6
ATOM      6  C   UNL     1       3.144  -3.759  -3.579  0.00  0.00    +0.174 C 
BRANCH   6  10
ATOM      7  C   UNL     1       0.365  -3.351  -0.359  0.00  0.00    +0.120 A 
ATOM      8  C   UNL     1       1.404  -2.442  -0.499  0.00  0.00    +0.046 A 
ATOM      9  C   UNL     1       2.301  -2.576  -1.541  0.00  0.00    +0.011 A 
ATOM     10  C   UNL     1       2.164  -3.615  -2.444  0.00  0.00    -0.004 A 
ATOM     11  C   UNL     1       1.129  -4.521  -2.306  0.00  0.00    +0.011 A 
ATOM     12  C   UNL     1       0.233  -4.395  -1.262  0.00  0.00    +0.046 A 
BRANCH   7  14
ATOM     13  C   UNL     1      -0.322  -2.122   1.557  0.00  0.00    +0.277 C 
ATOM     14  O   UNL     1      -0.519  -3.221   0.666  0.00  0.00    -0.495 OA
ENDBRANCH   7  14
ENDBRANCH   6  10
BRANCH   6  15
ATOM     15  C   UNL     1       3.786  -5.121  -3.519  0.00  0.00    -0.004 A 
ATOM     16  C   UNL     1       3.106  -6.226  -3.996  0.00  0.00    +0.011 A 
ATOM     17  C   UNL     1       3.692  -7.476  -3.942  0.00  0.00    +0.046 A 
ATOM     18  C   UNL     1       4.965  -7.621  -3.409  0.00  0.00    +0.120 A 
ATOM     19  C   UNL     1       5.645  -6.510  -2.931  0.00  0.00    +0.046 A 
ATOM     20  C   UNL     1       5.056  -5.262  -2.993  0.00  0.00    +0.011 A 
BRANCH  18  21
ATOM     21  O   UNL     1       5.544  -8.849  -3.355  0.00  0.00    -0.495 OA
ATOM     22  C   UNL     1       6.856  -8.924  -2.793  0.00  0.00    +0.277 C 
ENDBRANCH  18  21
ENDBRANCH   6  15
BRANCH   6  23
ATOM     23  O   UNL     1       4.152  -2.752  -3.469  0.00  0.00    -0.372 OA
ATOM     24  H   UNL     1       4.818  -2.784  -4.169  0.00  0.00    +0.212 HD
ENDBRANCH   6  23
ENDBRANCH   1   6
BRANCH   4  25
ATOM     25  C   UNL     1      -0.514  -3.868  -7.051  0.00  0.00    -0.002 C 
BRANCH  25  26
ATOM     26  N   UNL     1      -0.565  -5.218  -7.628  0.00  0.00    +0.394 N 
ATOM     27  H   UNL     1       0.212  -5.344  -8.258  0.00  0.00    -0.080 HD
BRANCH  26  28
ATOM     28  C   UNL     1      -0.490  -6.214  -6.551  0.00  0.00    -0.002 C 
BRANCH  28  29
ATOM     29  C   UNL     1      -0.414  -7.595  -7.148  0.00  0.00    +0.089 A 
ATOM     30  C   UNL     1       0.705  -8.210  -7.570  0.00  0.00    +0.042 A 
ATOM     31  C   UNL     1       0.317  -9.480  -8.054  0.00  0.00    +0.041 A 
ATOM     32  C   UNL     1      -1.016  -9.566  -7.899  0.00  0.00    +0.195 A 
ATOM     33  O   UNL     1      -1.453  -8.424  -7.345  0.00  0.00    -0.470 OA
ENDBRANCH  28  29
ENDBRANCH  26  28
BRANCH  26  34
ATOM     34  C   UNL     1      -1.825  -5.388  -8.364  0.00  0.00    -0.002 C 
BRANCH  34  35
ATOM     35  C   UNL     1      -1.839  -4.465  -9.556  0.00  0.00    +0.089 A 
ATOM     36  C   UNL     1      -1.295  -4.725 -10.758  0.00  0.00    +0.042 A 
ATOM     37  C   UNL     1      -1.539  -3.594 -11.571  0.00  0.00    +0.041 A 
ATOM     38  C   UNL     1      -2.218  -2.712 -10.817  0.00  0.00    +0.195 A 
ATOM     39  O   UNL     1      -2.402  -3.247  -9.599  0.00  0.00    -0.470 OA
ENDBRANCH  34  35
ENDBRANCH  26  34
ENDBRANCH  25  26
ENDBRANCH   4  25
TORSDOF 12
