REMARK  Name = ZINC40160361
REMARK  9 active torsions:
REMARK  status: ('A' for Active; 'I' for Inactive)
REMARK    1  A    between atoms: C_1  and  C_2
REMARK    2  A    between atoms: C_4  and  C_31
REMARK    3  A    between atoms: C_12  and  C_14
REMARK    4  A    between atoms: C_14  and  C_16
REMARK    5  A    between atoms: C_14  and  N_17
REMARK    6  A    between atoms: N_17  and  S_18
REMARK    7  A    between atoms: S_18  and  C_21
REMARK    8  A    between atoms: C_24  and  N_27
REMARK    9  A    between atoms: C_28  and  C_30
REMARK                            x       y       z     vdW  Elec       q    Type
REMARK                         _______ _______ _______ _____ _____    ______ ____
ROOT
ATOM      1  C   UNL     1      -0.235  -8.118   3.006  0.00  0.00    +0.159 C 
ATOM      2  C   UNL     1       0.972  -8.734   2.296  0.00  0.00    +0.035 C 
ENDROOT
BRANCH   1  14
ATOM      3  C   UNL     1      -1.264   1.117  -0.706  0.00  0.00    +0.044 C 
ATOM      4  C   UNL     1      -1.164  -0.385  -0.621  0.00  0.00    -0.049 A 
ATOM      5  C   UNL     1      -1.267  -1.159  -1.768  0.00  0.00    +0.009 A 
ATOM      6  C   UNL     1      -1.179  -2.526  -1.719  0.00  0.00    -0.024 A 
ATOM      7  C   UNL     1      -0.980  -3.194  -0.488  0.00  0.00    +0.083 A 
ATOM      8  C   UNL     1      -0.880  -2.373   0.658  0.00  0.00    +0.041 A 
ATOM      9  C   UNL     1      -0.964  -1.004   0.599  0.00  0.00    +0.020 A 
ATOM     10  S   UNL     1      -0.641  -3.563   1.956  0.00  0.00    -0.052 S 
ATOM     11  C   UNL     1      -0.687  -5.026   0.930  0.00  0.00    +0.165 A 
ATOM     12  N   UNL     1      -0.873  -4.522  -0.268  0.00  0.00    -0.224 NA
ATOM     13  N   UNL     1      -0.560  -6.353   1.304  0.00  0.00    -0.263 N 
ATOM     14  C   UNL     1      -0.374  -6.673   2.600  0.00  0.00    +0.237 C 
ATOM     15  O   UNL     1      -0.317  -5.799   3.438  0.00  0.00    -0.274 OA
ATOM     16  C   UNL     1      -1.297  -3.326  -2.991  0.00  0.00    +0.046 C 
ATOM     17  H   UNL     1      -0.605  -7.053   0.633  0.00  0.00    +0.157 HD
ENDBRANCH   1  14
BRANCH   1  18
ATOM     18  N   UNL     1      -0.043  -8.201   4.457  0.00  0.00    -0.178 NA
ATOM     19  H   UNL     1       0.462  -7.514   4.919  0.00  0.00    +0.149 HD
BRANCH  18  20
ATOM     20  S   UNL     1      -0.689  -9.467   5.306  0.00  0.00    +0.059 S 
ATOM     21  O   UNL     1      -0.312  -9.279   6.664  0.00  0.00    -0.153 OA
ATOM     22  O   UNL     1      -2.046  -9.577   4.901  0.00  0.00    -0.153 OA
BRANCH  20  23
ATOM     23  C   UNL     1       0.122 -10.931   4.756  0.00  0.00    +0.105 A 
ATOM     24  C   UNL     1      -0.392 -11.645   3.689  0.00  0.00    +0.030 A 
ATOM     25  C   UNL     1       0.241 -12.793   3.256  0.00  0.00    +0.025 A 
ATOM     26  C   UNL     1       1.396 -13.230   3.892  0.00  0.00    +0.033 A 
ATOM     27  C   UNL     1       1.909 -12.511   4.963  0.00  0.00    +0.025 A 
ATOM     28  C   UNL     1       1.274 -11.361   5.389  0.00  0.00    +0.030 A 
BRANCH  26  29
ATOM     29  N   UNL     1       2.039 -14.393   3.456  0.00  0.00    -0.286 N 
ATOM     30  C   UNL     1       2.027 -14.720   2.148  0.00  0.00    +0.214 C 
ATOM     31  O   UNL     1       1.542 -13.960   1.338  0.00  0.00    -0.276 OA
ATOM     32  C   UNL     1       2.616 -16.031   1.694  0.00  0.00    +0.109 C 
ATOM     33  H   UNL     1       2.494 -14.965   4.094  0.00  0.00    +0.155 HD
ENDBRANCH  26  29
ENDBRANCH  20  23
ENDBRANCH  18  20
ENDBRANCH   1  18
TORSDOF 5
