REMARK  Name = ZINC12655086
REMARK  1 active torsions:
REMARK  status: ('A' for Active; 'I' for Inactive)
REMARK    1  A    between atoms: C_4  and  C_7
REMARK                            x       y       z     vdW  Elec       q    Type
REMARK                         _______ _______ _______ _____ _____    ______ ____
ROOT
ATOM      1  C   UNL     1       2.125   1.246   2.219  0.00  0.00    +0.031 C 
ATOM      2  C   UNL     1       1.876   2.632   2.779  0.00  0.00    +0.083 C 
ATOM      3  C   UNL     1       0.733   3.345   2.092  0.00  0.00    +0.211 C 
ATOM      4  C   UNL     1      -0.569   2.922   2.718  0.00  0.00    +0.029 A 
ATOM      5  C   UNL     1      -1.197   1.698   2.768  0.00  0.00    +0.010 A 
ATOM      6  C   UNL     1      -2.415   1.643   3.439  0.00  0.00    +0.000 A 
ATOM      7  C   UNL     1      -2.972   2.761   4.029  0.00  0.00    +0.001 A 
ATOM      8  C   UNL     1      -2.351   4.000   3.986  0.00  0.00    +0.015 A 
ATOM      9  C   UNL     1      -1.127   4.066   3.313  0.00  0.00    +0.068 A 
ATOM     10  C   UNL     1      -0.221   5.188   3.080  0.00  0.00    +0.342 C 
ATOM     11  O   UNL     1      -0.408   6.325   3.465  0.00  0.00    -0.245 OA
ATOM     12  O   UNL     1       0.850   4.781   2.376  0.00  0.00    -0.432 OA
ATOM     13  N   UNL     1       0.635   3.186   0.644  0.00  0.00    -0.265 N 
ATOM     14  C   UNL     1      -0.739   3.127   0.345  0.00  0.00    +0.056 A 
ATOM     15  C   UNL     1      -1.692   4.135   0.407  0.00  0.00    +0.025 A 
ATOM     16  C   UNL     1      -2.999   3.785   0.090  0.00  0.00    +0.002 A 
ATOM     17  C   UNL     1      -3.337   2.497  -0.269  0.00  0.00    +0.002 A 
ATOM     18  C   UNL     1      -2.389   1.485  -0.347  0.00  0.00    +0.025 A 
ATOM     19  C   UNL     1      -1.073   1.826  -0.053  0.00  0.00    +0.050 A 
ATOM     20  N   UNL     1       0.073   1.040  -0.079  0.00  0.00    -0.321 N 
ATOM     21  C   UNL     1       1.207   1.998   0.016  0.00  0.00    +0.106 C 
ATOM     22  C   UNL     1       2.366   1.361   0.717  0.00  0.00    +0.038 C 
ATOM     23  C   UNL     1       3.704   2.052   0.498  0.00  0.00    +0.008 C 
ATOM     24  C   UNL     1       3.974   2.317  -0.977  0.00  0.00    +0.001 C 
ATOM     25  C   UNL     1       2.826   3.159  -1.540  0.00  0.00    +0.004 C 
ATOM     26  C   UNL     1       1.537   2.357  -1.444  0.00  0.00    +0.046 C 
ATOM     27  H   UNL     1       0.122   0.074  -0.147  0.00  0.00    +0.148 HD
ENDROOT
BRANCH   1  31
ATOM     28  C   UNL     1       5.562  -0.462   4.096  0.00  0.00    +0.000 A 
ATOM     29  C   UNL     1       5.549   0.881   3.767  0.00  0.00    +0.000 A 
ATOM     30  C   UNL     1       4.437   1.433   3.159  0.00  0.00    +0.004 A 
ATOM     31  C   UNL     1       3.338   0.643   2.881  0.00  0.00    -0.044 A 
ATOM     32  C   UNL     1       3.348  -0.698   3.215  0.00  0.00    +0.004 A 
ATOM     33  C   UNL     1       4.462  -1.252   3.817  0.00  0.00    +0.000 A 
ENDBRANCH   1  31
TORSDOF 1
