REMARK  Name = ZINC11563749
REMARK  7 active torsions:
REMARK  status: ('A' for Active; 'I' for Inactive)
REMARK    1  A    between atoms: C_1  and  N_52
REMARK    2  A    between atoms: C_2  and  N_52
REMARK    3  A    between atoms: C_3  and  C_9
REMARK    4  A    between atoms: C_3  and  N_52
REMARK    5  A    between atoms: C_9  and  N_10
REMARK    6  A    between atoms: C_11  and  C_13
REMARK    7  A    between atoms: C_13  and  C_14
REMARK                            x       y       z     vdW  Elec       q    Type
REMARK                         _______ _______ _______ _____ _____    ______ ____
ROOT
ATOM      1  N   UNL     1      -1.305   2.882  -1.138  0.00  0.00    -0.317 N 
ATOM      2  C   UNL     1      -1.996   3.041  -2.284  0.00  0.00    +0.215 C 
ATOM      3  O   UNL     1      -3.050   3.641  -2.279  0.00  0.00    -0.276 OA
ATOM      4  H   UNL     1      -0.462   2.402  -1.142  0.00  0.00    +0.149 HD
ENDROOT
BRANCH   1   5
ATOM      5  C   UNL     1      -1.827   3.434   0.115  0.00  0.00    +0.092 C 
BRANCH   5   6
ATOM      6  C   UNL     1      -0.899   3.048   1.268  0.00  0.00    -0.050 C 
ATOM      7  C   UNL     1       0.462   3.721   1.075  0.00  0.00    -0.010 C 
ATOM      8  C   UNL     1       0.281   5.240   1.051  0.00  0.00    -0.001 C 
ATOM      9  C   UNL     1      -0.332   5.701   2.375  0.00  0.00    -0.000 C 
ATOM     10  C   UNL     1      -1.692   5.029   2.569  0.00  0.00    -0.001 C 
ATOM     11  C   UNL     1      -1.512   3.510   2.592  0.00  0.00    -0.010 C 
BRANCH   6  14
ATOM     12  C   UNL     1       0.206   1.187   2.353  0.00  0.00    -0.096 C 
ATOM     13  C   UNL     1      -2.019   0.908   1.439  0.00  0.00    -0.096 C 
ATOM     14  N   UNL     1      -0.715   1.582   1.266  0.00  0.00    +0.381 N 
ATOM     15  H   UNL     1      -0.309   1.298   0.366  0.00  0.00    -0.082 HD
ENDBRANCH   6  14
ENDBRANCH   5   6
ENDBRANCH   1   5
BRANCH   2  16
ATOM     16  C   UNL     1      -1.458   2.473  -3.572  0.00  0.00    +0.119 C 
BRANCH  16  17
ATOM     17  C   UNL     1      -2.427   2.791  -4.713  0.00  0.00    +0.146 C 
ATOM     18  C   UNL     1      -1.958   2.122  -5.979  0.00  0.00    +0.231 C 
ATOM     19  O   UNL     1      -2.465   1.067  -6.296  0.00  0.00    -0.274 OA
ATOM     20  N   UNL     1      -1.015   2.632  -6.764  0.00  0.00    -0.284 N 
ATOM     21  C   UNL     1      -0.399   3.872  -6.628  0.00  0.00    +0.048 A 
ATOM     22  C   UNL     1       0.780   4.128  -7.319  0.00  0.00    +0.044 A 
ATOM     23  C   UNL     1       1.412   5.350  -7.195  0.00  0.00    +0.043 A 
ATOM     24  C   UNL     1       0.874   6.337  -6.388  0.00  0.00    +0.021 A 
ATOM     25  C   UNL     1      -0.308   6.103  -5.708  0.00  0.00    +0.018 A 
ATOM     26  C   UNL     1      -0.946   4.881  -5.834  0.00  0.00    +0.030 A 
ATOM     27  S   UNL     1      -2.472   4.588  -4.995  0.00  0.00    -0.110 S 
ATOM     28 CL   UNL     1       2.889   5.649  -8.055  0.00  0.00    -0.083 Cl
ATOM     29  H   UNL     1      -0.725   2.082  -7.509  0.00  0.00    +0.155 HD
ENDBRANCH  16  17
ENDBRANCH   2  16
TORSDOF 5
