REMARK  Name = ZINC13555666
REMARK  8 active torsions:
REMARK  status: ('A' for Active; 'I' for Inactive)
REMARK    1  A    between atoms: C_1  and  C_2
REMARK    2  A    between atoms: C_2  and  O_3
REMARK    3  A    between atoms: O_3  and  C_4
REMARK    4  A    between atoms: C_4  and  C_6
REMARK    5  A    between atoms: C_10  and  N_11
REMARK    6  A    between atoms: C_16  and  C_33
REMARK    7  A    between atoms: C_33  and  C_34
REMARK    8  A    between atoms: C_34  and  C_35
REMARK                            x       y       z     vdW  Elec       q    Type
REMARK                         _______ _______ _______ _____ _____    ______ ____
ROOT
ATOM      1  N   UNL     1      -0.606  -2.453  -3.921  0.00  0.00    -0.203 N 
ATOM      2  C   UNL     1      -1.466  -2.057  -2.975  0.00  0.00    +0.232 C 
ATOM      3  O   UNL     1      -1.177  -1.808  -1.825  0.00  0.00    -0.274 OA
ATOM      4  C   UNL     1      -2.855  -1.966  -3.566  0.00  0.00    +0.107 C 
ATOM      5  C   UNL     1      -3.748  -3.058  -2.940  0.00  0.00    +0.068 C 
ATOM      6  N   UNL     1      -3.525  -4.263  -3.782  0.00  0.00    -0.295 NA
ATOM      7  C   UNL     1      -3.428  -3.731  -5.154  0.00  0.00    +0.136 C 
ATOM      8  C   UNL     1      -2.646  -2.399  -5.044  0.00  0.00    +0.123 C 
ATOM      9  C   UNL     1      -1.159  -2.667  -5.120  0.00  0.00    +0.233 C 
ATOM     10  O   UNL     1      -0.562  -3.022  -6.113  0.00  0.00    -0.274 OA
ATOM     11  C   UNL     1      -2.747  -4.703  -6.075  0.00  0.00    +0.003 A 
ATOM     12  C   UNL     1      -1.501  -5.290  -6.081  0.00  0.00    +0.008 A 
ATOM     13  C   UNL     1      -1.155  -6.169  -7.092  0.00  0.00    +0.000 A 
ATOM     14  C   UNL     1      -2.063  -6.457  -8.095  0.00  0.00    +0.002 A 
ATOM     15  C   UNL     1      -3.311  -5.870  -8.093  0.00  0.00    +0.023 A 
ATOM     16  C   UNL     1      -3.667  -4.983  -7.080  0.00  0.00    +0.039 A 
ATOM     17  N   UNL     1      -4.850  -4.272  -6.864  0.00  0.00    -0.283 N 
ATOM     18  C   UNL     1      -4.790  -3.513  -5.754  0.00  0.00    +0.243 C 
ATOM     19  O   UNL     1      -5.665  -2.793  -5.321  0.00  0.00    -0.273 OA
ATOM     20  H   UNL     1      -2.675  -4.738  -3.517  0.00  0.00    +0.123 HD
ATOM     21  H   UNL     1      -5.624  -4.320  -7.447  0.00  0.00    +0.155 HD
ENDROOT
BRANCH   1  26
ATOM     22  C   UNL     1       1.762  -1.689  -3.809  0.00  0.00    +0.091 A 
ATOM     23  C   UNL     1       3.120  -2.120  -3.482  0.00  0.00    -0.021 A 
ATOM     24  C   UNL     1       3.209  -3.405  -3.093  0.00  0.00    -0.004 A 
ATOM     25  S   UNL     1       1.542  -4.009  -3.160  0.00  0.00    -0.077 S 
ATOM     26  C   UNL     1       0.752  -2.623  -3.678  0.00  0.00    +0.096 A 
ATOM     27  C   UNL     1       4.626  -3.798  -2.774  0.00  0.00    +0.043 C 
ATOM     28  C   UNL     1       5.493  -2.698  -3.426  0.00  0.00    +0.010 C 
ATOM     29  C   UNL     1       4.517  -1.503  -3.454  0.00  0.00    +0.037 C 
BRANCH  22  30
ATOM     30  C   UNL     1       1.483  -0.320  -4.252  0.00  0.00    +0.342 C 
ATOM     31  O   UNL     1       1.224   0.543  -3.435  0.00  0.00    -0.245 OA
BRANCH  30  32
ATOM     32  O   UNL     1       1.513  -0.017  -5.566  0.00  0.00    -0.461 OA
BRANCH  32  34
ATOM     33  C   UNL     1       1.311   1.487  -7.446  0.00  0.00    +0.048 C 
ATOM     34  C   UNL     1       1.230   1.337  -5.926  0.00  0.00    +0.229 C 
ENDBRANCH  32  34
ENDBRANCH  30  32
ENDBRANCH  22  30
ENDBRANCH   1  26
BRANCH   5  35
ATOM     35  C   UNL     1      -3.323  -3.329  -1.495  0.00  0.00    +0.028 C 
BRANCH  35  36
ATOM     36  C   UNL     1      -4.296  -4.321  -0.855  0.00  0.00    +0.097 C 
BRANCH  36  37
ATOM     37  C   UNL     1      -3.877  -4.588   0.568  0.00  0.00    +0.211 C 
ATOM     38  O   UNL     1      -2.897  -4.040   1.025  0.00  0.00    -0.276 OA
ATOM     39  N   UNL     1      -4.592  -5.437   1.333  0.00  0.00    -0.329 N 
ATOM     40  H   UNL     1      -5.376  -5.876   0.967  0.00  0.00    +0.145 HD
ATOM     41  H   UNL     1      -4.323  -5.609   2.249  0.00  0.00    +0.145 HD
ENDBRANCH  36  37
ENDBRANCH  35  36
ENDBRANCH   5  35
TORSDOF 7
