REMARK  Name = ZINC36555346
REMARK  14 active torsions:
REMARK  status: ('A' for Active; 'I' for Inactive)
REMARK    1  A    between atoms: C_1  and  C_2
REMARK    2  A    between atoms: C_2  and  C_3
REMARK    3  A    between atoms: C_3  and  C_4
REMARK    4  A    between atoms: C_4  and  N_5
REMARK    5  A    between atoms: C_6  and  C_8
REMARK    6  A    between atoms: C_8  and  C_10
REMARK    7  A    between atoms: C_8  and  N_17
REMARK    8  A    between atoms: C_13  and  O_16
REMARK    9  A    between atoms: N_17  and  C_18
REMARK   10  A    between atoms: C_18  and  C_19
REMARK   11  A    between atoms: C_22  and  C_24
REMARK   12  A    between atoms: C_25  and  C_27
REMARK   13  A    between atoms: C_27  and  C_35
REMARK   14  A    between atoms: C_28  and  C_29
REMARK                            x       y       z     vdW  Elec       q    Type
REMARK                         _______ _______ _______ _____ _____    ______ ____
ROOT
ATOM      1  N   UNL     1       2.898  -5.196  -3.672  0.00  0.00    -0.275 N 
ATOM      2  C   UNL     1       4.192  -5.429  -3.372  0.00  0.00    +0.248 C 
ATOM      3  O   UNL     1       4.658  -6.543  -3.513  0.00  0.00    -0.270 OA
ENDROOT
BRANCH   2   4
ATOM      4  C   UNL     1       5.040  -4.334  -2.873  0.00  0.00    +0.045 C 
ATOM      5  C   UNL     1       4.767  -3.755  -1.674  0.00  0.00    +0.021 C 
BRANCH   5   6
ATOM      6  C   UNL     1       3.709  -4.306  -0.816  0.00  0.00    -0.024 A 
ATOM      7  C   UNL     1       3.457  -5.683  -0.805  0.00  0.00    +0.008 A 
ATOM      8  C   UNL     1       2.462  -6.191   0.003  0.00  0.00    +0.001 A 
ATOM      9  C   UNL     1       1.714  -5.344   0.803  0.00  0.00    +0.000 A 
ATOM     10  C   UNL     1       1.957  -3.982   0.798  0.00  0.00    +0.001 A 
ATOM     11  C   UNL     1       2.952  -3.457   0.000  0.00  0.00    +0.008 A 
ENDBRANCH   5   6
BRANCH   4  12
ATOM     12  C   UNL     1       6.191  -3.864  -3.678  0.00  0.00    -0.013 A 
ATOM     13  C   UNL     1       5.983  -3.317  -4.944  0.00  0.00    +0.008 A 
ATOM     14  C   UNL     1       7.059  -2.880  -5.689  0.00  0.00    +0.001 A 
ATOM     15  C   UNL     1       8.342  -2.985  -5.182  0.00  0.00    +0.000 A 
ATOM     16  C   UNL     1       8.555  -3.527  -3.927  0.00  0.00    +0.001 A 
ATOM     17  C   UNL     1       7.486  -3.961  -3.170  0.00  0.00    +0.008 A 
ENDBRANCH   4  12
ENDBRANCH   2   4
BRANCH   1  18
ATOM     18  C   UNL     1       2.305  -3.887  -3.389  0.00  0.00    +0.193 C 
BRANCH  18  19
ATOM     19  C   UNL     1       1.959  -3.201  -4.686  0.00  0.00    -0.018 A 
ATOM     20  C   UNL     1       0.885  -3.644  -5.436  0.00  0.00    +0.009 A 
ATOM     21  C   UNL     1       0.567  -3.018  -6.625  0.00  0.00    +0.046 A 
ATOM     22  C   UNL     1       1.325  -1.943  -7.066  0.00  0.00    +0.117 A 
ATOM     23  C   UNL     1       2.401  -1.500  -6.312  0.00  0.00    +0.046 A 
ATOM     24  C   UNL     1       2.713  -2.127  -5.120  0.00  0.00    +0.009 A 
BRANCH  22  25
ATOM     25  O   UNL     1       1.013  -1.325  -8.236  0.00  0.00    -0.507 OA
ATOM     26  H   UNL     1       0.390  -0.592  -8.140  0.00  0.00    +0.292 HD
ENDBRANCH  22  25
ENDBRANCH  18  19
BRANCH  18  28
ATOM     27  N   UNL     1       0.336  -2.994  -2.187  0.00  0.00    -0.313 N 
ATOM     28  C   UNL     1       1.054  -4.069  -2.568  0.00  0.00    +0.238 C 
ATOM     29  O   UNL     1       0.694  -5.183  -2.251  0.00  0.00    -0.273 OA
ATOM     30  H   UNL     1       0.624  -2.103  -2.441  0.00  0.00    +0.149 HD
BRANCH  27  31
ATOM     31  C   UNL     1      -0.879  -3.171  -1.389  0.00  0.00    +0.104 C 
BRANCH  31  32
ATOM     32  C   UNL     1      -1.499  -1.804  -1.093  0.00  0.00    +0.018 C 
BRANCH  32  34
ATOM     33  C   UNL     1      -3.389  -0.622   0.036  0.00  0.00    +0.004 C 
ATOM     34  C   UNL     1      -2.769  -1.989  -0.259  0.00  0.00    -0.002 C 
ENDBRANCH  32  34
ENDBRANCH  31  32
ENDBRANCH  27  31
ENDBRANCH  18  28
ENDBRANCH   1  18
BRANCH   1  35
ATOM     35  C   UNL     1       2.086  -6.252  -4.281  0.00  0.00    +0.183 C 
BRANCH  35  36
ATOM     36  C   UNL     1       2.321  -6.271  -5.770  0.00  0.00    +0.122 A 
ATOM     37  C   UNL     1       3.224  -7.033  -6.414  0.00  0.00    +0.046 A 
ATOM     38  C   UNL     1       3.104  -6.734  -7.790  0.00  0.00    +0.045 A 
ATOM     39  C   UNL     1       2.136  -5.808  -7.905  0.00  0.00    +0.102 A 
ATOM     40  O   UNL     1       1.661  -5.536  -6.679  0.00  0.00    -0.463 OA
ATOM     41  C   UNL     1       1.660  -5.185  -9.192  0.00  0.00    +0.086 C 
ENDBRANCH  35  36
ENDBRANCH   1  35
TORSDOF 12
