REMARK  Name = ZINC44565277
REMARK  7 active torsions:
REMARK  status: ('A' for Active; 'I' for Inactive)
REMARK    1  A    between atoms: C_1  and  N_2
REMARK    2  A    between atoms: C_7  and  C_9
REMARK    3  A    between atoms: C_9  and  N_10
REMARK    4  A    between atoms: N_10  and  S_11
REMARK    5  A    between atoms: S_11  and  C_14
REMARK    6  A    between atoms: C_19  and  N_20
REMARK    7  A    between atoms: N_20  and  N_21
REMARK                            x       y       z     vdW  Elec       q    Type
REMARK                         _______ _______ _______ _____ _____    ______ ____
ROOT
ATOM      1  S   UNL     1       3.260   2.877   1.730  0.00  0.00    +0.062 S 
ATOM      2  O   UNL     1       2.891   4.247   1.654  0.00  0.00    -0.153 OA
ATOM      3  O   UNL     1       3.818   2.303   2.904  0.00  0.00    -0.153 OA
ENDROOT
BRANCH   1   4
ATOM      4  C   UNL     1       4.416   2.593   0.431  0.00  0.00    +0.147 A 
ATOM      5  C   UNL     1       5.615   1.953   0.688  0.00  0.00    +0.048 A 
ATOM      6  C   UNL     1       6.497   1.750  -0.366  0.00  0.00    +0.038 A 
ATOM      7  C   UNL     1       6.154   2.191  -1.629  0.00  0.00    +0.128 A 
ATOM      8  N   UNL     1       5.003   2.800  -1.844  0.00  0.00    -0.236 NA
ATOM      9  C   UNL     1       4.133   3.005  -0.867  0.00  0.00    +0.159 A 
ATOM     10 BR   UNL     1       8.151   0.881  -0.074  0.00  0.00    -0.049 Br
BRANCH   9  11
ATOM     11  N   UNL     1       2.929   3.644  -1.139  0.00  0.00    -0.266 N 
ATOM     12  H   UNL     1       2.305   3.830  -0.420  0.00  0.00    +0.167 HD
BRANCH  11  13
ATOM     13  N   UNL     1       2.625   4.011  -2.420  0.00  0.00    -0.255 NA
ATOM     14  H   UNL     1       1.724   4.463  -2.462  0.00  0.00    +0.140 HD
ATOM     15  H   UNL     1       3.344   4.604  -2.806  0.00  0.00    +0.140 HD
ENDBRANCH  11  13
ENDBRANCH   9  11
ENDBRANCH   1   4
BRANCH   1  16
ATOM     16  N   UNL     1       1.900   2.000   1.375  0.00  0.00    -0.191 NA
ATOM     17  H   UNL     1       1.065   2.455   1.188  0.00  0.00    +0.148 HD
BRANCH  16  18
ATOM     18  C   UNL     1       1.960   0.536   1.345  0.00  0.00    +0.090 C 
BRANCH  18  25
ATOM     19  C   UNL     1       0.605   0.159   3.775  0.00  0.00    -0.096 C 
ATOM     20  N   UNL     1      -0.161   0.489   2.566  0.00  0.00    +0.381 N 
ATOM     21  C   UNL     1      -1.498  -0.111   2.656  0.00  0.00    -0.079 C 
ATOM     22  C   UNL     1      -2.327   0.297   1.437  0.00  0.00    -0.019 C 
ATOM     23  C   UNL     1      -1.631  -0.194   0.165  0.00  0.00    -0.003 C 
ATOM     24  C   UNL     1      -0.211   0.378   0.118  0.00  0.00    -0.014 C 
ATOM     25  C   UNL     1       0.540  -0.033   1.387  0.00  0.00    -0.053 C 
ATOM     26  H   UNL     1      -0.248   1.491   2.487  0.00  0.00    -0.082 HD
ENDBRANCH  18  25
ENDBRANCH  16  18
ENDBRANCH   1  16
TORSDOF 6
