REMARK  Name = ZINC36186516
REMARK  6 active torsions:
REMARK  status: ('A' for Active; 'I' for Inactive)
REMARK    1  A    between atoms: C_6  and  C_7
REMARK    2  A    between atoms: C_7  and  O_9
REMARK    3  A    between atoms: O_9  and  C_10
REMARK    4  A    between atoms: C_10  and  C_11
REMARK    5  A    between atoms: N_13  and  C_14
REMARK    6  A    between atoms: C_17  and  N_21
REMARK                            x       y       z     vdW  Elec       q    Type
REMARK                         _______ _______ _______ _____ _____    ______ ____
ROOT
ATOM      1  C   UNL     1      -1.266  -0.756  -0.022  0.00  0.00    +0.340 C 
ATOM      2  O   UNL     1      -1.250  -1.971  -0.034  0.00  0.00    -0.245 OA
ENDROOT
BRANCH   1   8
ATOM      3  C   UNL     1      -0.018   1.400  -0.022  0.00  0.00    +0.017 A 
ATOM      4  C   UNL     1       1.145   2.111  -0.034  0.00  0.00    +0.027 A 
ATOM      5  C   UNL     1       2.372   1.452  -0.061  0.00  0.00    +0.047 A 
ATOM      6  C   UNL     1       2.406   0.042  -0.075  0.00  0.00    +0.004 A 
ATOM      7  C   UNL     1       1.216  -0.682  -0.062  0.00  0.00    +0.025 A 
ATOM      8  C   UNL     1       0.001  -0.002  -0.036  0.00  0.00    +0.060 A 
ATOM      9  C   UNL     1       3.820  -0.322  -0.102  0.00  0.00    -0.019 A 
ATOM     10  C   UNL     1       4.528   0.822  -0.102  0.00  0.00    +0.020 A 
ATOM     11  N   UNL     1       3.675   1.890  -0.078  0.00  0.00    -0.358 N 
ATOM     12  H   UNL     1       3.949   2.820  -0.073  0.00  0.00    +0.166 HD
ATOM     13  C   UNL     1       6.039   0.872  -0.126  0.00  0.00    +0.053 C 
ATOM     14  C   UNL     1       6.578  -0.506   0.274  0.00  0.00    +0.006 C 
ATOM     15  C   UNL     1       5.887  -1.587  -0.561  0.00  0.00    +0.005 C 
ATOM     16  C   UNL     1       4.421  -1.704  -0.127  0.00  0.00    +0.037 C 
ENDBRANCH   1   8
BRANCH   1  17
ATOM     17  O   UNL     1      -2.442  -0.099   0.003  0.00  0.00    -0.452 OA
BRANCH  17  18
ATOM     18  C   UNL     1      -3.629  -0.893   0.015  0.00  0.00    +0.328 C 
BRANCH  18  19
ATOM     19  C   UNL     1      -4.837   0.008   0.043  0.00  0.00    +0.255 C 
ATOM     20  O   UNL     1      -4.694   1.213   0.052  0.00  0.00    -0.272 OA
ATOM     21  N   UNL     1      -6.075  -0.524   0.059  0.00  0.00    -0.282 N 
ATOM     22  H   UNL     1      -6.191  -1.484  -0.014  0.00  0.00    +0.155 HD
BRANCH  21  23
ATOM     23  C   UNL     1      -7.193   0.309   0.180  0.00  0.00    +0.048 A 
ATOM     24  C   UNL     1      -7.189   1.569  -0.405  0.00  0.00    +0.026 A 
ATOM     25  C   UNL     1      -8.294   2.389  -0.284  0.00  0.00    +0.034 A 
ATOM     26  C   UNL     1      -9.404   1.957   0.419  0.00  0.00    +0.127 A 
ATOM     27  C   UNL     1      -9.412   0.704   1.003  0.00  0.00    +0.049 A 
ATOM     28  C   UNL     1      -8.312  -0.124   0.880  0.00  0.00    +0.041 A 
ATOM     29 BR   UNL     1      -8.326  -1.842   1.672  0.00  0.00    -0.048 Br
BRANCH  26  30
ATOM     30  N   UNL     1     -10.585   2.839   0.548  0.00  0.00    +0.056 N 
ATOM     31  O   UNL     1     -10.580   3.935   0.039  0.00  0.00    -0.126 OA
ATOM     32  O   UNL     1     -11.556   2.463   1.162  0.00  0.00    -0.126 OA
ENDBRANCH  26  30
ENDBRANCH  21  23
ENDBRANCH  18  19
ENDBRANCH  17  18
ENDBRANCH   1  17
TORSDOF 6
