REMARK  Name = ZINC35337843
REMARK  10 active torsions:
REMARK  status: ('A' for Active; 'I' for Inactive)
REMARK    1  A    between atoms: C_1  and  C_2
REMARK    2  A    between atoms: C_4  and  C_35
REMARK    3  A    between atoms: C_5  and  S_9
REMARK    4  A    between atoms: C_6  and  C_8
REMARK    5  A    between atoms: S_9  and  N_12
REMARK    6  A    between atoms: N_12  and  C_13
REMARK    7  A    between atoms: C_17  and  C_19
REMARK    8  A    between atoms: C_21  and  C_31
REMARK    9  A    between atoms: C_22  and  C_30
REMARK   10  A    between atoms: N_33  and  C_34
REMARK                            x       y       z     vdW  Elec       q    Type
REMARK                         _______ _______ _______ _____ _____    ______ ____
ROOT
ATOM      1  C   UNL     1       2.925  -4.542   1.553  0.00  0.00    +0.048 A 
ATOM      2  C   UNL     1       3.571  -3.442   2.103  0.00  0.00    +0.024 A 
ATOM      3  C   UNL     1       4.557  -3.625   3.052  0.00  0.00    +0.002 A 
ATOM      4  C   UNL     1       4.904  -4.903   3.454  0.00  0.00    +0.006 A 
ATOM      5  C   UNL     1       4.264  -6.000   2.908  0.00  0.00    -0.021 A 
ATOM      6  C   UNL     1       3.272  -5.823   1.963  0.00  0.00    +0.030 A 
ENDROOT
BRANCH   5   7
ATOM      7  C   UNL     1       4.645  -7.390   3.349  0.00  0.00    +0.143 C 
ATOM      8  C   UNL     1       5.914  -7.816   2.649  0.00  0.00    +0.058 C 
ATOM      9  C   UNL     1       7.117  -7.597   3.250  0.00  0.00    +0.025 C 
ATOM     10  N   UNL     1       7.184  -7.050   4.465  0.00  0.00    -0.341 N 
ATOM     11  C   UNL     1       6.117  -6.955   5.233  0.00  0.00    +0.135 C 
ATOM     12  N   UNL     1       4.896  -7.400   4.802  0.00  0.00    -0.300 N 
ATOM     13  C   UNL     1       3.875  -7.922   5.690  0.00  0.00    +0.109 C 
ATOM     14  C   UNL     1       3.728  -7.213   7.016  0.00  0.00    +0.030 C 
ATOM     15  C   UNL     1       5.043  -7.183   7.798  0.00  0.00    +0.078 C 
ATOM     16  S   UNL     1       6.239  -6.204   6.830  0.00  0.00    -0.092 S 
ATOM     17  C   UNL     1       8.387  -7.976   2.534  0.00  0.00    +0.064 C 
ATOM     18  H   UNL     1       8.035  -6.716   4.790  0.00  0.00    +0.167 HD
BRANCH   8  19
ATOM     19  C   UNL     1       5.855  -8.436   1.387  0.00  0.00    +0.244 C 
ATOM     20  O   UNL     1       6.881  -8.664   0.771  0.00  0.00    -0.270 OA
ATOM     21  N   UNL     1       4.662  -8.778   0.860  0.00  0.00    -0.315 N 
ATOM     22  C   UNL     1       4.600  -9.423  -0.454  0.00  0.00    +0.128 C 
ATOM     23  H   UNL     1       3.845  -8.596   1.350  0.00  0.00    +0.149 HD
ENDBRANCH   8  19
ENDBRANCH   5   7
BRANCH   1  24
ATOM     24  N   UNL     1       1.927  -4.361   0.594  0.00  0.00    -0.216 N 
ATOM     25  H   UNL     1       1.928  -4.896  -0.215  0.00  0.00    +0.174 HD
BRANCH  24  26
ATOM     26  S   UNL     1       0.740  -3.232   0.838  0.00  0.00    +0.073 S 
ATOM     27  O   UNL     1       0.245  -3.440   2.154  0.00  0.00    -0.150 OA
ATOM     28  O   UNL     1      -0.101  -3.272  -0.307  0.00  0.00    -0.150 OA
BRANCH  26  33
ATOM     29  C   UNL     1       3.405   2.182   0.836  0.00  0.00    +0.044 C 
ATOM     30  C   UNL     1       2.739   0.830   0.836  0.00  0.00    -0.050 A 
ATOM     31  C   UNL     1       2.418   0.218   2.034  0.00  0.00    +0.008 A 
ATOM     32  C   UNL     1       1.808  -1.022   2.034  0.00  0.00    -0.023 A 
ATOM     33  C   UNL     1       1.517  -1.650   0.837  0.00  0.00    +0.114 A 
ATOM     34  C   UNL     1       1.837  -1.038  -0.360  0.00  0.00    -0.023 A 
ATOM     35  C   UNL     1       2.444   0.204  -0.361  0.00  0.00    +0.008 A 
ATOM     36  C   UNL     1       1.521  -1.723  -1.665  0.00  0.00    +0.046 C 
ATOM     37  C   UNL     1       1.459  -1.690   3.339  0.00  0.00    +0.046 C 
ENDBRANCH  26  33
ENDBRANCH  24  26
ENDBRANCH   1  24
TORSDOF 5
