REMARK  Name = ZINC48696917
REMARK  9 active torsions:
REMARK  status: ('A' for Active; 'I' for Inactive)
REMARK    1  A    between atoms: C_1  and  N_2
REMARK    2  A    between atoms: N_6  and  C_7
REMARK    3  A    between atoms: C_7  and  C_8
REMARK    4  A    between atoms: N_20  and  C_21
REMARK    5  A    between atoms: N_20  and  C_22
REMARK    6  A    between atoms: C_22  and  C_28
REMARK    7  A    between atoms: C_28  and  N_30
REMARK    8  A    between atoms: N_30  and  C_31
REMARK    9  A    between atoms: C_31  and  C_32
REMARK                            x       y       z     vdW  Elec       q    Type
REMARK                         _______ _______ _______ _____ _____    ______ ____
ROOT
ATOM      1  C   UNL     1      -0.090   1.841  -2.214  0.00  0.00    +0.133 C 
ATOM      2  N   UNL     1       0.014   0.527  -1.576  0.00  0.00    -0.295 N 
ATOM      3  C   UNL     1      -0.346  -0.678  -2.109  0.00  0.00    +0.165 C 
ATOM      4  N   UNL     1      -0.128  -1.675  -1.285  0.00  0.00    -0.318 N 
ATOM      5  C   UNL     1       0.397  -1.268  -0.118  0.00  0.00    +0.128 C 
ATOM      6  N   UNL     1       0.725  -2.012   0.899  0.00  0.00    -0.264 NA
ATOM      7  C   UNL     1       0.535   0.232  -0.234  0.00  0.00    +0.094 C 
ATOM      8  C   UNL     1       1.997   0.647  -0.125  0.00  0.00    +0.034 C 
ATOM      9  C   UNL     1       2.111   2.166  -0.282  0.00  0.00    +0.003 C 
ATOM     10  C   UNL     1       1.284   2.854   0.806  0.00  0.00    +0.000 C 
ATOM     11  C   UNL     1      -0.184   2.445   0.669  0.00  0.00    +0.003 C 
ATOM     12  C   UNL     1      -0.307   0.927   0.830  0.00  0.00    +0.034 C 
ATOM     13  N   UNL     1      -0.875  -0.829  -3.360  0.00  0.00    -0.296 N 
ATOM     14  C   UNL     1      -1.801   0.176  -3.888  0.00  0.00    +0.133 C 
ATOM     15  H   UNL     1      -0.324  -2.602  -1.495  0.00  0.00    +0.169 HD
ENDROOT
BRANCH  13  16
ATOM     16  C   UNL     1      -0.516  -1.994  -4.172  0.00  0.00    +0.081 C 
ATOM     17  C   UNL     1      -0.895  -1.734  -5.631  0.00  0.00    +0.032 C 
ATOM     18  C   UNL     1      -0.141  -0.504  -6.143  0.00  0.00    +0.002 C 
ATOM     19  C   UNL     1       1.365  -0.751  -6.043  0.00  0.00    +0.000 C 
ATOM     20  C   UNL     1       1.744  -1.011  -4.583  0.00  0.00    +0.002 C 
ATOM     21  C   UNL     1       0.991  -2.241  -4.072  0.00  0.00    +0.032 C 
BRANCH  16  22
ATOM     22  C   UNL     1      -1.258  -3.205  -3.668  0.00  0.00    +0.073 C 
ATOM     23  S   UNL     1      -0.455  -4.535  -3.291  0.00  0.00    -0.038 S 
BRANCH  22  24
ATOM     24  N   UNL     1      -2.599  -3.167  -3.536  0.00  0.00    -0.336 N 
ATOM     25  H   UNL     1      -3.094  -2.387  -3.833  0.00  0.00    +0.147 HD
BRANCH  24  26
ATOM     26  C   UNL     1      -3.309  -4.304  -2.944  0.00  0.00    +0.137 C 
BRANCH  26  27
ATOM     27  C   UNL     1      -4.794  -4.061  -3.016  0.00  0.00    -0.030 A 
ATOM     28  C   UNL     1      -5.422  -3.321  -2.031  0.00  0.00    +0.005 A 
ATOM     29  C   UNL     1      -6.785  -3.098  -2.098  0.00  0.00    +0.000 A 
ATOM     30  C   UNL     1      -7.520  -3.614  -3.149  0.00  0.00    +0.000 A 
ATOM     31  C   UNL     1      -6.891  -4.353  -4.134  0.00  0.00    +0.000 A 
ATOM     32  C   UNL     1      -5.528  -4.572  -4.070  0.00  0.00    +0.005 A 
ENDBRANCH  26  27
ENDBRANCH  24  26
ENDBRANCH  22  24
ENDBRANCH  16  22
ENDBRANCH  13  16
BRANCH   6  33
ATOM     33  C   UNL     1       0.639  -3.471   0.797  0.00  0.00    +0.178 C 
BRANCH  33  34
ATOM     34  C   UNL     1       2.021  -4.063   0.903  0.00  0.00    -0.026 A 
ATOM     35  C   UNL     1       2.819  -4.161  -0.221  0.00  0.00    +0.005 A 
ATOM     36  C   UNL     1       4.087  -4.705  -0.123  0.00  0.00    +0.000 A 
ATOM     37  C   UNL     1       4.556  -5.150   1.098  0.00  0.00    +0.000 A 
ATOM     38  C   UNL     1       3.757  -5.051   2.223  0.00  0.00    +0.000 A 
ATOM     39  C   UNL     1       2.492  -4.504   2.126  0.00  0.00    +0.005 A 
ENDBRANCH  33  34
ENDBRANCH   6  33
TORSDOF 7
