REMARK  Name = ZINC21808686
REMARK  4 active torsions:
REMARK  status: ('A' for Active; 'I' for Inactive)
REMARK    1  A    between atoms: C_1  and  C_2
REMARK    2  A    between atoms: C_2  and  C_4
REMARK    3  A    between atoms: C_2  and  N_14
REMARK    4  A    between atoms: N_14  and  C_15
REMARK                            x       y       z     vdW  Elec       q    Type
REMARK                         _______ _______ _______ _____ _____    ______ ____
ROOT
ATOM      1  C   UNL     1       6.525   0.349   1.365  0.00  0.00    +0.036 C 
ATOM      2  C   UNL     1       6.013   0.628  -0.050  0.00  0.00    +0.133 C 
ENDROOT
BRANCH   2   3
ATOM      3  C   UNL     1       4.507   0.692  -0.036  0.00  0.00    +0.126 A 
ATOM      4  C   UNL     1       3.788   1.823  -0.024  0.00  0.00    +0.055 A 
ATOM      5  C   UNL     1       2.379   1.411  -0.013  0.00  0.00    +0.022 A 
ATOM      6  C   UNL     1       1.164   2.095   0.002  0.00  0.00    +0.027 A 
ATOM      7  C   UNL     1      -0.017   1.384   0.010  0.00  0.00    +0.019 A 
ATOM      8  C   UNL     1       0.002  -0.004   0.002  0.00  0.00    +0.019 A 
ATOM      9  C   UNL     1       1.197  -0.691  -0.013  0.00  0.00    +0.048 A 
ATOM     10  C   UNL     1       2.398   0.006  -0.020  0.00  0.00    +0.135 A 
ATOM     11  O   UNL     1       3.691  -0.376  -0.034  0.00  0.00    -0.458 OA
ATOM     12 BR   UNL     1      -1.669   2.304   0.022  0.00  0.00    -0.050 Br
ENDBRANCH   2   3
BRANCH   2  13
ATOM     13  N   UNL     1       6.447  -0.446  -0.947  0.00  0.00    -0.334 N 
ATOM     14  H   UNL     1       5.778  -1.293  -1.155  0.00  0.00    +0.147 HD
BRANCH  13  15
ATOM     15  C   UNL     1       7.712  -0.393  -1.539  0.00  0.00    +0.029 A 
ATOM     16  C   UNL     1       8.125  -1.410  -2.390  0.00  0.00    +0.024 A 
ATOM     17  C   UNL     1       9.376  -1.356  -2.973  0.00  0.00    +0.023 A 
ATOM     18  C   UNL     1      10.217  -0.289  -2.712  0.00  0.00    +0.059 A 
ATOM     19  C   UNL     1       9.809   0.727  -1.865  0.00  0.00    +0.061 A 
ATOM     20  C   UNL     1       8.556   0.680  -1.282  0.00  0.00    +0.044 A 
ATOM     21 CL   UNL     1      10.867   2.064  -1.540  0.00  0.00    -0.082 Cl
ATOM     22 CL   UNL     1      11.788  -0.225  -3.448  0.00  0.00    -0.082 Cl
ENDBRANCH  13  15
ENDBRANCH   2  13
TORSDOF 3
