REMARK  Name = ZINC39668909
REMARK  4 active torsions:
REMARK  status: ('A' for Active; 'I' for Inactive)
REMARK    1  A    between atoms: C_6  and  C_11
REMARK    2  A    between atoms: C_15  and  C_24
REMARK    3  A    between atoms: N_26  and  C_27
REMARK    4  A    between atoms: C_27  and  C_28
REMARK                            x       y       z     vdW  Elec       q    Type
REMARK                         _______ _______ _______ _____ _____    ______ ____
ROOT
ATOM      1  C   UNL     1       4.984  -2.714  -0.061  0.00  0.00    +0.247 C 
ATOM      2  O   UNL     1       6.023  -2.094  -0.177  0.00  0.00    -0.270 OA
ATOM      3  N   UNL     1       5.007  -4.058   0.034  0.00  0.00    -0.296 N 
ATOM      4  C   UNL     1       3.853  -4.988   0.053  0.00  0.00    +0.121 C 
ATOM      5  C   UNL     1       4.312  -6.196  -0.794  0.00  0.00    +0.100 C 
ATOM      6  C   UNL     1       5.848  -6.160  -0.728  0.00  0.00    -0.004 C 
ATOM      7  C   UNL     1       6.194  -4.941   0.138  0.00  0.00    +0.115 C 
ATOM      8  C   UNL     1       6.434  -5.989  -2.127  0.00  0.00    -0.010 C 
ATOM      9  C   UNL     1       7.962  -6.014  -2.042  0.00  0.00    -0.082 C 
ATOM     10  N   UNL     1       8.401  -7.287  -1.459  0.00  0.00    +0.379 N 
ATOM     11  C   UNL     1       7.911  -7.402  -0.080  0.00  0.00    -0.082 C 
ATOM     12  C   UNL     1       6.380  -7.436  -0.082  0.00  0.00    -0.010 C 
ATOM     13  H   UNL     1       8.037  -8.051  -2.009  0.00  0.00    -0.086 HD
ATOM     14  H   UNL     1       9.409  -7.327  -1.460  0.00  0.00    -0.086 HD
ENDROOT
BRANCH   1  20
ATOM     15  C   UNL     1      -1.017  -0.486   0.667  0.00  0.00    +0.001 A 
ATOM     16  C   UNL     1      -0.924  -1.743   1.262  0.00  0.00    +0.001 A 
ATOM     17  C   UNL     1       0.246  -2.438   1.249  0.00  0.00    +0.008 A 
ATOM     18  C   UNL     1       1.379  -1.882   0.628  0.00  0.00    -0.017 A 
ATOM     19  C   UNL     1       2.600  -2.572   0.597  0.00  0.00    +0.021 A 
ATOM     20  C   UNL     1       3.694  -1.993  -0.025  0.00  0.00    +0.037 A 
ATOM     21  C   UNL     1       3.587  -0.724  -0.621  0.00  0.00    +0.013 A 
ATOM     22  C   UNL     1       2.413  -0.042  -0.600  0.00  0.00    +0.009 A 
ATOM     23  C   UNL     1       1.284  -0.603   0.023  0.00  0.00    -0.018 A 
ATOM     24  C   UNL     1       0.059   0.083   0.057  0.00  0.00    +0.008 A 
ENDBRANCH   1  20
BRANCH   5  25
ATOM     25  C   UNL     1       3.842  -6.048  -2.218  0.00  0.00    +0.218 C 
ATOM     26  O   UNL     1       3.788  -4.949  -2.728  0.00  0.00    -0.275 OA
ATOM     27  N   UNL     1       3.482  -7.137  -2.925  0.00  0.00    -0.312 N 
ATOM     28  H   UNL     1       3.525  -8.016  -2.518  0.00  0.00    +0.149 HD
BRANCH  27  29
ATOM     29  C   UNL     1       3.025  -6.993  -4.310  0.00  0.00    +0.140 C 
BRANCH  29  30
ATOM     30  C   UNL     1       2.680  -8.370  -4.879  0.00  0.00    +0.165 C 
ATOM     31  C   UNL     1       2.336  -8.235  -6.340  0.00  0.00    -0.014 A 
ATOM     32  C   UNL     1       3.129  -7.425  -7.138  0.00  0.00    +0.006 A 
ATOM     33  C   UNL     1       2.846  -7.281  -8.482  0.00  0.00    +0.000 A 
ATOM     34  C   UNL     1       1.768  -7.947  -9.034  0.00  0.00    +0.000 A 
ATOM     35  C   UNL     1       0.976  -8.752  -8.240  0.00  0.00    +0.004 A 
ATOM     36  C   UNL     1       1.257  -8.895  -6.890  0.00  0.00    -0.040 A 
ATOM     37  C   UNL     1       0.363  -9.772  -6.052  0.00  0.00    +0.063 C 
ATOM     38  C   UNL     1       1.066 -10.123  -4.739  0.00  0.00    +0.165 C 
ATOM     39  O   UNL     1       1.572  -8.914  -4.162  0.00  0.00    -0.370 OA
ENDBRANCH  29  30
ENDBRANCH  27  29
ENDBRANCH   5  25
TORSDOF 4
