REMARK  Name = ZINC03840698
REMARK  7 active torsions:
REMARK  status: ('A' for Active; 'I' for Inactive)
REMARK    1  A    between atoms: C_1  and  C_2
REMARK    2  A    between atoms: C_7  and  C_9
REMARK    3  A    between atoms: C_16  and  C_37
REMARK    4  A    between atoms: C_19  and  O_36
REMARK    5  A    between atoms: C_21  and  C_25
REMARK    6  A    between atoms: C_25  and  C_27
REMARK    7  A    between atoms: C_25  and  C_28
REMARK                            x       y       z     vdW  Elec       q    Type
REMARK                         _______ _______ _______ _____ _____    ______ ____
ROOT
ATOM      1  C   UNL     1      -1.343   0.948   1.389  0.00  0.00    +0.014 C 
ATOM      2  C   UNL     1      -1.409  -0.436   2.039  0.00  0.00    +0.042 C 
ATOM      3  C   UNL     1      -2.554  -0.470   3.043  0.00  0.00    +0.056 A 
ATOM      4  C   UNL     1      -2.384  -1.095   4.240  0.00  0.00    +0.014 A 
ATOM      5  S   UNL     1      -3.958  -0.869   5.027  0.00  0.00    -0.070 S 
ATOM      6  C   UNL     1      -4.723   0.049   3.695  0.00  0.00    +0.128 A 
ATOM      7  N   UNL     1      -3.737   0.089   2.814  0.00  0.00    -0.242 NA
ATOM      8  C   UNL     1      -1.168  -1.789   4.742  0.00  0.00    +0.051 C 
ATOM      9  C   UNL     1      -0.198  -2.020   3.567  0.00  0.00    -0.022 C 
ATOM     10  C   UNL     1      -0.086  -0.727   2.757  0.00  0.00    +0.033 C 
ATOM     11  C   UNL     1       0.998  -0.871   1.683  0.00  0.00    +0.123 C 
ATOM     12  C   UNL     1       2.341  -1.212   2.325  0.00  0.00    +0.029 C 
ATOM     13  C   UNL     1       2.207  -2.544   3.069  0.00  0.00    +0.007 C 
ATOM     14  C   UNL     1       1.162  -2.388   4.170  0.00  0.00    +0.008 C 
ATOM     15  C   UNL     1      -0.706  -3.163   2.686  0.00  0.00    +0.012 C 
ENDROOT
BRANCH   6  16
ATOM     16  C   UNL     1      -6.087   0.611   3.604  0.00  0.00    +0.113 A 
ATOM     17  C   UNL     1      -7.052   0.534   4.561  0.00  0.00    +0.114 A 
ATOM     18  N   UNL     1      -8.148   1.181   4.066  0.00  0.00    -0.350 N 
ATOM     19  H   UNL     1      -8.999   1.297   4.517  0.00  0.00    +0.166 HD
ATOM     20  C   UNL     1      -7.827   1.633   2.828  0.00  0.00    +0.197 A 
ATOM     21  N   UNL     1      -6.597   1.296   2.559  0.00  0.00    -0.234 NA
ENDBRANCH   6  16
BRANCH  12  22
ATOM     22  C   UNL     1       2.734  -0.109   3.309  0.00  0.00    +0.078 C 
ATOM     23  C   UNL     1       2.967   1.197   2.546  0.00  0.00    +0.017 C 
BRANCH  22  24
ATOM     24  C   UNL     1       4.000  -0.503   4.026  0.00  0.00    +0.219 C 
ATOM     25  O   UNL     1       4.720  -1.359   3.559  0.00  0.00    -0.275 OA
ATOM     26  N   UNL     1       4.331   0.096   5.188  0.00  0.00    -0.300 N 
ATOM     27  C   UNL     1       3.428   1.089   5.771  0.00  0.00    +0.118 C 
ATOM     28  C   UNL     1       2.870   0.556   7.096  0.00  0.00    +0.088 C 
ATOM     29  S   UNL     1       4.261   0.160   8.196  0.00  0.00    -0.158 S 
ATOM     30  C   UNL     1       5.287  -0.949   7.183  0.00  0.00    +0.088 C 
ATOM     31  C   UNL     1       5.585  -0.260   5.852  0.00  0.00    +0.118 C 
ENDBRANCH  22  24
ENDBRANCH  12  22
BRANCH  11  32
ATOM     32  O   UNL     1       1.119   0.360   0.967  0.00  0.00    -0.391 OA
ATOM     33  H   UNL     1       1.789   0.344   0.269  0.00  0.00    +0.210 HD
ENDBRANCH  11  32
TORSDOF 4
