REMARK  Name = ZINC26189716
REMARK  12 active torsions:
REMARK  status: ('A' for Active; 'I' for Inactive)
REMARK    1  A    between atoms: C_3  and  N_23
REMARK    2  A    between atoms: C_6  and  C_7
REMARK    3  A    between atoms: C_7  and  C_8
REMARK    4  A    between atoms: C_8  and  N_9
REMARK    5  A    between atoms: N_9  and  C_10
REMARK    6  A    between atoms: C_10  and  C_11
REMARK    7  A    between atoms: C_11  and  C_13
REMARK    8  A    between atoms: C_11  and  O_22
REMARK    9  A    between atoms: C_13  and  O_14
REMARK   10  A    between atoms: O_14  and  C_15
REMARK   11  A    between atoms: N_23  and  S_24
REMARK   12  A    between atoms: S_24  and  C_27
REMARK                            x       y       z     vdW  Elec       q    Type
REMARK                         _______ _______ _______ _____ _____    ______ ____
ROOT
ATOM      1  C   UNL     1       5.197  -1.591  -5.264  0.00  0.00    +0.016 C 
ENDROOT
BRANCH   1   7
ATOM      2  C   UNL     1       3.466  -3.151  -4.352  0.00  0.00    +0.005 A 
ATOM      3  C   UNL     1       2.470  -3.466  -3.448  0.00  0.00    +0.025 A 
ATOM      4  C   UNL     1       2.117  -2.555  -2.461  0.00  0.00    +0.048 A 
ATOM      5  C   UNL     1       2.763  -1.327  -2.391  0.00  0.00    +0.025 A 
ATOM      6  C   UNL     1       3.761  -1.021  -3.295  0.00  0.00    +0.005 A 
ATOM      7  C   UNL     1       4.111  -1.930  -4.276  0.00  0.00    -0.049 A 
BRANCH   4   8
ATOM      8  N   UNL     1       1.110  -2.869  -1.546  0.00  0.00    -0.216 N 
ATOM      9  H   UNL     1       0.121  -2.397  -1.632  0.00  0.00    +0.174 HD
BRANCH   8  10
ATOM     10  S   UNL     1       1.406  -3.955  -0.330  0.00  0.00    +0.072 S 
ATOM     11  O   UNL     1       1.970  -5.107  -0.943  0.00  0.00    -0.150 OA
ATOM     12  O   UNL     1       0.226  -4.012   0.459  0.00  0.00    -0.150 OA
BRANCH  10  13
ATOM     13  C   UNL     1       2.663  -3.262   0.692  0.00  0.00    +0.109 A 
ATOM     14  C   UNL     1       2.325  -2.377   1.698  0.00  0.00    +0.031 A 
ATOM     15  C   UNL     1       3.310  -1.833   2.501  0.00  0.00    +0.040 A 
ATOM     16  C   UNL     1       4.636  -2.175   2.296  0.00  0.00    +0.124 A 
ATOM     17  C   UNL     1       4.973  -3.061   1.288  0.00  0.00    +0.040 A 
ATOM     18  C   UNL     1       3.987  -3.604   0.487  0.00  0.00    +0.031 A 
ATOM     19  F   UNL     1       5.599  -1.643   3.080  0.00  0.00    -0.205 F 
ENDBRANCH  10  13
ENDBRANCH   8  10
ENDBRANCH   4   8
ENDBRANCH   1   7
BRANCH   1  20
ATOM     20  C   UNL     1       4.580  -0.900  -6.482  0.00  0.00    -0.078 C 
BRANCH  20  21
ATOM     21  N   UNL     1       5.639  -0.569  -7.445  0.00  0.00    +0.381 N 
ATOM     22  H   UNL     1       6.368   0.105  -6.971  0.00  0.00    -0.086 HD
ATOM     23  H   UNL     1       6.147  -1.492  -7.764  0.00  0.00    -0.086 HD
BRANCH  21  24
ATOM     24  C   UNL     1       5.083   0.096  -8.631  0.00  0.00    -0.048 C 
BRANCH  24  25
ATOM     25  C   UNL     1       6.213   0.425  -9.608  0.00  0.00    +0.135 C 
BRANCH  25  26
ATOM     26  O   UNL     1       7.155   1.292  -8.973  0.00  0.00    -0.390 OA
ATOM     27  H   UNL     1       8.042   1.638  -9.524  0.00  0.00    +0.210 HD
ENDBRANCH  25  26
BRANCH  25  28
ATOM     28  C   UNL     1       5.634   1.118 -10.843  0.00  0.00    +0.258 C 
BRANCH  28  29
ATOM     29  O   UNL     1       6.670   1.320 -11.806  0.00  0.00    -0.488 OA
BRANCH  29  30
ATOM     30  C   UNL     1       6.321   1.929 -12.971  0.00  0.00    +0.139 A 
ATOM     31  C   UNL     1       7.275   2.161 -13.958  0.00  0.00    +0.050 A 
ATOM     32  C   UNL     1       6.876   2.783 -15.127  0.00  0.00    +0.047 A 
ATOM     33  C   UNL     1       5.543   3.153 -15.277  0.00  0.00    +0.116 A 
ATOM     34  N   UNL     1       4.664   2.917 -14.316  0.00  0.00    -0.237 NA
ATOM     35  C   UNL     1       5.011   2.320 -13.191  0.00  0.00    +0.158 A 
ATOM     36  N   UNL     1       5.130   3.780 -16.450  0.00  0.00    -0.343 N 
ATOM     37  H   UNL     1       4.078   4.075 -16.575  0.00  0.00    +0.144 HD
ATOM     38  H   UNL     1       5.856   3.979 -17.252  0.00  0.00    +0.144 HD
ENDBRANCH  29  30
ENDBRANCH  28  29
ENDBRANCH  25  28
ENDBRANCH  24  25
ENDBRANCH  21  24
ENDBRANCH  20  21
ENDBRANCH   1  20
TORSDOF 12
