REMARK  Name = ZINC39466088
REMARK  6 active torsions:
REMARK  status: ('A' for Active; 'I' for Inactive)
REMARK    1  A    between atoms: C_1  and  C_2
REMARK    2  A    between atoms: C_2  and  C_3
REMARK    3  A    between atoms: C_2  and  S_4
REMARK    4  A    between atoms: S_4  and  P_7
REMARK    5  A    between atoms: C_15  and  C_24
REMARK    6  A    between atoms: C_29  and  O_30
REMARK                            x       y       z     vdW  Elec       q    Type
REMARK                         _______ _______ _______ _____ _____    ______ ____
ROOT
ATOM      1  P   UNL     1      -1.503  -2.736   0.180  0.00  0.00    +0.419 P 
ATOM      2  O   UNL     1      -0.777  -3.275  -0.992  0.00  0.00    -0.246 OA
ATOM      3  N   UNL     1      -2.993  -3.441   0.307  0.00  0.00    -0.161 NA
ATOM      4  N   UNL     1      -3.591  -3.400   1.547  0.00  0.00    -0.224 NA
ATOM      5  C   UNL     1      -4.893  -4.082   1.496  0.00  0.00    +0.108 C 
ATOM      6  C   UNL     1      -5.677  -3.739   2.763  0.00  0.00    +0.052 C 
ATOM      7  C   UNL     1      -4.826  -4.014   3.976  0.00  0.00    -0.041 A 
ATOM      8  C   UNL     1      -5.452  -4.149   5.204  0.00  0.00    +0.013 A 
ATOM      9  C   UNL     1      -4.702  -4.402   6.348  0.00  0.00    -0.000 A 
ATOM     10  C   UNL     1      -3.316  -4.520   6.250  0.00  0.00    +0.026 A 
ATOM     11  C   UNL     1      -2.704  -4.385   5.023  0.00  0.00    +0.021 A 
ATOM     12  C   UNL     1      -3.455  -4.131   3.882  0.00  0.00    -0.022 A 
ATOM     13  C   UNL     1      -2.729  -3.993   2.569  0.00  0.00    +0.129 C 
ATOM     14  C   UNL     1      -1.468  -3.150   2.783  0.00  0.00    +0.195 C 
ATOM     15  O   UNL     1      -0.718  -3.121   1.552  0.00  0.00    -0.298 OA
ATOM     16 BR   UNL     1      -2.281  -4.864   7.795  0.00  0.00    -0.050 Br
ATOM     17  H   UNL     1      -3.425  -3.862  -0.453  0.00  0.00    +0.152 HD
ENDROOT
BRANCH   9  18
ATOM     18  C   UNL     1      -5.373  -4.546   7.664  0.00  0.00    +0.025 A 
ATOM     19  C   UNL     1      -6.240  -5.611   7.895  0.00  0.00    +0.012 A 
ATOM     20  C   UNL     1      -6.861  -5.740   9.120  0.00  0.00    +0.001 A 
ATOM     21  C   UNL     1      -6.626  -4.814  10.121  0.00  0.00    +0.004 A 
ATOM     22  C   UNL     1      -5.768  -3.754   9.903  0.00  0.00    +0.046 A 
ATOM     23  C   UNL     1      -5.133  -3.615   8.679  0.00  0.00    +0.125 A 
BRANCH  23  24
ATOM     24  O   UNL     1      -4.285  -2.576   8.465  0.00  0.00    -0.506 OA
ATOM     25  H   UNL     1      -4.713  -1.784   8.113  0.00  0.00    +0.292 HD
ENDBRANCH  23  24
ENDBRANCH   9  18
BRANCH   1  26
ATOM     26  S   UNL     1      -1.700  -0.632   0.015  0.00  0.00    +0.058 S 
ATOM     27  O   UNL     1      -2.359  -0.234   1.209  0.00  0.00    -0.164 OA
ATOM     28  O   UNL     1      -2.308  -0.423  -1.252  0.00  0.00    -0.164 OA
BRANCH  26  30
ATOM     29  C   UNL     1      -0.019   1.526   0.010  0.00  0.00    +0.032 C 
ATOM     30  C   UNL     1       0.002  -0.004   0.002  0.00  0.00    +0.136 C 
ATOM     31  C   UNL     1       0.742  -0.511   1.242  0.00  0.00    +0.032 C 
ENDBRANCH  26  30
ENDBRANCH   1  26
TORSDOF 4
