REMARK  Name = ZINC02869257
REMARK  12 active torsions:
REMARK  status: ('A' for Active; 'I' for Inactive)
REMARK    1  A    between atoms: C_1  and  C_2
REMARK    2  A    between atoms: C_5  and  N_32
REMARK    3  A    between atoms: C_7  and  N_8
REMARK    4  A    between atoms: C_9  and  C_11
REMARK    5  A    between atoms: C_11  and  S_12
REMARK    6  A    between atoms: S_12  and  C_13
REMARK    7  A    between atoms: C_16  and  CA_19
REMARK    8  A    between atoms: N_17  and  C_18
REMARK    9  A    between atoms: CA_19  and  C_21
REMARK   10  A    between atoms: CA_19  and  N_23
REMARK   11  A    between atoms: C_21  and  O_22
REMARK   12  A    between atoms: C_24  and  C_26
REMARK                            x       y       z     vdW  Elec       q    Type
REMARK                         _______ _______ _______ _____ _____    ______ ____
ROOT
ATOM      1  C   UNL     1       8.883   0.921  -1.821  0.00  0.00    +0.192 A 
ATOM      2  N   UNL     1       8.399   1.879  -1.065  0.00  0.00    -0.122 NA
ATOM      3  N   UNL     1       7.419   1.430  -0.364  0.00  0.00    -0.131 NA
ATOM      4  C   UNL     1       7.221   0.170  -0.629  0.00  0.00    +0.157 A 
ATOM      5  N   UNL     1       8.149  -0.201  -1.563  0.00  0.00    -0.308 N 
ATOM      6  C   UNL     1       8.319  -1.526  -2.163  0.00  0.00    +0.152 C 
ENDROOT
BRANCH   1   7
ATOM      7  S   UNL     1      10.228   1.057  -2.950  0.00  0.00    -0.077 S 
BRANCH   7   8
ATOM      8  C   UNL     1      10.657   2.800  -2.720  0.00  0.00    +0.173 C 
BRANCH   8  10
ATOM      9  N   UNL     1      12.314   4.407  -3.610  0.00  0.00    -0.285 N 
ATOM     10  C   UNL     1      11.819   3.153  -3.613  0.00  0.00    +0.227 C 
ATOM     11  O   UNL     1      12.308   2.310  -4.334  0.00  0.00    -0.275 OA
ATOM     12  H   UNL     1      11.874   5.101  -3.095  0.00  0.00    +0.155 HD
BRANCH   9  19
ATOM     13  C   UNL     1      12.710   7.098  -4.445  0.00  0.00    +0.045 C 
ATOM     14  C   UNL     1      13.695   6.008  -4.777  0.00  0.00    -0.029 A 
ATOM     15  C   UNL     1      14.831   6.301  -5.507  0.00  0.00    +0.007 A 
ATOM     16  C   UNL     1      15.735   5.301  -5.813  0.00  0.00    +0.033 A 
ATOM     17  C   UNL     1      15.507   4.004  -5.389  0.00  0.00    +0.128 A 
ATOM     18  C   UNL     1      14.376   3.706  -4.655  0.00  0.00    +0.056 A 
ATOM     19  C   UNL     1      13.463   4.707  -4.350  0.00  0.00    +0.038 A 
BRANCH  17  20
ATOM     20  N   UNL     1      16.478   2.937  -5.718  0.00  0.00    +0.056 N 
ATOM     21  O   UNL     1      17.478   3.200  -6.361  0.00  0.00    -0.126 OA
ATOM     22  O   UNL     1      16.277   1.795  -5.345  0.00  0.00    -0.126 OA
ENDBRANCH  17  20
ENDBRANCH   9  19
ENDBRANCH   8  10
ENDBRANCH   7   8
ENDBRANCH   1   7
BRANCH   4  23
ATOM     23  CA  UNL     1       6.168  -0.717  -0.016  0.00  0.00    +0.167 C 
BRANCH  23  24
ATOM     24  N   UNL     1       4.886  -0.007   0.010  0.00  0.00    -0.299 N 
ATOM     25  C   UNL     1       3.732  -0.701   0.026  0.00  0.00    +0.245 C 
ATOM     26  O   UNL     1       3.753  -1.917   0.018  0.00  0.00    -0.270 OA
ATOM     27  H   UNL     1       4.869   0.963   0.016  0.00  0.00    +0.150 HD
BRANCH  25  28
ATOM     28  C   UNL     1       2.438   0.015   0.052  0.00  0.00    +0.037 A 
ATOM     29  C   UNL     1       1.240  -0.701   0.069  0.00  0.00    +0.013 A 
ATOM     30  C   UNL     1       0.037  -0.026   0.094  0.00  0.00    +0.001 A 
ATOM     31  C   UNL     1       0.017   1.357   0.103  0.00  0.00    +0.000 A 
ATOM     32  C   UNL     1       1.201   2.073   0.087  0.00  0.00    +0.001 A 
ATOM     33  C   UNL     1       2.410   1.411   0.062  0.00  0.00    +0.013 A 
ENDBRANCH  25  28
ENDBRANCH  23  24
BRANCH  23  34
ATOM     34  C   UNL     1       6.577  -1.083   1.412  0.00  0.00    +0.186 C 
BRANCH  34  35
ATOM     35  O   UNL     1       6.822   0.111   2.158  0.00  0.00    -0.393 OA
ATOM     36  H   UNL     1       7.087  -0.045   3.075  0.00  0.00    +0.209 HD
ENDBRANCH  34  35
ENDBRANCH  23  34
ENDBRANCH   4  23
TORSDOF 10
