REMARK  Name = ZINC00891877
REMARK  6 active torsions:
REMARK  status: ('A' for Active; 'I' for Inactive)
REMARK    1  A    between atoms: C_4  and  S_7
REMARK    2  A    between atoms: S_7  and  N_10
REMARK    3  A    between atoms: N_10  and  C_11
REMARK    4  A    between atoms: C_23  and  N_48
REMARK    5  A    between atoms: C_25  and  C_26
REMARK    6  A    between atoms: C_25  and  N_48
REMARK                            x       y       z     vdW  Elec       q    Type
REMARK                         _______ _______ _______ _____ _____    ______ ____
ROOT
ATOM      1  C   UNL     1       2.124   4.073   2.514  0.00  0.00    +0.097 C 
ATOM      2  C   UNL     1       1.964   2.735   3.195  0.00  0.00    -0.022 A 
ATOM      3  C   UNL     1       1.919   1.443   2.767  0.00  0.00    +0.006 A 
ATOM      4  C   UNL     1       1.757   0.402   3.683  0.00  0.00    +0.001 A 
ATOM      5  C   UNL     1       1.637   0.622   5.025  0.00  0.00    +0.008 A 
ATOM      6  C   UNL     1       1.679   1.943   5.500  0.00  0.00    -0.017 A 
ATOM      7  C   UNL     1       1.843   2.975   4.559  0.00  0.00    -0.012 A 
ATOM      8  C   UNL     1       1.899   4.318   4.918  0.00  0.00    -0.052 A 
ATOM      9  C   UNL     1       1.786   4.631   6.238  0.00  0.00    +0.003 A 
ATOM     10  C   UNL     1       1.621   3.622   7.191  0.00  0.00    +0.001 A 
ATOM     11  C   UNL     1       1.565   2.301   6.854  0.00  0.00    +0.008 A 
ATOM     12  C   UNL     1       2.080   5.117   3.651  0.00  0.00    -0.016 C 
ENDROOT
BRANCH  12  13
ATOM     13  N   UNL     1       0.938   6.029   3.454  0.00  0.00    +0.390 N 
ATOM     14  H   UNL     1       0.093   5.606   3.855  0.00  0.00    -0.084 HD
ATOM     15  H   UNL     1       0.799   6.185   2.448  0.00  0.00    -0.084 HD
BRANCH  13  16
ATOM     16  C   UNL     1       1.196   7.322   4.114  0.00  0.00    -0.006 C 
BRANCH  16  17
ATOM     17  C   UNL     1       0.015   8.233   3.897  0.00  0.00    +0.088 A 
ATOM     18  C   UNL     1      -1.063   8.328   4.695  0.00  0.00    +0.042 A 
ATOM     19  C   UNL     1      -1.916   9.297   4.119  0.00  0.00    +0.041 A 
ATOM     20  C   UNL     1      -1.311   9.731   2.998  0.00  0.00    +0.195 A 
ATOM     21  O   UNL     1      -0.142   9.083   2.869  0.00  0.00    -0.470 OA
ENDBRANCH  16  17
ENDBRANCH  13  16
ENDBRANCH  12  13
BRANCH   1  22
ATOM     22  N   UNL     1       1.022   4.299   1.575  0.00  0.00    -0.184 NA
ATOM     23  H   UNL     1       0.104   4.237   1.881  0.00  0.00    +0.149 HD
BRANCH  22  24
ATOM     24  S   UNL     1       1.345   4.659  -0.009  0.00  0.00    +0.059 S 
ATOM     25  O   UNL     1       2.300   5.712   0.001  0.00  0.00    -0.153 OA
ATOM     26  O   UNL     1       0.089   4.776  -0.663  0.00  0.00    -0.153 OA
BRANCH  24  30
ATOM     27  C   UNL     1       3.410   1.055  -1.809  0.00  0.00    +0.000 A 
ATOM     28  C   UNL     1       2.030   1.105  -1.754  0.00  0.00    +0.002 A 
ATOM     29  C   UNL     1       1.399   2.206  -1.205  0.00  0.00    +0.028 A 
ATOM     30  C   UNL     1       2.149   3.256  -0.709  0.00  0.00    +0.105 A 
ATOM     31  C   UNL     1       3.529   3.207  -0.765  0.00  0.00    +0.028 A 
ATOM     32  C   UNL     1       4.160   2.106  -1.314  0.00  0.00    +0.002 A 
ENDBRANCH  24  30
ENDBRANCH  22  24
ENDBRANCH   1  22
TORSDOF 6
