REMARK  Name = ZINC15969991
REMARK  6 active torsions:
REMARK  status: ('A' for Active; 'I' for Inactive)
REMARK    1  A    between atoms: C_1  and  C_2
REMARK    2  A    between atoms: C_2  and  C_3
REMARK    3  A    between atoms: C_3  and  C_4
REMARK    4  A    between atoms: C_4  and  N_5
REMARK    5  A    between atoms: C_10  and  C_27
REMARK    6  A    between atoms: C_27  and  C_28
REMARK                            x       y       z     vdW  Elec       q    Type
REMARK                         _______ _______ _______ _____ _____    ______ ____
ROOT
ATOM      1  N   UNL     1       1.471  -2.526   2.420  0.00  0.00    -0.242 N 
ATOM      2  C   UNL     1       2.791  -2.744   2.436  0.00  0.00    +0.227 C 
ATOM      3  O   UNL     1       3.540  -2.576   1.498  0.00  0.00    -0.275 OA
ATOM      4  C   UNL     1       3.204  -3.232   3.806  0.00  0.00    +0.107 C 
ATOM      5  C   UNL     1       3.669  -4.700   3.707  0.00  0.00    +0.072 C 
ATOM      6  N   UNL     1       2.427  -5.505   3.847  0.00  0.00    -0.295 NA
ATOM      7  C   UNL     1       1.641  -4.783   4.864  0.00  0.00    +0.136 C 
ATOM      8  C   UNL     1       1.862  -3.274   4.590  0.00  0.00    +0.122 C 
ATOM      9  C   UNL     1       0.852  -2.782   3.578  0.00  0.00    +0.228 C 
ATOM     10  O   UNL     1      -0.335  -2.644   3.783  0.00  0.00    -0.275 OA
ATOM     11  C   UNL     1       2.068  -5.153   6.256  0.00  0.00    +0.003 A 
ATOM     12  C   UNL     1       3.263  -5.072   6.935  0.00  0.00    +0.008 A 
ATOM     13  C   UNL     1       3.346  -5.505   8.246  0.00  0.00    +0.000 A 
ATOM     14  C   UNL     1       2.226  -6.020   8.873  0.00  0.00    +0.002 A 
ATOM     15  C   UNL     1       1.026  -6.103   8.198  0.00  0.00    +0.023 A 
ATOM     16  C   UNL     1       0.934  -5.670   6.877  0.00  0.00    +0.039 A 
ATOM     17  N   UNL     1      -0.149  -5.652   5.996  0.00  0.00    -0.283 N 
ATOM     18  C   UNL     1       0.183  -5.146   4.792  0.00  0.00    +0.243 C 
ATOM     19  O   UNL     1      -0.551  -5.010   3.836  0.00  0.00    -0.273 OA
ATOM     20  H   UNL     1       1.927  -5.554   2.972  0.00  0.00    +0.124 HD
ATOM     21  H   UNL     1      -1.038  -5.966   6.224  0.00  0.00    +0.155 HD
ENDROOT
BRANCH   1  22
ATOM     22  C   UNL     1       0.763  -2.041   1.233  0.00  0.00    +0.116 C 
BRANCH  22  23
ATOM     23  C   UNL     1       0.742  -0.511   1.242  0.00  0.00    +0.019 C 
BRANCH  23  25
ATOM     24  C   UNL     1      -0.019   1.526   0.010  0.00  0.00    +0.004 C 
ATOM     25  C   UNL     1       0.002  -0.004   0.002  0.00  0.00    -0.002 C 
ENDBRANCH  23  25
ENDBRANCH  22  23
ENDBRANCH   1  22
BRANCH   5  26
ATOM     26  C   UNL     1       4.324  -4.960   2.349  0.00  0.00    +0.056 C 
BRANCH  26  27
ATOM     27  C   UNL     1       4.880  -6.361   2.319  0.00  0.00    -0.021 A 
ATOM     28  C   UNL     1       6.140  -6.726   2.603  0.00  0.00    +0.087 A 
ATOM     29  N   UNL     1       6.275  -8.081   2.469  0.00  0.00    -0.360 N 
ATOM     30  H   UNL     1       7.094  -8.577   2.622  0.00  0.00    +0.165 HD
ATOM     31  C   UNL     1       5.074  -8.635   2.086  0.00  0.00    +0.047 A 
ATOM     32  C   UNL     1       4.146  -7.582   1.981  0.00  0.00    +0.003 A 
ATOM     33  C   UNL     1       2.828  -7.851   1.609  0.00  0.00    +0.010 A 
ATOM     34  C   UNL     1       2.443  -9.137   1.353  0.00  0.00    +0.001 A 
ATOM     35  C   UNL     1       3.354 -10.179   1.458  0.00  0.00    +0.002 A 
ATOM     36  C   UNL     1       4.663  -9.935   1.814  0.00  0.00    +0.026 A 
ENDBRANCH  26  27
ENDBRANCH   5  26
TORSDOF 5
