REMARK  Name = ZINC15113718
REMARK  11 active torsions:
REMARK  status: ('A' for Active; 'I' for Inactive)
REMARK    1  A    between atoms: C_1  and  C_2
REMARK    2  A    between atoms: N_7  and  S_9
REMARK    3  A    between atoms: S_9  and  C_12
REMARK    4  A    between atoms: C_15  and  N_21
REMARK    5  A    between atoms: C_16  and  N_18
REMARK    6  A    between atoms: N_21  and  C_22
REMARK    7  A    between atoms: N_21  and  C_23
REMARK    8  A    between atoms: C_23  and  C_24
REMARK    9  A    between atoms: C_24  and  C_25
REMARK   10  A    between atoms: C_25  and  C_26
REMARK   11  A    between atoms: C_27  and  C_33
REMARK                            x       y       z     vdW  Elec       q    Type
REMARK                         _______ _______ _______ _____ _____    ______ ____
ROOT
ATOM      1  C   UNL     1       2.547  -3.268  -0.217  0.00  0.00    +0.108 A 
ATOM      2  C   UNL     1       2.078  -4.391  -0.874  0.00  0.00    +0.030 A 
ATOM      3  C   UNL     1       2.505  -4.672  -2.157  0.00  0.00    +0.027 A 
ATOM      4  C   UNL     1       3.407  -3.824  -2.788  0.00  0.00    +0.060 A 
ATOM      5  C   UNL     1       3.876  -2.697  -2.125  0.00  0.00    +0.149 A 
ATOM      6  C   UNL     1       3.440  -2.419  -0.844  0.00  0.00    +0.063 A 
ENDROOT
BRANCH   1   7
ATOM      7  S   UNL     1       1.999  -2.914   1.419  0.00  0.00    +0.061 S 
ATOM      8  O   UNL     1       2.998  -2.098   2.015  0.00  0.00    -0.153 OA
ATOM      9  O   UNL     1       1.587  -4.150   1.986  0.00  0.00    -0.153 OA
BRANCH   7  15
ATOM     10  C   UNL     1      -0.019   1.526   0.010  0.00  0.00    +0.009 C 
ATOM     11  C   UNL     1       0.002  -0.004   0.002  0.00  0.00    +0.002 C 
ATOM     12  C   UNL     1      -1.433  -0.534   0.015  0.00  0.00    +0.006 C 
ATOM     13  C   UNL     1      -1.414  -2.064  -0.027  0.00  0.00    +0.017 C 
ATOM     14  C   UNL     1      -0.692  -2.596   1.215  0.00  0.00    +0.109 C 
ATOM     15  N   UNL     1       0.639  -1.977   1.288  0.00  0.00    -0.176 NA
ATOM     16  C   UNL     1       0.742  -0.512   1.244  0.00  0.00    +0.112 C 
ENDBRANCH   7  15
ENDBRANCH   1   7
BRANCH   5  17
ATOM     17  N   UNL     1       4.837  -1.791  -2.793  0.00  0.00    +0.058 N 
ATOM     18  O   UNL     1       5.245  -0.810  -2.216  0.00  0.00    -0.126 OA
ATOM     19  O   UNL     1       5.215  -2.032  -3.916  0.00  0.00    -0.126 OA
ENDBRANCH   5  17
BRANCH   4  20
ATOM     20  N   UNL     1       3.842  -4.105  -4.085  0.00  0.00    -0.331 N 
ATOM     21  C   UNL     1       3.105  -3.575  -5.235  0.00  0.00    +0.129 C 
BRANCH  20  22
ATOM     22  C   UNL     1       5.035  -4.929  -4.296  0.00  0.00    +0.105 C 
BRANCH  22  23
ATOM     23  C   UNL     1       4.628  -6.401  -4.388  0.00  0.00    +0.025 C 
BRANCH  23  24
ATOM     24  C   UNL     1       5.873  -7.261  -4.608  0.00  0.00    +0.058 C 
BRANCH  24  25
ATOM     25  C   UNL     1       5.473  -8.711  -4.699  0.00  0.00    +0.055 A 
ATOM     26  C   UNL     1       5.045  -9.370  -5.834  0.00  0.00    +0.113 A 
ATOM     27  C   UNL     1       4.778 -10.712  -5.462  0.00  0.00    +0.156 A 
ATOM     28  N   UNL     1       5.033 -10.833  -4.184  0.00  0.00    -0.158 NA
ATOM     29  N   UNL     1       5.472  -9.599  -3.691  0.00  0.00    -0.279 N 
ATOM     30  H   UNL     1       5.731  -9.415  -2.775  0.00  0.00    +0.189 HD
ATOM     31  N   UNL     1       4.322 -11.725  -6.309  0.00  0.00    -0.341 N 
ATOM     32  H   UNL     1       4.161 -11.537  -7.246  0.00  0.00    +0.144 HD
ATOM     33  H   UNL     1       4.168 -12.616  -5.959  0.00  0.00    +0.144 HD
BRANCH  26  34
ATOM     34  C   UNL     1       4.899  -8.805  -7.142  0.00  0.00    +0.104 C 
ATOM     35  N   UNL     1       4.783  -8.356  -8.179  0.00  0.00    -0.191 NA
ENDBRANCH  26  34
ENDBRANCH  24  25
ENDBRANCH  23  24
ENDBRANCH  22  23
ENDBRANCH  20  22
ENDBRANCH   4  20
TORSDOF 9
