REMARK  Name = ZINC35004696
REMARK  10 active torsions:
REMARK  status: ('A' for Active; 'I' for Inactive)
REMARK    1  A    between atoms: C_1  and  C_2
REMARK    2  A    between atoms: C_2  and  C_3
REMARK    3  A    between atoms: C_3  and  C_5
REMARK    4  A    between atoms: C_3  and  C_6
REMARK    5  A    between atoms: C_6  and  C_8
REMARK    6  A    between atoms: C_6  and  N_28
REMARK    7  A    between atoms: C_14  and  C_17
REMARK    8  A    between atoms: N_20  and  C_21
REMARK    9  A    between atoms: N_31  and  C_32
REMARK   10  A    between atoms: C_37  and  C_38
REMARK                            x       y       z     vdW  Elec       q    Type
REMARK                         _______ _______ _______ _____ _____    ______ ____
ROOT
ATOM      1  C   UNL     1       3.891   0.245   1.510  0.00  0.00    +0.236 C 
ATOM      2  O   UNL     1       3.894   1.101   2.369  0.00  0.00    -0.274 OA
ATOM      3  N   UNL     1       5.047  -0.342   1.141  0.00  0.00    -0.297 N 
ATOM      4  C   UNL     1       5.079  -1.287   0.015  0.00  0.00    +0.127 C 
ATOM      5  C   UNL     1       5.688  -2.608   0.502  0.00  0.00    +0.128 C 
ATOM      6  N   UNL     1       6.938  -2.314   1.216  0.00  0.00    -0.280 N 
ATOM      7  C   UNL     1       6.906  -1.369   2.341  0.00  0.00    +0.092 C 
ATOM      8  C   UNL     1       6.298  -0.044   1.851  0.00  0.00    +0.130 C 
ATOM      9  C   UNL     1       6.052  -1.946   3.472  0.00  0.00    +0.030 C 
ATOM     10  C   UNL     1       8.094  -2.901   0.847  0.00  0.00    +0.307 C 
ATOM     11  O   UNL     1       9.103  -2.721   1.500  0.00  0.00    -0.252 OA
ATOM     12  N   UNL     1       8.130  -3.688  -0.247  0.00  0.00    -0.269 N 
ATOM     13  H   UNL     1       7.346  -3.768  -0.813  0.00  0.00    +0.156 HD
ENDROOT
BRANCH  12  14
ATOM     14  C   UNL     1       9.299  -4.389  -0.567  0.00  0.00    +0.035 A 
ATOM     15  C   UNL     1      10.081  -4.933   0.443  0.00  0.00    +0.025 A 
ATOM     16  C   UNL     1      11.234  -5.624   0.126  0.00  0.00    +0.022 A 
ATOM     17  C   UNL     1      11.609  -5.775  -1.198  0.00  0.00    +0.041 A 
ATOM     18  C   UNL     1      10.831  -5.234  -2.206  0.00  0.00    +0.022 A 
ATOM     19  C   UNL     1       9.674  -4.547  -1.894  0.00  0.00    +0.025 A 
ATOM     20 CL   UNL     1      13.059  -6.644  -1.594  0.00  0.00    -0.084 Cl
ENDBRANCH  12  14
BRANCH   1  21
ATOM     21  C   UNL     1       2.596  -0.163   0.857  0.00  0.00    +0.163 C 
BRANCH  21  22
ATOM     22  N   UNL     1       1.837   1.034   0.487  0.00  0.00    -0.288 N 
ATOM     23  C   UNL     1       0.910   0.970  -0.489  0.00  0.00    +0.304 C 
ATOM     24  O   UNL     1       0.637  -0.100  -0.999  0.00  0.00    -0.252 OA
ATOM     25  N   UNL     1       0.284   2.091  -0.899  0.00  0.00    -0.269 N 
ATOM     26  H   UNL     1       2.003   1.874   0.944  0.00  0.00    +0.151 HD
ATOM     27  H   UNL     1       0.434   2.928  -0.433  0.00  0.00    +0.156 HD
BRANCH  25  28
ATOM     28  C   UNL     1      -0.582   2.046  -1.997  0.00  0.00    +0.038 A 
ATOM     29  C   UNL     1      -0.482   1.015  -2.922  0.00  0.00    +0.023 A 
ATOM     30  C   UNL     1      -1.338   0.974  -4.004  0.00  0.00    +0.002 A 
ATOM     31  C   UNL     1      -2.295   1.958  -4.168  0.00  0.00    +0.000 A 
ATOM     32  C   UNL     1      -2.398   2.987  -3.250  0.00  0.00    +0.005 A 
ATOM     33  C   UNL     1      -1.548   3.030  -2.162  0.00  0.00    -0.029 A 
ATOM     34  C   UNL     1      -1.664   4.148  -1.158  0.00  0.00    +0.045 C 
ENDBRANCH  25  28
ENDBRANCH  21  22
BRANCH  21  35
ATOM     35  C   UNL     1       1.774  -1.005   1.835  0.00  0.00    +0.015 C 
ATOM     36  C   UNL     1       1.610  -0.243   3.151  0.00  0.00    +0.010 C 
BRANCH  35  38
ATOM     37  C   UNL     1       2.495  -3.172   0.822  0.00  0.00    +0.004 C 
ATOM     38  C   UNL     1       2.495  -2.329   2.098  0.00  0.00    +0.002 C 
ENDBRANCH  35  38
ENDBRANCH  21  35
ENDBRANCH   1  21
TORSDOF 6
