REMARK  Name = ZINC38058871
REMARK  4 active torsions:
REMARK  status: ('A' for Active; 'I' for Inactive)
REMARK    1  A    between atoms: C_6  and  N_7
REMARK    2  A    between atoms: N_7  and  S_8
REMARK    3  A    between atoms: S_8  and  C_11
REMARK    4  A    between atoms: C_14  and  C_16
REMARK                            x       y       z     vdW  Elec       q    Type
REMARK                         _______ _______ _______ _____ _____    ______ ____
ROOT
ATOM      1  S   UNL     1      -1.174  -2.376   0.001  0.00  0.00    +0.098 S 
ATOM      2  O   UNL     1      -0.630  -2.767  -1.252  0.00  0.00    -0.148 OA
ATOM      3  O   UNL     1      -0.605  -2.781   1.239  0.00  0.00    -0.148 OA
ENDROOT
BRANCH   1   4
ATOM      4  C   UNL     1      -2.849  -2.921   0.015  0.00  0.00    +0.148 A 
ATOM      5  C   UNL     1      -3.651  -3.179  -1.050  0.00  0.00    +0.037 A 
ATOM      6  C   UNL     1      -4.939  -3.599  -0.830  0.00  0.00    +0.025 A 
ATOM      7  C   UNL     1      -5.312  -3.726   0.503  0.00  0.00    +0.102 A 
ATOM      8  S   UNL     1      -3.817  -3.248   1.348  0.00  0.00    -0.062 S 
BRANCH   7   9
ATOM      9  C   UNL     1      -6.556  -4.133   1.047  0.00  0.00    +0.393 C 
ATOM     10  O   UNL     1      -7.482  -4.432   0.303  0.00  0.00    -0.240 OA
ATOM     11  O   UNL     1      -6.705  -4.186   2.262  0.00  0.00    -0.240 OA
ENDBRANCH   7   9
ENDBRANCH   1   4
BRANCH   1  12
ATOM     12  N   UNL     1      -1.198  -0.720   0.010  0.00  0.00    -0.097 NA
BRANCH  12  18
ATOM     13  C   UNL     1      -0.017   1.385   0.010  0.00  0.00    +0.028 A 
ATOM     14  C   UNL     1       1.170   2.091   0.002  0.00  0.00    +0.025 A 
ATOM     15  C   UNL     1       2.378   1.418  -0.013  0.00  0.00    +0.076 A 
ATOM     16  C   UNL     1       2.401   0.032  -0.021  0.00  0.00    +0.143 A 
ATOM     17  C   UNL     1       1.215  -0.680  -0.013  0.00  0.00    +0.066 A 
ATOM     18  C   UNL     1       0.002  -0.004   0.002  0.00  0.00    +0.077 A 
ATOM     19  F   UNL     1       3.582  -0.624  -0.037  0.00  0.00    -0.204 F 
ATOM     20 CL   UNL     1       3.868   2.309  -0.024  0.00  0.00    -0.081 Cl
ENDBRANCH  12  18
ENDBRANCH   1  12
TORSDOF 4
