REMARK  Name = ZINC59287145
REMARK  12 active torsions:
REMARK  status: ('A' for Active; 'I' for Inactive)
REMARK    1  A    between atoms: C_1  and  C_2
REMARK    2  A    between atoms: C_5  and  C_8
REMARK    3  A    between atoms: C_8  and  C_36
REMARK    4  A    between atoms: N_11  and  C_15
REMARK    5  A    between atoms: C_15  and  C_16
REMARK    6  A    between atoms: N_18  and  C_19
REMARK    7  A    between atoms: C_19  and  C_21
REMARK    8  A    between atoms: C_19  and  C_32
REMARK    9  A    between atoms: C_21  and  N_22
REMARK   10  A    between atoms: C_32  and  C_33
REMARK   11  A    between atoms: C_32  and  C_34
REMARK   12  A    between atoms: C_32  and  C_35
REMARK                            x       y       z     vdW  Elec       q    Type
REMARK                         _______ _______ _______ _____ _____    ______ ____
ROOT
ATOM      1  C   UNL     1      -3.930  -5.866   1.823  0.00  0.00    +0.231 C 
ATOM      2  O   UNL     1      -3.893  -4.918   1.067  0.00  0.00    -0.274 OA
ATOM      3  N   UNL     1      -4.964  -6.007   2.675  0.00  0.00    -0.312 N 
ATOM      4  H   UNL     1      -4.994  -6.765   3.280  0.00  0.00    +0.149 HD
ENDROOT
BRANCH   1   5
ATOM      5  C   UNL     1      -2.820  -6.885   1.809  0.00  0.00    +0.213 C 
BRANCH   5   9
ATOM      6  C   UNL     1      -0.017  -5.609  -0.268  0.00  0.00    +0.135 C 
ATOM      7  C   UNL     1      -0.757  -5.723   1.050  0.00  0.00    +0.251 C 
ATOM      8  O   UNL     1      -0.453  -5.213   2.107  0.00  0.00    -0.272 OA
ATOM      9  N   UNL     1      -1.824  -6.508   0.803  0.00  0.00    -0.215 N 
ATOM     10  C   UNL     1      -1.860  -6.902  -0.475  0.00  0.00    +0.310 C 
ATOM     11  O   UNL     1      -2.728  -7.617  -0.937  0.00  0.00    -0.252 OA
ATOM     12  N   UNL     1      -0.829  -6.420  -1.192  0.00  0.00    -0.281 N 
ATOM     13  C   UNL     1       1.396  -6.184  -0.147  0.00  0.00    +0.047 C 
ATOM     14  H   UNL     1      -0.654  -6.575  -2.133  0.00  0.00    +0.152 HD
BRANCH   6  19
ATOM     15  C   UNL     1       0.172  -0.106  -2.022  0.00  0.00    +0.044 C 
ATOM     16  C   UNL     1       0.123  -1.542  -1.564  0.00  0.00    -0.050 A 
ATOM     17  C   UNL     1       0.023  -2.560  -2.494  0.00  0.00    +0.004 A 
ATOM     18  C   UNL     1      -0.022  -3.876  -2.074  0.00  0.00    +0.006 A 
ATOM     19  C   UNL     1       0.033  -4.174  -0.725  0.00  0.00    -0.015 A 
ATOM     20  C   UNL     1       0.134  -3.156   0.204  0.00  0.00    +0.006 A 
ATOM     21  C   UNL     1       0.184  -1.839  -0.216  0.00  0.00    +0.004 A 
ENDBRANCH   6  19
ENDBRANCH   5   9
ENDBRANCH   1   5
BRANCH   3  22
ATOM     22  C   UNL     1      -6.043  -5.017   2.689  0.00  0.00    +0.062 C 
BRANCH  22  23
ATOM     23  C   UNL     1      -5.912  -4.136   3.933  0.00  0.00    -0.021 C 
ATOM     24  C   UNL     1      -4.561  -3.418   3.910  0.00  0.00    +0.012 C 
ATOM     25  C   UNL     1      -7.039  -3.101   3.947  0.00  0.00    +0.012 C 
ATOM     26  C   UNL     1      -6.004  -5.008   5.187  0.00  0.00    +0.012 C 
ENDBRANCH  22  23
BRANCH  22  27
ATOM     27  C   UNL     1      -7.394  -5.734   2.712  0.00  0.00    -0.055 C 
BRANCH  27  28
ATOM     28  N   UNL     1      -7.486  -6.643   1.561  0.00  0.00    +0.384 N 
ATOM     29  C   UNL     1      -7.526  -5.858   0.317  0.00  0.00    -0.074 C 
ATOM     30  C   UNL     1      -7.312  -6.806  -0.864  0.00  0.00    +0.017 C 
ATOM     31  C   UNL     1      -8.260  -7.973  -0.759  0.00  0.00    -0.048 A 
ATOM     32  C   UNL     1      -8.476  -8.757  -1.882  0.00  0.00    +0.004 A 
ATOM     33  C   UNL     1      -9.335  -9.836  -1.823  0.00  0.00    +0.000 A 
ATOM     34  C   UNL     1      -9.983 -10.136  -0.640  0.00  0.00    +0.000 A 
ATOM     35  C   UNL     1      -9.771  -9.354   0.478  0.00  0.00    +0.002 A 
ATOM     36  C   UNL     1      -8.909  -8.269   0.421  0.00  0.00    -0.061 A 
ATOM     37  C   UNL     1      -8.713  -7.439   1.662  0.00  0.00    -0.043 C 
ATOM     38  H   UNL     1      -6.685  -7.256   1.550  0.00  0.00    -0.081 HD
ENDBRANCH  27  28
ENDBRANCH  22  27
ENDBRANCH   3  22
TORSDOF 7
