REMARK  Name = ZINC63150573
REMARK  6 active torsions:
REMARK  status: ('A' for Active; 'I' for Inactive)
REMARK    1  A    between atoms: C_1  and  C_2
REMARK    2  A    between atoms: C_2  and  C_4
REMARK    3  A    between atoms: C_2  and  O_19
REMARK    4  A    between atoms: N_6  and  N_7
REMARK    5  A    between atoms: C_8  and  C_10
REMARK    6  A    between atoms: O_19  and  C_20
REMARK                            x       y       z     vdW  Elec       q    Type
REMARK                         _______ _______ _______ _____ _____    ______ ____
ROOT
ATOM      1  C   UNL     1       0.694  -0.732   1.263  0.00  0.00    +0.270 C 
ATOM      2  O   UNL     1      -0.003  -1.187   2.145  0.00  0.00    -0.270 OA
ATOM      3  N   UNL     1       2.031  -0.676   1.422  0.00  0.00    -0.231 N 
ATOM      4  H   UNL     1       2.588  -0.312   0.716  0.00  0.00    +0.173 HD
ENDROOT
BRANCH   3   5
ATOM      5  N   UNL     1       2.616  -1.145   2.606  0.00  0.00    -0.230 N 
ATOM      6  C   UNL     1       3.953  -1.089   2.764  0.00  0.00    +0.258 C 
ATOM      7  O   UNL     1       4.652  -0.633   1.880  0.00  0.00    -0.269 OA
ATOM      8  H   UNL     1       2.058  -1.508   3.311  0.00  0.00    +0.173 HD
BRANCH   6   9
ATOM      9  C   UNL     1       4.565  -1.579   4.004  0.00  0.00    +0.044 C 
ATOM     10  C   UNL     1       5.905  -1.588   4.323  0.00  0.00    +0.008 A 
ATOM     11  C   UNL     1       7.065  -1.164   3.626  0.00  0.00    +0.010 A 
ATOM     12  C   UNL     1       8.284  -1.294   4.191  0.00  0.00    +0.001 A 
ATOM     13  C   UNL     1       8.467  -1.845   5.470  0.00  0.00    +0.002 A 
ATOM     14  C   UNL     1       7.430  -2.280   6.217  0.00  0.00    +0.026 A 
ATOM     15  C   UNL     1       6.065  -2.174   5.676  0.00  0.00    +0.043 A 
ATOM     16  N   UNL     1       4.905  -2.508   6.169  0.00  0.00    -0.380 N 
ATOM     17  C   UNL     1       3.856  -2.174   5.200  0.00  0.00    +0.154 C 
ATOM     18  H   UNL     1       4.759  -2.909   7.040  0.00  0.00    +0.160 HD
ENDBRANCH   6   9
ENDBRANCH   3   5
BRANCH   1  20
ATOM     19  C   UNL     1       0.291   1.280  -0.130  0.00  0.00    +0.062 C 
ATOM     20  C   UNL     1       0.064  -0.228  -0.010  0.00  0.00    +0.257 C 
BRANCH  20  21
ATOM     21  O   UNL     1      -1.339  -0.499   0.012  0.00  0.00    -0.479 OA
BRANCH  21  22
ATOM     22  C   UNL     1      -1.966  -0.607  -1.189  0.00  0.00    +0.136 A 
ATOM     23  C   UNL     1      -1.272  -0.344  -2.361  0.00  0.00    +0.048 A 
ATOM     24  C   UNL     1      -1.910  -0.454  -3.581  0.00  0.00    +0.023 A 
ATOM     25  C   UNL     1      -3.242  -0.827  -3.635  0.00  0.00    +0.042 A 
ATOM     26  C   UNL     1      -3.936  -1.090  -2.468  0.00  0.00    +0.039 A 
ATOM     27  C   UNL     1      -3.299  -0.986  -1.245  0.00  0.00    +0.061 A 
ATOM     28 BR   UNL     1      -4.247  -1.353   0.350  0.00  0.00    -0.046 Br
ATOM     29 CL   UNL     1      -4.042  -0.965  -5.169  0.00  0.00    -0.084 Cl
ENDBRANCH  21  22
ENDBRANCH  20  21
ENDBRANCH   1  20
TORSDOF 5
