REMARK  Name = ZINC15497397
REMARK  4 active torsions:
REMARK  status: ('A' for Active; 'I' for Inactive)
REMARK    1  A    between atoms: C_3  and  S_8
REMARK    2  A    between atoms: S_8  and  N_11
REMARK    3  A    between atoms: C_15  and  C_18
REMARK    4  A    between atoms: N_20  and  N_21
REMARK                            x       y       z     vdW  Elec       q    Type
REMARK                         _______ _______ _______ _____ _____    ______ ____
ROOT
ATOM      1  C   UNL     1      -2.411  -2.374   3.759  0.00  0.00    +0.234 C 
ATOM      2  O   UNL     1      -3.231  -1.489   3.885  0.00  0.00    -0.274 OA
ATOM      3  N   UNL     1      -2.590  -3.553   4.388  0.00  0.00    -0.223 N 
ATOM      4  H   UNL     1      -1.935  -4.261   4.287  0.00  0.00    +0.174 HD
ENDROOT
BRANCH   3   5
ATOM      5  N   UNL     1      -3.724  -3.756   5.186  0.00  0.00    -0.137 N 
ATOM      6  C   UNL     1      -4.783  -4.508   4.822  0.00  0.00    +0.263 C 
ATOM      7  O   UNL     1      -4.930  -5.114   3.781  0.00  0.00    -0.271 OA
ATOM      8  C   UNL     1      -5.747  -4.437   5.983  0.00  0.00    +0.114 C 
ATOM      9  C   UNL     1      -5.981  -5.827   6.565  0.00  0.00    +0.035 C 
ATOM     10  C   UNL     1      -6.937  -5.729   7.757  0.00  0.00    +0.003 C 
ATOM     11  C   UNL     1      -8.264  -5.121   7.297  0.00  0.00    +0.000 C 
ATOM     12  C   UNL     1      -8.016  -3.719   6.738  0.00  0.00    +0.003 C 
ATOM     13  C   UNL     1      -7.064  -3.807   5.543  0.00  0.00    +0.035 C 
ATOM     14  N   UNL     1      -5.066  -3.577   6.960  0.00  0.00    -0.284 N 
ATOM     15  C   UNL     1      -3.888  -3.232   6.407  0.00  0.00    +0.326 C 
ATOM     16  O   UNL     1      -3.067  -2.522   6.953  0.00  0.00    -0.251 OA
ATOM     17  H   UNL     1      -5.398  -3.313   7.832  0.00  0.00    +0.151 HD
ENDBRANCH   3   5
BRANCH   1  22
ATOM     18  N   UNL     1       0.024  -0.502   1.581  0.00  0.00    -0.176 NA
ATOM     19  C   UNL     1       1.298  -0.716   2.281  0.00  0.00    +0.109 C 
ATOM     20  C   UNL     1       1.308  -2.123   2.877  0.00  0.00    +0.018 C 
ATOM     21  C   UNL     1       0.069  -2.312   3.755  0.00  0.00    +0.015 C 
ATOM     22  C   UNL     1      -1.192  -2.156   2.901  0.00  0.00    +0.092 C 
ATOM     23  C   UNL     1      -1.230  -0.745   2.307  0.00  0.00    +0.122 C 
BRANCH  18  24
ATOM     24  S   UNL     1       0.002  -0.004   0.002  0.00  0.00    +0.061 S 
ATOM     25  O   UNL     1      -1.243  -0.424  -0.539  0.00  0.00    -0.153 OA
ATOM     26  O   UNL     1       1.248  -0.390  -0.563  0.00  0.00    -0.153 OA
BRANCH  24  29
ATOM     27  C   UNL     1       1.149   3.846   0.011  0.00  0.00    +0.040 A 
ATOM     28  C   UNL     1       1.166   2.465   0.004  0.00  0.00    +0.031 A 
ATOM     29  C   UNL     1      -0.022   1.758   0.012  0.00  0.00    +0.106 A 
ATOM     30  C   UNL     1      -1.229   2.432   0.021  0.00  0.00    +0.031 A 
ATOM     31  C   UNL     1      -1.248   3.814   0.035  0.00  0.00    +0.040 A 
ATOM     32  C   UNL     1      -0.059   4.523   0.026  0.00  0.00    +0.124 A 
ATOM     33  F   UNL     1      -0.078   5.874   0.033  0.00  0.00    -0.205 F 
ENDBRANCH  24  29
ENDBRANCH  18  24
ENDBRANCH   1  22
TORSDOF 4
