REMARK  Name = ZINC09766904
REMARK  13 active torsions:
REMARK  status: ('A' for Active; 'I' for Inactive)
REMARK    1  A    between atoms: C_1  and  C_2
REMARK    2  A    between atoms: C_2  and  N_3
REMARK    3  A    between atoms: N_3  and  C_4
REMARK    4  A    between atoms: N_3  and  S_6
REMARK    5  A    between atoms: C_4  and  C_5
REMARK    6  A    between atoms: S_6  and  C_9
REMARK    7  A    between atoms: C_12  and  C_15
REMARK    8  A    between atoms: C_15  and  N_17
REMARK    9  A    between atoms: N_19  and  C_31
REMARK   10  A    between atoms: C_31  and  C_32
REMARK   11  A    between atoms: C_32  and  O_34
REMARK   12  A    between atoms: O_34  and  C_35
REMARK   13  A    between atoms: C_35  and  C_36
REMARK                            x       y       z     vdW  Elec       q    Type
REMARK                         _______ _______ _______ _____ _____    ______ ____
ROOT
ATOM      1  N   UNL     1       6.168   5.925   0.617  0.00  0.00    -0.152 NA
ATOM      2  C   UNL     1       5.066   5.342   0.153  0.00  0.00    +0.167 A 
ATOM      3  N   UNL     1       3.874   5.916  -0.161  0.00  0.00    -0.310 N 
ATOM      4  C   UNL     1       2.833   5.139  -0.635  0.00  0.00    +0.059 A 
ATOM      5  C   UNL     1       1.535   5.564  -1.008  0.00  0.00    +0.027 A 
ATOM      6  C   UNL     1       0.602   4.695  -1.461  0.00  0.00    +0.010 A 
ATOM      7  C   UNL     1       0.887   3.323  -1.580  0.00  0.00    -0.017 A 
ATOM      8  C   UNL     1      -0.070   2.409  -2.048  0.00  0.00    +0.008 A 
ATOM      9  C   UNL     1       0.252   1.089  -2.151  0.00  0.00    +0.001 A 
ATOM     10  C   UNL     1       1.516   0.631  -1.788  0.00  0.00    +0.001 A 
ATOM     11  C   UNL     1       2.469   1.490  -1.330  0.00  0.00    +0.009 A 
ATOM     12  C   UNL     1       2.177   2.858  -1.215  0.00  0.00    -0.002 A 
ATOM     13  C   UNL     1       3.119   3.781  -0.750  0.00  0.00    +0.047 A 
ATOM     14  S   UNL     1       4.801   3.665  -0.199  0.00  0.00    -0.051 S 
ENDROOT
BRANCH   1  15
ATOM     15  C   UNL     1       7.256   5.192   0.870  0.00  0.00    +0.269 C 
ATOM     16  O   UNL     1       7.239   3.989   0.676  0.00  0.00    -0.268 OA
BRANCH  15  20
ATOM     17  C   UNL     1      10.776   7.056   2.352  0.00  0.00    +0.106 A 
ATOM     18  C   UNL     1      10.760   5.690   2.133  0.00  0.00    +0.029 A 
ATOM     19  C   UNL     1       9.620   5.079   1.652  0.00  0.00    +0.015 A 
ATOM     20  C   UNL     1       8.482   5.842   1.387  0.00  0.00    +0.039 A 
ATOM     21  C   UNL     1       8.507   7.219   1.604  0.00  0.00    +0.015 A 
ATOM     22  C   UNL     1       9.651   7.818   2.091  0.00  0.00    +0.029 A 
BRANCH  17  23
ATOM     23  S   UNL     1      12.235   7.829   2.966  0.00  0.00    +0.061 S 
ATOM     24  O   UNL     1      11.822   9.030   3.603  0.00  0.00    -0.153 OA
ATOM     25  O   UNL     1      12.973   6.822   3.646  0.00  0.00    -0.153 OA
BRANCH  23  26
ATOM     26  N   UNL     1      13.142   8.276   1.655  0.00  0.00    -0.177 NA
BRANCH  26  28
ATOM     27  C   UNL     1      13.983  10.572   1.634  0.00  0.00    +0.022 C 
ATOM     28  C   UNL     1      12.957   9.598   1.052  0.00  0.00    +0.106 C 
ENDBRANCH  26  28
BRANCH  26  29
ATOM     29  C   UNL     1      14.129   7.348   1.096  0.00  0.00    +0.106 C 
ATOM     30  C   UNL     1      13.501   6.571  -0.062  0.00  0.00    +0.022 C 
ENDBRANCH  26  29
ENDBRANCH  23  26
ENDBRANCH  17  23
ENDBRANCH  15  20
ENDBRANCH   1  15
BRANCH   3  31
ATOM     31  C   UNL     1       3.693   7.360   0.004  0.00  0.00    +0.244 C 
BRANCH  31  32
ATOM     32  C   UNL     1       4.345   7.806   1.287  0.00  0.00    +0.327 C 
ATOM     33  O   UNL     1       4.758   6.984   2.072  0.00  0.00    -0.249 OA
BRANCH  32  34
ATOM     34  O   UNL     1       4.468   9.114   1.559  0.00  0.00    -0.464 OA
BRANCH  34  35
ATOM     35  C   UNL     1       5.106   9.470   2.814  0.00  0.00    +0.229 C 
ATOM     36  C   UNL     1       5.155  10.993   2.947  0.00  0.00    +0.048 C 
ENDBRANCH  34  35
ENDBRANCH  32  34
ENDBRANCH  31  32
ENDBRANCH   3  31
TORSDOF 10
