REMARK  Name = ZINC39634266
REMARK  5 active torsions:
REMARK  status: ('A' for Active; 'I' for Inactive)
REMARK    1  A    between atoms: C_1  and  C_2
REMARK    2  A    between atoms: C_5  and  C_8
REMARK    3  A    between atoms: C_8  and  N_9
REMARK    4  A    between atoms: C_10  and  C_12
REMARK    5  A    between atoms: C_23  and  C_25
REMARK                            x       y       z     vdW  Elec       q    Type
REMARK                         _______ _______ _______ _____ _____    ______ ____
ROOT
ATOM      1  C   UNL     1       3.830  -6.510  -0.072  0.00  0.00    +0.100 C 
ATOM      2  C   UNL     1       4.259  -5.913   1.288  0.00  0.00    +0.121 C 
ATOM      3  N   UNL     1       4.085  -7.022   2.255  0.00  0.00    -0.296 N 
ATOM      4  C   UNL     1       4.544  -8.226   1.522  0.00  0.00    +0.115 C 
ATOM      5  C   UNL     1       4.021  -8.028   0.085  0.00  0.00    -0.004 C 
ATOM      6  C   UNL     1       2.690  -8.750  -0.095  0.00  0.00    -0.010 C 
ATOM      7  C   UNL     1       2.916 -10.261   0.009  0.00  0.00    -0.082 C 
ATOM      8  N   UNL     1       3.870 -10.687  -1.022  0.00  0.00    +0.379 N 
ATOM      9  C   UNL     1       5.176 -10.058  -0.787  0.00  0.00    -0.082 C 
ATOM     10  C   UNL     1       5.045  -8.539  -0.924  0.00  0.00    -0.010 C 
ATOM     11  C   UNL     1       3.615  -6.952   3.517  0.00  0.00    +0.247 C 
ATOM     12  O   UNL     1       3.158  -5.908   3.937  0.00  0.00    -0.270 OA
ATOM     13  H   UNL     1       3.971 -11.690  -0.991  0.00  0.00    -0.086 HD
ATOM     14  H   UNL     1       3.526 -10.414  -1.931  0.00  0.00    -0.086 HD
ENDROOT
BRANCH  11  15
ATOM     15  C   UNL     1       3.657  -8.145   4.388  0.00  0.00    +0.040 A 
ATOM     16  C   UNL     1       4.539  -9.189   4.105  0.00  0.00    +0.033 A 
ATOM     17  C   UNL     1       4.574 -10.301   4.923  0.00  0.00    +0.043 A 
ATOM     18  C   UNL     1       3.736 -10.382   6.022  0.00  0.00    +0.040 A 
ATOM     19  C   UNL     1       2.858  -9.349   6.308  0.00  0.00    +0.043 A 
ATOM     20  C   UNL     1       2.819  -8.230   5.501  0.00  0.00    +0.033 A 
ATOM     21 CL   UNL     1       1.811  -9.460   7.688  0.00  0.00    -0.083 Cl
ATOM     22 CL   UNL     1       5.669 -11.601   4.572  0.00  0.00    -0.083 Cl
ENDBRANCH  11  15
BRANCH   1  24
ATOM     23  N   UNL     1       1.931  -6.177  -1.621  0.00  0.00    -0.311 N 
ATOM     24  C   UNL     1       2.384  -6.190  -0.352  0.00  0.00    +0.218 C 
ATOM     25  O   UNL     1       1.628  -5.944   0.564  0.00  0.00    -0.275 OA
ATOM     26  H   UNL     1       2.535  -6.373  -2.354  0.00  0.00    +0.149 HD
BRANCH  23  27
ATOM     27  C   UNL     1       0.525  -5.866  -1.894  0.00  0.00    +0.139 C 
BRANCH  27  32
ATOM     28  C   UNL     1      -0.423  -6.062  -7.591  0.00  0.00    +0.044 C 
ATOM     29  C   UNL     1      -0.176  -6.011  -6.105  0.00  0.00    -0.050 A 
ATOM     30  C   UNL     1      -0.335  -7.150  -5.338  0.00  0.00    +0.003 A 
ATOM     31  C   UNL     1      -0.108  -7.103  -3.976  0.00  0.00    +0.005 A 
ATOM     32  C   UNL     1       0.279  -5.917  -3.380  0.00  0.00    -0.030 A 
ATOM     33  C   UNL     1       0.439  -4.778  -4.147  0.00  0.00    +0.005 A 
ATOM     34  C   UNL     1       0.216  -4.826  -5.510  0.00  0.00    +0.003 A 
ENDBRANCH  27  32
ENDBRANCH  23  27
ENDBRANCH   1  24
TORSDOF 4
