REMARK  Name = ZINC36587449
REMARK  14 active torsions:
REMARK  status: ('A' for Active; 'I' for Inactive)
REMARK    1  A    between atoms: C_1  and  C_2
REMARK    2  A    between atoms: C_2  and  C_3
REMARK    3  A    between atoms: C_2  and  C_4
REMARK    4  A    between atoms: C_2  and  N_5
REMARK    5  A    between atoms: N_5  and  C_6
REMARK    6  A    between atoms: C_6  and  C_8
REMARK    7  A    between atoms: C_6  and  C_18
REMARK    8  A    between atoms: C_10  and  N_15
REMARK    9  A    between atoms: N_20  and  C_21
REMARK   10  A    between atoms: C_27  and  C_29
REMARK   11  A    between atoms: C_29  and  C_30
REMARK   12  A    between atoms: C_30  and  C_31
REMARK   13  A    between atoms: C_34  and  O_37
REMARK   14  A    between atoms: O_37  and  C_38
REMARK                            x       y       z     vdW  Elec       q    Type
REMARK                         _______ _______ _______ _____ _____    ______ ____
ROOT
ATOM      1  C   UNL     1       2.138   0.419  -1.506  0.00  0.00    +0.194 C 
ENDROOT
BRANCH   1   2
ATOM      2  C   UNL     1       3.152  -0.601  -1.957  0.00  0.00    +0.002 A 
ATOM      3  C   UNL     1       2.779  -1.609  -2.826  0.00  0.00    +0.040 A 
ATOM      4  C   UNL     1       3.709  -2.545  -3.239  0.00  0.00    +0.127 A 
ATOM      5  C   UNL     1       5.012  -2.473  -2.783  0.00  0.00    +0.034 A 
ATOM      6  C   UNL     1       5.386  -1.465  -1.915  0.00  0.00    +0.022 A 
ATOM      7  C   UNL     1       4.457  -0.525  -1.506  0.00  0.00    +0.047 A 
ATOM      8 CL   UNL     1       4.928   0.746  -0.420  0.00  0.00    -0.083 Cl
BRANCH   4   9
ATOM      9  N   UNL     1       3.309  -3.624  -4.169  0.00  0.00    +0.056 N 
ATOM     10  O   UNL     1       2.169  -3.688  -4.567  0.00  0.00    -0.126 OA
ATOM     11  O   UNL     1       4.122  -4.443  -4.530  0.00  0.00    -0.126 OA
ENDBRANCH   4   9
ENDBRANCH   1   2
BRANCH   1  12
ATOM     12  C   UNL     1       2.261   1.659  -2.355  0.00  0.00    +0.238 C 
ATOM     13  O   UNL     1       1.292   2.090  -2.943  0.00  0.00    -0.273 OA
ATOM     14  N   UNL     1       3.448   2.288  -2.460  0.00  0.00    -0.311 N 
ATOM     15  H   UNL     1       4.223   1.943  -1.990  0.00  0.00    +0.149 HD
BRANCH  14  16
ATOM     16  C   UNL     1       3.567   3.493  -3.285  0.00  0.00    +0.073 C 
ATOM     17  C   UNL     1       3.817   3.092  -4.740  0.00  0.00    +0.022 C 
ATOM     18  C   UNL     1       3.942   4.350  -5.602  0.00  0.00    +0.002 C 
ATOM     19  C   UNL     1       5.111   5.199  -5.099  0.00  0.00    +0.000 C 
ATOM     20  C   UNL     1       4.862   5.599  -3.643  0.00  0.00    +0.002 C 
ATOM     21  C   UNL     1       4.737   4.341  -2.782  0.00  0.00    +0.022 C 
ENDBRANCH  14  16
ENDBRANCH   1  12
BRANCH   1  22
ATOM     22  N   UNL     1       0.790  -0.137  -1.647  0.00  0.00    -0.281 N 
ATOM     23  C   UNL     1       0.276  -0.355  -2.873  0.00  0.00    +0.217 C 
ATOM     24  O   UNL     1       0.957  -0.167  -3.859  0.00  0.00    -0.276 OA
BRANCH  22  26
ATOM     25  C   UNL     1       0.713   0.084   0.788  0.00  0.00    +0.031 C 
ATOM     26  C   UNL     1       0.002  -0.457  -0.454  0.00  0.00    +0.030 C 
ATOM     27  C   UNL     1      -0.149  -1.975  -0.335  0.00  0.00    +0.031 C 
ATOM     28  C   UNL     1      -1.382   0.186  -0.570  0.00  0.00    +0.031 C 
ENDBRANCH  22  26
BRANCH  23  29
ATOM     29  C   UNL     1      -1.147  -0.831  -3.020  0.00  0.00    +0.100 C 
BRANCH  29  30
ATOM     30  C   UNL     1      -1.397  -1.252  -4.470  0.00  0.00    +0.044 C 
BRANCH  30  31
ATOM     31  C   UNL     1      -2.819  -1.728  -4.616  0.00  0.00    -0.047 A 
ATOM     32  C   UNL     1      -3.124  -3.061  -4.414  0.00  0.00    +0.007 A 
ATOM     33  C   UNL     1      -4.427  -3.501  -4.548  0.00  0.00    +0.046 A 
ATOM     34  C   UNL     1      -5.430  -2.603  -4.886  0.00  0.00    +0.120 A 
ATOM     35  C   UNL     1      -5.120  -1.265  -5.088  0.00  0.00    +0.046 A 
ATOM     36  C   UNL     1      -3.817  -0.830  -4.947  0.00  0.00    +0.007 A 
BRANCH  34  37
ATOM     37  O   UNL     1      -6.712  -3.033  -5.019  0.00  0.00    -0.495 OA
ATOM     38  C   UNL     1      -7.692  -2.053  -5.368  0.00  0.00    +0.277 C 
ENDBRANCH  34  37
ENDBRANCH  30  31
ENDBRANCH  29  30
ENDBRANCH  23  29
ENDBRANCH   1  22
TORSDOF 10
