REMARK  Name = ZINC15250611
REMARK  6 active torsions:
REMARK  status: ('A' for Active; 'I' for Inactive)
REMARK    1  A    between atoms: C_1  and  C_2
REMARK    2  A    between atoms: C_4  and  C_13
REMARK    3  A    between atoms: C_6  and  C_12
REMARK    4  A    between atoms: C_7  and  O_8
REMARK    5  A    between atoms: O_8  and  C_9
REMARK    6  A    between atoms: N_24  and  C_25
REMARK                            x       y       z     vdW  Elec       q    Type
REMARK                         _______ _______ _______ _____ _____    ______ ____
ROOT
ATOM      1  C   UNL     1       3.573   3.438  -0.667  0.00  0.00    +0.192 C 
ATOM      2  N   UNL     1       3.583   2.115  -0.033  0.00  0.00    -0.321 N 
ATOM      3  C   UNL     1       2.405   1.377  -0.018  0.00  0.00    +0.041 A 
ATOM      4  C   UNL     1       2.406  -0.007  -0.024  0.00  0.00    +0.024 A 
ATOM      5  C   UNL     1       1.206  -0.692  -0.014  0.00  0.00    +0.002 A 
ATOM      6  C   UNL     1       0.002  -0.004   0.002  0.00  0.00    +0.001 A 
ATOM      7  C   UNL     1      -0.017   1.375   0.010  0.00  0.00    +0.015 A 
ATOM      8  C   UNL     1       1.186   2.078   0.002  0.00  0.00    +0.058 A 
ATOM      9  C   UNL     1       1.224   3.551   0.018  0.00  0.00    +0.250 C 
ATOM     10  O   UNL     1       0.223   4.189   0.285  0.00  0.00    -0.270 OA
ATOM     11  N   UNL     1       2.381   4.184  -0.266  0.00  0.00    -0.278 N 
ATOM     12  C   UNL     1       2.444   5.645  -0.171  0.00  0.00    +0.134 C 
ATOM     13  H   UNL     1       4.394   1.762   0.366  0.00  0.00    +0.148 HD
ENDROOT
BRANCH   1  17
ATOM     14  C   UNL     1       4.847   0.819  -4.735  0.00  0.00    +0.047 C 
ATOM     15  C   UNL     1       4.184   2.020  -4.111  0.00  0.00    -0.008 A 
ATOM     16  C   UNL     1       4.181   2.172  -2.738  0.00  0.00    +0.014 A 
ATOM     17  C   UNL     1       3.575   3.274  -2.165  0.00  0.00    -0.009 A 
ATOM     18  C   UNL     1       2.964   4.223  -2.964  0.00  0.00    +0.014 A 
ATOM     19  C   UNL     1       2.968   4.078  -4.338  0.00  0.00    -0.008 A 
ATOM     20  C   UNL     1       3.577   2.973  -4.915  0.00  0.00    +0.133 A 
ATOM     21  C   UNL     1       2.308   5.116  -5.208  0.00  0.00    +0.047 C 
BRANCH  20  22
ATOM     22  O   UNL     1       3.578   2.825  -6.266  0.00  0.00    -0.434 OA
BRANCH  22  23
ATOM     23  C   UNL     1       2.480   2.114  -6.842  0.00  0.00    +0.541 C 
ATOM     24  F   UNL     1       2.442   0.816  -6.321  0.00  0.00    -0.166 F 
ATOM     25  F   UNL     1       1.285   2.774  -6.537  0.00  0.00    -0.166 F 
ENDBRANCH  22  23
ENDBRANCH  20  22
ENDBRANCH   1  17
TORSDOF 3
