REMARK  Name = ZINC01425499
REMARK  8 active torsions:
REMARK  status: ('A' for Active; 'I' for Inactive)
REMARK    1  A    between atoms: C_1  and  N_2
REMARK    2  A    between atoms: C_5  and  C_10
REMARK    3  A    between atoms: C_13  and  O_16
REMARK    4  A    between atoms: N_19  and  C_21
REMARK    5  A    between atoms: C_24  and  N_27
REMARK    6  A    between atoms: C_33  and  C_40
REMARK    7  A    between atoms: N_38  and  C_39
REMARK    8  A    between atoms: C_43  and  O_46
REMARK                            x       y       z     vdW  Elec       q    Type
REMARK                         _______ _______ _______ _____ _____    ______ ____
ROOT
ATOM      1  C   UNL     1      -4.835  -1.482   0.017  0.00  0.00    +0.037 A 
ATOM      2  C   UNL     1      -5.590  -0.317   0.021  0.00  0.00    +0.025 A 
ATOM      3  C   UNL     1      -6.969  -0.387   0.027  0.00  0.00    +0.025 A 
ATOM      4  C   UNL     1      -7.601  -1.624   0.028  0.00  0.00    +0.037 A 
ATOM      5  C   UNL     1      -6.846  -2.789   0.023  0.00  0.00    +0.025 A 
ATOM      6  C   UNL     1      -5.468  -2.719   0.013  0.00  0.00    +0.025 A 
ENDROOT
BRANCH   1  17
ATOM      7  C   UNL     1      -0.018   1.461   0.010  0.00  0.00    +0.139 C 
ATOM      8  N   UNL     1       0.002  -0.004   0.002  0.00  0.00    -0.260 N 
ATOM      9  C   UNL     1      -1.193  -0.666   0.004  0.00  0.00    +0.042 C 
ATOM     10  C   UNL     1      -1.245  -2.014  -0.003  0.00  0.00    +0.058 C 
ATOM     11  C   UNL     1       0.068  -2.770  -0.013  0.00  0.00    +0.142 C 
ATOM     12  N   UNL     1       1.301  -1.964  -0.014  0.00  0.00    -0.288 N 
ATOM     13  C   UNL     1       1.191  -0.621  -0.013  0.00  0.00    +0.307 C 
ATOM     14  O   UNL     1       2.203   0.052  -0.019  0.00  0.00    -0.252 OA
ATOM     15  C   UNL     1      -2.585  -2.452   0.002  0.00  0.00    +0.251 C 
ATOM     16  O   UNL     1      -2.926  -3.621  -0.003  0.00  0.00    -0.270 OA
ATOM     17  N   UNL     1      -3.437  -1.411   0.011  0.00  0.00    -0.262 N 
ATOM     18  C   UNL     1      -2.626  -0.184   0.014  0.00  0.00    +0.165 C 
ATOM     19  H   UNL     1       2.172  -2.391  -0.021  0.00  0.00    +0.151 HD
BRANCH  11  20
ATOM     20  C   UNL     1       0.099  -3.663   1.200  0.00  0.00    -0.022 A 
ATOM     21  C   UNL     1       0.423  -3.137   2.437  0.00  0.00    +0.009 A 
ATOM     22  C   UNL     1       0.452  -3.955   3.550  0.00  0.00    +0.046 A 
ATOM     23  C   UNL     1       0.156  -5.304   3.426  0.00  0.00    +0.117 A 
ATOM     24  C   UNL     1      -0.169  -5.830   2.184  0.00  0.00    +0.046 A 
ATOM     25  C   UNL     1      -0.202  -5.007   1.075  0.00  0.00    +0.009 A 
BRANCH  23  26
ATOM     26  O   UNL     1       0.185  -6.111   4.520  0.00  0.00    -0.507 OA
ATOM     27  H   UNL     1      -0.660  -6.171   4.987  0.00  0.00    +0.292 HD
ENDBRANCH  23  26
ENDBRANCH  11  20
ENDBRANCH   1  17
BRANCH   4  28
ATOM     28  N   UNL     1      -8.999  -1.695   0.034  0.00  0.00    -0.262 N 
ATOM     29  C   UNL     1      -9.810  -2.922   0.042  0.00  0.00    +0.165 C 
ATOM     30  C   UNL     1     -11.244  -2.440   0.047  0.00  0.00    +0.042 C 
ATOM     31  C   UNL     1     -11.191  -1.093   0.042  0.00  0.00    +0.058 C 
ATOM     32  C   UNL     1      -9.851  -0.654   0.040  0.00  0.00    +0.251 C 
ATOM     33  O   UNL     1      -9.510   0.515   0.042  0.00  0.00    -0.270 OA
ATOM     34  C   UNL     1     -12.504  -0.337   0.045  0.00  0.00    +0.142 C 
ATOM     35  N   UNL     1     -13.737  -1.142   0.054  0.00  0.00    -0.288 N 
ATOM     36  C   UNL     1     -13.627  -2.485   0.058  0.00  0.00    +0.307 C 
ATOM     37  O   UNL     1     -14.639  -3.158   0.065  0.00  0.00    -0.252 OA
ATOM     38  N   UNL     1     -12.438  -3.102   0.055  0.00  0.00    -0.260 N 
ATOM     39  C   UNL     1     -12.419  -4.567   0.060  0.00  0.00    +0.139 C 
ATOM     40  H   UNL     1     -14.609  -0.715   0.057  0.00  0.00    +0.151 HD
BRANCH  34  41
ATOM     41  C   UNL     1     -12.524   0.555   1.260  0.00  0.00    -0.022 A 
ATOM     42  C   UNL     1     -12.836   0.026   2.499  0.00  0.00    +0.009 A 
ATOM     43  C   UNL     1     -12.856   0.842   3.614  0.00  0.00    +0.046 A 
ATOM     44  C   UNL     1     -12.561   2.192   3.490  0.00  0.00    +0.117 A 
ATOM     45  C   UNL     1     -12.248   2.719   2.246  0.00  0.00    +0.046 A 
ATOM     46  C   UNL     1     -12.225   1.899   1.135  0.00  0.00    +0.009 A 
BRANCH  44  47
ATOM     47  O   UNL     1     -12.580   2.996   4.586  0.00  0.00    -0.507 OA
ATOM     48  H   UNL     1     -11.731   3.055   5.045  0.00  0.00    +0.292 HD
ENDBRANCH  44  47
ENDBRANCH  34  41
ENDBRANCH   4  28
TORSDOF 6
