REMARK  Name = ZINC36066249
REMARK  14 active torsions:
REMARK  status: ('A' for Active; 'I' for Inactive)
REMARK    1  A    between atoms: C_1  and  C_2
REMARK    2  A    between atoms: C_2  and  N_3
REMARK    3  A    between atoms: N_3  and  C_4
REMARK    4  A    between atoms: N_3  and  C_6
REMARK    5  A    between atoms: C_4  and  C_5
REMARK    6  A    between atoms: C_6  and  C_7
REMARK    7  A    between atoms: C_7  and  N_8
REMARK    8  A    between atoms: C_9  and  C_33
REMARK    9  A    between atoms: C_17  and  C_23
REMARK   10  A    between atoms: N_25  and  C_26
REMARK   11  A    between atoms: C_30  and  C_32
REMARK   12  A    between atoms: N_35  and  C_36
REMARK   13  A    between atoms: C_41  and  C_46
REMARK   14  A    between atoms: C_43  and  C_45
REMARK                            x       y       z     vdW  Elec       q    Type
REMARK                         _______ _______ _______ _____ _____    ______ ____
ROOT
ATOM      1  N   UNL     1      -3.189  -2.805  -1.041  0.00  0.00    -0.288 N 
ATOM      2  C   UNL     1      -3.087  -3.846  -2.111  0.00  0.00    +0.198 C 
ATOM      3  C   UNL     1      -3.497  -5.085  -1.376  0.00  0.00    +0.127 C 
ATOM      4  C   UNL     1      -4.980  -5.115  -1.054  0.00  0.00    +0.009 C 
ATOM      5  C   UNL     1      -5.187  -6.260  -0.420  0.00  0.00    +0.004 C 
ATOM      6  C   UNL     1      -3.800  -6.905  -0.303  0.00  0.00    +0.155 C 
ATOM      7  O   UNL     1      -3.154  -6.438  -1.560  0.00  0.00    -0.358 OA
ATOM      8  C   UNL     1      -3.110  -6.011   0.799  0.00  0.00    +0.123 C 
ATOM      9  C   UNL     1      -2.695  -4.804  -0.042  0.00  0.00    +0.128 C 
ATOM     10  C   UNL     1      -3.055  -3.395   0.192  0.00  0.00    +0.223 C 
ATOM     11  O   UNL     1      -3.206  -2.858   1.270  0.00  0.00    -0.275 OA
ENDROOT
BRANCH   8  12
ATOM     12  C   UNL     1      -4.090  -5.631   1.879  0.00  0.00    +0.224 C 
ATOM     13  O   UNL     1      -4.351  -4.463   2.077  0.00  0.00    -0.275 OA
ATOM     14  N   UNL     1      -4.677  -6.588   2.624  0.00  0.00    -0.285 N 
ATOM     15  H   UNL     1      -4.421  -7.517   2.510  0.00  0.00    +0.155 HD
BRANCH  14  16
ATOM     16  C   UNL     1      -5.656  -6.243   3.563  0.00  0.00    +0.034 A 
ATOM     17  C   UNL     1      -6.733  -7.090   3.789  0.00  0.00    +0.023 A 
ATOM     18  C   UNL     1      -7.697  -6.746   4.717  0.00  0.00    +0.002 A 
ATOM     19  C   UNL     1      -7.591  -5.559   5.419  0.00  0.00    +0.003 A 
ATOM     20  C   UNL     1      -6.520  -4.713   5.195  0.00  0.00    -0.049 A 
ATOM     21  C   UNL     1      -5.549  -5.055   4.274  0.00  0.00    +0.026 A 
ATOM     22  C   UNL     1      -6.409  -3.421   5.962  0.00  0.00    +0.044 C 
ENDBRANCH  14  16
ENDBRANCH   8  12
BRANCH   2  23
ATOM     23  C   UNL     1      -4.037  -3.551  -3.243  0.00  0.00    +0.237 C 
ATOM     24  O   UNL     1      -4.969  -2.795  -3.071  0.00  0.00    -0.274 OA
ATOM     25  N   UNL     1      -3.850  -4.127  -4.447  0.00  0.00    -0.311 N 
ATOM     26  H   UNL     1      -3.104  -4.732  -4.585  0.00  0.00    +0.149 HD
BRANCH  25  27
ATOM     27  C   UNL     1      -4.774  -3.841  -5.547  0.00  0.00    +0.076 C 
ATOM     28  C   UNL     1      -5.984  -4.771  -5.453  0.00  0.00    +0.022 C 
ATOM     29  C   UNL     1      -6.949  -4.472  -6.603  0.00  0.00    +0.002 C 
ATOM     30  C   UNL     1      -6.236  -4.695  -7.938  0.00  0.00    +0.003 C 
ATOM     31  C   UNL     1      -5.025  -3.764  -8.032  0.00  0.00    -0.009 C 
ATOM     32  C   UNL     1      -4.061  -4.064  -6.883  0.00  0.00    +0.009 C 
ATOM     33  C   UNL     1      -3.594  -5.518  -6.974  0.00  0.00    +0.009 C 
ATOM     34  C   UNL     1      -4.313  -3.988  -9.367  0.00  0.00    +0.008 C 
ENDBRANCH  25  27
ENDBRANCH   2  23
BRANCH   1  35
ATOM     35  C   UNL     1      -3.395  -1.373  -1.274  0.00  0.00    +0.090 C 
BRANCH  35  36
ATOM     36  C   UNL     1      -2.039  -0.679  -1.417  0.00  0.00    -0.060 C 
BRANCH  36  37
ATOM     37  N   UNL     1      -2.245   0.731  -1.773  0.00  0.00    +0.380 N 
ATOM     38  H   UNL     1      -2.810   0.788  -2.607  0.00  0.00    -0.082 HD
BRANCH  37  40
ATOM     39  C   UNL     1      -3.255   2.854  -1.090  0.00  0.00    -0.017 C 
ATOM     40  C   UNL     1      -2.929   1.419  -0.671  0.00  0.00    -0.082 C 
ENDBRANCH  37  40
BRANCH  37  41
ATOM     41  C   UNL     1      -0.945   1.369  -2.018  0.00  0.00    -0.082 C 
ATOM     42  C   UNL     1      -0.298   0.751  -3.259  0.00  0.00    -0.017 C 
ENDBRANCH  37  41
ENDBRANCH  36  37
ENDBRANCH  35  36
ENDBRANCH   1  35
TORSDOF 9
