REMARK  Name = ZINC03305482
REMARK  13 active torsions:
REMARK  status: ('A' for Active; 'I' for Inactive)
REMARK    1  A    between atoms: C_1  and  O_2
REMARK    2  A    between atoms: O_2  and  C_3
REMARK    3  A    between atoms: C_6  and  C_9
REMARK    4  A    between atoms: C_10  and  C_39
REMARK    5  A    between atoms: C_11  and  N_22
REMARK    6  A    between atoms: C_13  and  C_14
REMARK    7  A    between atoms: C_17  and  O_20
REMARK    8  A    between atoms: O_20  and  C_21
REMARK    9  A    between atoms: C_23  and  C_25
REMARK   10  A    between atoms: C_25  and  O_26
REMARK   11  A    between atoms: O_26  and  C_27
REMARK   12  A    between atoms: C_27  and  C_29
REMARK   13  A    between atoms: C_34  and  N_35
REMARK                            x       y       z     vdW  Elec       q    Type
REMARK                         _______ _______ _______ _____ _____    ______ ____
ROOT
ATOM      1  C   UNL     1       1.864  -2.047  -4.071  0.00  0.00    +0.047 A 
ATOM      2  C   UNL     1       1.539  -2.058  -5.510  0.00  0.00    +0.121 A 
ATOM      3  C   UNL     1       2.603  -2.700  -6.124  0.00  0.00    +0.211 A 
ATOM      4  O   UNL     1       3.490  -3.050  -5.184  0.00  0.00    -0.439 OA
ATOM      5  C   UNL     1       3.077  -2.669  -3.959  0.00  0.00    +0.146 A 
ENDROOT
BRANCH   1   9
ATOM      6  C   UNL     1      -0.478  -0.406  -0.925  0.00  0.00    +0.120 A 
ATOM      7  C   UNL     1       0.085   0.432  -1.879  0.00  0.00    +0.046 A 
ATOM      8  C   UNL     1       0.845  -0.097  -2.901  0.00  0.00    +0.012 A 
ATOM      9  C   UNL     1       1.049  -1.476  -2.975  0.00  0.00    -0.013 A 
ATOM     10  C   UNL     1       0.482  -2.314  -2.015  0.00  0.00    +0.012 A 
ATOM     11  C   UNL     1      -0.273  -1.777  -0.993  0.00  0.00    +0.046 A 
BRANCH   6  13
ATOM     12  C   UNL     1      -1.397   1.538   0.090  0.00  0.00    +0.277 C 
ATOM     13  O   UNL     1      -1.227   0.119   0.080  0.00  0.00    -0.495 OA
ENDBRANCH   6  13
ENDBRANCH   1   9
BRANCH   5  14
ATOM     14  C   UNL     1       3.813  -2.890  -2.701  0.00  0.00    +0.018 A 
ATOM     15  C   UNL     1       4.376  -4.140  -2.428  0.00  0.00    +0.015 A 
ATOM     16  C   UNL     1       5.064  -4.342  -1.251  0.00  0.00    +0.046 A 
ATOM     17  C   UNL     1       5.198  -3.306  -0.336  0.00  0.00    +0.120 A 
ATOM     18  C   UNL     1       4.640  -2.062  -0.603  0.00  0.00    +0.046 A 
ATOM     19  C   UNL     1       3.955  -1.849  -1.780  0.00  0.00    +0.015 A 
BRANCH  17  20
ATOM     20  O   UNL     1       5.876  -3.509   0.824  0.00  0.00    -0.495 OA
ATOM     21  C   UNL     1       5.976  -2.401   1.720  0.00  0.00    +0.277 C 
ENDBRANCH  17  20
ENDBRANCH   5  14
BRANCH   3  22
ATOM     22  N   UNL     1       2.727  -2.938  -7.481  0.00  0.00    -0.252 N 
ATOM     23  C   UNL     1       3.816  -3.575  -7.956  0.00  0.00    +0.257 C 
ATOM     24  O   UNL     1       4.686  -3.938  -7.194  0.00  0.00    -0.272 OA
ATOM     25  H   UNL     1       2.031  -2.647  -8.090  0.00  0.00    +0.158 HD
BRANCH  23  26
ATOM     26  C   UNL     1       3.951  -3.834  -9.434  0.00  0.00    +0.328 C 
BRANCH  26  27
ATOM     27  O   UNL     1       5.181  -4.517  -9.687  0.00  0.00    -0.452 OA
BRANCH  27  28
ATOM     28  C   UNL     1       5.456  -4.826 -10.969  0.00  0.00    +0.342 C 
ATOM     29  O   UNL     1       4.674  -4.524 -11.848  0.00  0.00    -0.245 OA
BRANCH  28  30
ATOM     30  C   UNL     1       6.709  -5.532 -11.306  0.00  0.00    +0.089 A 
ATOM     31  C   UNL     1       7.939  -5.011 -10.896  0.00  0.00    +0.019 A 
ATOM     32  C   UNL     1       9.105  -5.675 -11.214  0.00  0.00    +0.021 A 
ATOM     33  C   UNL     1       9.058  -6.856 -11.937  0.00  0.00    +0.043 A 
ATOM     34  C   UNL     1       7.842  -7.377 -12.345  0.00  0.00    +0.053 A 
ATOM     35  C   UNL     1       6.668  -6.726 -12.029  0.00  0.00    +0.141 A 
ATOM     36 CL   UNL     1      10.531  -7.685 -12.334  0.00  0.00    -0.083 Cl
BRANCH  35  37
ATOM     37  N   UNL     1       5.369  -7.288 -12.461  0.00  0.00    +0.057 N 
ATOM     38  O   UNL     1       5.339  -8.257 -13.183  0.00  0.00    -0.126 OA
ATOM     39  O   UNL     1       4.337  -6.778 -12.091  0.00  0.00    -0.126 OA
ENDBRANCH  35  37
ENDBRANCH  28  30
ENDBRANCH  27  28
ENDBRANCH  26  27
ENDBRANCH  23  26
ENDBRANCH   3  22
BRANCH   2  40
ATOM     40  C   UNL     1       0.371  -1.520  -6.139  0.00  0.00    +0.105 C 
ATOM     41  N   UNL     1      -0.556  -1.093  -6.638  0.00  0.00    -0.191 NA
ENDBRANCH   2  40
TORSDOF 11
