REMARK  Name = ZINC36579687
REMARK  17 active torsions:
REMARK  status: ('A' for Active; 'I' for Inactive)
REMARK    1  A    between atoms: C_1  and  C_2
REMARK    2  A    between atoms: C_2  and  C_3
REMARK    3  A    between atoms: C_3  and  C_4
REMARK    4  A    between atoms: C_4  and  N_5
REMARK    5  A    between atoms: C_6  and  C_8
REMARK    6  A    between atoms: C_8  and  C_10
REMARK    7  A    between atoms: C_8  and  N_19
REMARK    8  A    between atoms: C_11  and  O_18
REMARK    9  A    between atoms: C_13  and  O_17
REMARK   10  A    between atoms: C_15  and  O_16
REMARK   11  A    between atoms: N_19  and  C_30
REMARK   12  A    between atoms: C_20  and  C_22
REMARK   13  A    between atoms: C_27  and  O_28
REMARK   14  A    between atoms: O_28  and  C_29
REMARK   15  A    between atoms: C_30  and  C_31
REMARK   16  A    between atoms: C_30  and  C_32
REMARK   17  A    between atoms: C_30  and  C_33
REMARK                            x       y       z     vdW  Elec       q    Type
REMARK                         _______ _______ _______ _____ _____    ______ ____
ROOT
ATOM      1  C   UNL     1       4.585  -5.835   4.549  0.00  0.00    +0.200 C 
ENDROOT
BRANCH   1   2
ATOM      2  C   UNL     1       4.856  -6.456   5.896  0.00  0.00    +0.065 A 
ATOM      3  C   UNL     1       4.760  -7.829   6.058  0.00  0.00    +0.129 A 
ATOM      4  C   UNL     1       5.010  -8.400   7.297  0.00  0.00    +0.091 A 
ATOM      5  C   UNL     1       5.356  -7.597   8.373  0.00  0.00    +0.124 A 
ATOM      6  C   UNL     1       5.453  -6.224   8.211  0.00  0.00    +0.091 A 
ATOM      7  C   UNL     1       5.207  -5.653   6.971  0.00  0.00    +0.129 A 
BRANCH   7   8
ATOM      8  O   UNL     1       5.307  -4.307   6.810  0.00  0.00    -0.506 OA
ATOM      9  H   UNL     1       4.483  -3.829   6.977  0.00  0.00    +0.292 HD
ENDBRANCH   7   8
BRANCH   5  10
ATOM     10  O   UNL     1       5.600  -8.157   9.587  0.00  0.00    -0.507 OA
ATOM     11  H   UNL     1       6.525  -8.404   9.728  0.00  0.00    +0.292 HD
ENDBRANCH   5  10
BRANCH   3  12
ATOM     12  O   UNL     1       4.421  -8.616   5.003  0.00  0.00    -0.506 OA
ATOM     13  H   UNL     1       5.169  -8.870   4.445  0.00  0.00    +0.292 HD
ENDBRANCH   3  12
ENDBRANCH   1   2
BRANCH   1  15
ATOM     14  N   UNL     1       6.879  -5.853   3.625  0.00  0.00    -0.313 N 
ATOM     15  C   UNL     1       5.614  -6.314   3.559  0.00  0.00    +0.238 C 
ATOM     16  O   UNL     1       5.305  -7.114   2.701  0.00  0.00    -0.273 OA
ATOM     17  H   UNL     1       7.127  -5.213   4.311  0.00  0.00    +0.149 HD
BRANCH  14  18
ATOM     18  C   UNL     1       7.880  -6.319   2.662  0.00  0.00    +0.104 C 
BRANCH  18  19
ATOM     19  C   UNL     1       9.222  -5.647   2.957  0.00  0.00    +0.018 C 
BRANCH  19  21
ATOM     20  C   UNL     1      11.610  -5.461   2.245  0.00  0.00    +0.004 C 
ATOM     21  C   UNL     1      10.268  -6.133   1.951  0.00  0.00    -0.002 C 
ENDBRANCH  19  21
ENDBRANCH  18  19
ENDBRANCH  14  18
ENDBRANCH   1  15
BRANCH   1  22
ATOM     22  N   UNL     1       3.249  -6.226   4.092  0.00  0.00    -0.277 N 
ATOM     23  C   UNL     1       2.494  -7.052   4.844  0.00  0.00    +0.251 C 
ATOM     24  O   UNL     1       2.576  -7.015   6.056  0.00  0.00    -0.270 OA
BRANCH  23  25
ATOM     25  C   UNL     1       1.569  -8.001   4.195  0.00  0.00    +0.078 A 
ATOM     26  C   UNL     1       0.859  -7.620   3.054  0.00  0.00    +0.017 A 
ATOM     27  C   UNL     1      -0.003  -8.511   2.452  0.00  0.00    +0.001 A 
ATOM     28  C   UNL     1      -0.169  -9.784   2.973  0.00  0.00    +0.004 A 
ATOM     29  C   UNL     1       0.526 -10.173   4.101  0.00  0.00    +0.046 A 
ATOM     30  C   UNL     1       1.402  -9.290   4.716  0.00  0.00    +0.132 A 
BRANCH  30  31
ATOM     31  O   UNL     1       2.091  -9.673   5.821  0.00  0.00    -0.494 OA
ATOM     32  C   UNL     1       1.869 -11.003   6.295  0.00  0.00    +0.277 C 
ENDBRANCH  30  31
ENDBRANCH  23  25
BRANCH  22  33
ATOM     33  C   UNL     1       2.733  -5.718   2.819  0.00  0.00    +0.030 C 
ATOM     34  C   UNL     1       3.749  -4.753   2.205  0.00  0.00    +0.031 C 
ATOM     35  C   UNL     1       2.497  -6.887   1.861  0.00  0.00    +0.031 C 
ATOM     36  C   UNL     1       1.413  -4.982   3.060  0.00  0.00    +0.031 C 
ENDBRANCH  22  33
ENDBRANCH   1  22
TORSDOF 12
