REMARK  Name = ZINC35646866
REMARK  12 active torsions:
REMARK  status: ('A' for Active; 'I' for Inactive)
REMARK    1  A    between atoms: C_1  and  C_2
REMARK    2  A    between atoms: C_2  and  O_3
REMARK    3  A    between atoms: O_3  and  C_4
REMARK    4  A    between atoms: C_4  and  C_6
REMARK    5  A    between atoms: C_7  and  C_23
REMARK    6  A    between atoms: N_8  and  C_22
REMARK    7  A    between atoms: C_12  and  C_14
REMARK    8  A    between atoms: C_17  and  C_21
REMARK    9  A    between atoms: C_19  and  C_20
REMARK   10  A    between atoms: C_23  and  N_24
REMARK   11  A    between atoms: N_27  and  S_30
REMARK   12  A    between atoms: S_30  and  C_33
REMARK                            x       y       z     vdW  Elec       q    Type
REMARK                         _______ _______ _______ _____ _____    ______ ____
ROOT
ATOM      1  C   UNL     1      -2.898  -2.112   0.111  0.00  0.00    +0.080 C 
ATOM      2  C   UNL     1      -3.054  -3.451   0.036  0.00  0.00    +0.041 C 
ATOM      3  N   UNL     1      -4.295  -4.012  -0.061  0.00  0.00    -0.260 N 
ATOM      4  C   UNL     1      -5.430  -3.303  -0.091  0.00  0.00    +0.307 C 
ATOM      5  O   UNL     1      -6.490  -3.892  -0.180  0.00  0.00    -0.252 OA
ATOM      6  N   UNL     1      -5.436  -1.957  -0.026  0.00  0.00    -0.288 N 
ATOM      7  C   UNL     1      -4.147  -1.254   0.088  0.00  0.00    +0.144 C 
ATOM      8  C   UNL     1      -4.390  -5.472  -0.138  0.00  0.00    +0.139 C 
ATOM      9  H   UNL     1      -6.271  -1.462  -0.050  0.00  0.00    +0.151 HD
ENDROOT
BRANCH   7  10
ATOM     10  C   UNL     1      -4.170  -0.433   1.351  0.00  0.00    -0.020 A 
ATOM     11  C   UNL     1      -4.795  -0.923   2.483  0.00  0.00    +0.006 A 
ATOM     12  C   UNL     1      -4.816  -0.169   3.642  0.00  0.00    +0.004 A 
ATOM     13  C   UNL     1      -4.211   1.074   3.669  0.00  0.00    -0.050 A 
ATOM     14  C   UNL     1      -3.586   1.563   2.537  0.00  0.00    +0.007 A 
ATOM     15  C   UNL     1      -3.561   0.807   1.380  0.00  0.00    -0.045 A 
ATOM     16  C   UNL     1      -2.874   1.339   0.148  0.00  0.00    +0.044 C 
ATOM     17  C   UNL     1      -4.235   1.896   4.931  0.00  0.00    +0.044 C 
ENDBRANCH   7  10
BRANCH   1  18
ATOM     18  C   UNL     1      -1.613  -1.530   0.213  0.00  0.00    +0.339 C 
ATOM     19  O   UNL     1      -1.193  -1.169   1.296  0.00  0.00    -0.245 OA
BRANCH  18  20
ATOM     20  O   UNL     1      -0.853  -1.375  -0.892  0.00  0.00    -0.462 OA
BRANCH  20  22
ATOM     21  C   UNL     1       1.141  -0.671  -2.062  0.00  0.00    +0.048 C 
ATOM     22  C   UNL     1       0.477  -0.888  -0.701  0.00  0.00    +0.229 C 
ENDBRANCH  20  22
ENDBRANCH  18  20
ENDBRANCH   1  18
BRANCH   2  23
ATOM     23  C   UNL     1      -1.838  -4.342   0.061  0.00  0.00    +0.136 C 
BRANCH  23  24
ATOM     24  N   UNL     1      -1.856  -5.161   1.281  0.00  0.00    -0.294 NA
ATOM     25  C   UNL     1      -1.710  -4.324   2.479  0.00  0.00    +0.102 C 
ATOM     26  C   UNL     1      -1.914  -5.187   3.729  0.00  0.00    +0.125 C 
ATOM     27  N   UNL     1      -0.999  -6.337   3.657  0.00  0.00    -0.174 NA
ATOM     28  C   UNL     1      -0.990  -7.144   2.428  0.00  0.00    +0.125 C 
ATOM     29  C   UNL     1      -0.822  -6.204   1.229  0.00  0.00    +0.102 C 
BRANCH  27  30
ATOM     30  S   UNL     1      -0.005  -6.712   4.928  0.00  0.00    +0.061 S 
ATOM     31  O   UNL     1       1.086  -7.444   4.387  0.00  0.00    -0.153 OA
ATOM     32  O   UNL     1       0.174  -5.514   5.671  0.00  0.00    -0.153 OA
BRANCH  30  33
ATOM     33  C   UNL     1      -0.890  -7.824   5.970  0.00  0.00    +0.105 A 
ATOM     34  C   UNL     1      -1.680  -7.332   6.992  0.00  0.00    +0.028 A 
ATOM     35  C   UNL     1      -2.374  -8.204   7.810  0.00  0.00    +0.002 A 
ATOM     36  C   UNL     1      -2.279  -9.568   7.605  0.00  0.00    +0.000 A 
ATOM     37  C   UNL     1      -1.490 -10.059   6.582  0.00  0.00    +0.002 A 
ATOM     38  C   UNL     1      -0.799  -9.187   5.762  0.00  0.00    +0.028 A 
ENDBRANCH  30  33
ENDBRANCH  27  30
ENDBRANCH  23  24
ENDBRANCH   2  23
TORSDOF 8
