REMARK  Name = ZINC35938564
REMARK  8 active torsions:
REMARK  status: ('A' for Active; 'I' for Inactive)
REMARK    1  A    between atoms: C_1  and  C_2
REMARK    2  A    between atoms: C_2  and  C_3
REMARK    3  A    between atoms: C_3  and  C_5
REMARK    4  A    between atoms: C_3  and  C_11
REMARK    5  A    between atoms: C_20  and  C_22
REMARK    6  A    between atoms: C_22  and  C_23
REMARK    7  A    between atoms: C_23  and  N_24
REMARK    8  A    between atoms: C_32  and  C_34
REMARK                            x       y       z     vdW  Elec       q    Type
REMARK                         _______ _______ _______ _____ _____    ______ ____
ROOT
ATOM      1  C   UNL     1       0.756  -2.002  -1.327  0.00  0.00    +0.223 C 
ATOM      2  O   UNL     1       1.817  -2.586  -1.270  0.00  0.00    -0.275 OA
ATOM      3  N   UNL     1      -0.391  -2.700  -1.451  0.00  0.00    -0.299 N 
ATOM      4  C   UNL     1      -0.404  -4.120  -1.409  0.00  0.00    +0.109 C 
ATOM      5  C   UNL     1      -0.081  -4.815  -2.772  0.00  0.00    +0.038 C 
ATOM      6  C   UNL     1      -0.756  -3.966  -3.898  0.00  0.00    +0.109 C 
ATOM      7  N   UNL     1      -2.029  -3.433  -3.555  0.00  0.00    -0.300 N 
ATOM      8  C   UNL     1      -2.063  -2.037  -3.050  0.00  0.00    +0.126 C 
ATOM      9  C   UNL     1      -1.698  -2.018  -1.632  0.00  0.00    +0.126 C 
ATOM     10  C   UNL     1      -3.155  -4.163  -3.685  0.00  0.00    +0.214 C 
ATOM     11  O   UNL     1      -3.095  -5.301  -4.101  0.00  0.00    -0.276 OA
ENDROOT
BRANCH   1  12
ATOM     12  C   UNL     1       0.718  -0.497  -1.259  0.00  0.00    +0.105 C 
BRANCH  12  13
ATOM     13  C   UNL     1       1.942   0.067  -1.935  0.00  0.00    -0.036 A 
ATOM     14  C   UNL     1       3.201  -0.262  -1.470  0.00  0.00    +0.004 A 
ATOM     15  C   UNL     1       4.323   0.255  -2.091  0.00  0.00    +0.000 A 
ATOM     16  C   UNL     1       4.185   1.101  -3.175  0.00  0.00    +0.000 A 
ATOM     17  C   UNL     1       2.925   1.429  -3.640  0.00  0.00    +0.000 A 
ATOM     18  C   UNL     1       1.804   0.908  -3.023  0.00  0.00    +0.004 A 
ENDBRANCH  12  13
BRANCH  12  20
ATOM     19  C   UNL     1       0.514   1.464   0.276  0.00  0.00    +0.005 C 
ATOM     20  C   UNL     1       0.695  -0.054   0.205  0.00  0.00    +0.014 C 
ENDBRANCH  12  20
ENDBRANCH   1  12
BRANCH  10  21
ATOM     21  C   UNL     1      -4.487  -3.566  -3.312  0.00  0.00    +0.077 C 
BRANCH  21  22
ATOM     22  C   UNL     1      -5.593  -4.595  -3.551  0.00  0.00    -0.068 C 
BRANCH  22  23
ATOM     23  N   UNL     1      -6.891  -4.013  -3.188  0.00  0.00    +0.388 N 
ATOM     24  C   UNL     1      -7.177  -2.877  -4.075  0.00  0.00    -0.072 C 
ATOM     25  C   UNL     1      -8.353  -2.074  -3.492  0.00  0.00    +0.024 C 
ATOM     26  C   UNL     1      -9.423  -3.048  -3.121  0.00  0.00    -0.010 A 
ATOM     27  C   UNL     1      -9.288  -4.401  -3.025  0.00  0.00    -0.047 A 
ATOM     28  C   UNL     1     -10.428  -5.116  -2.667  0.00  0.00    +0.010 A 
ATOM     29  C   UNL     1     -11.590  -4.462  -2.431  0.00  0.00    +0.045 A 
ATOM     30  S   UNL     1     -11.120  -2.761  -2.711  0.00  0.00    -0.101 S 
ATOM     31  C   UNL     1      -7.932  -5.041  -3.305  0.00  0.00    -0.006 C 
ATOM     32  H   UNL     1      -6.854  -3.687  -2.234  0.00  0.00    -0.080 HD
BRANCH  31  33
ATOM     33  C   UNL     1      -7.674  -6.138  -2.304  0.00  0.00    -0.057 A 
ATOM     34  C   UNL     1      -7.244  -5.822  -1.029  0.00  0.00    +0.002 A 
ATOM     35  C   UNL     1      -7.007  -6.827  -0.110  0.00  0.00    +0.000 A 
ATOM     36  C   UNL     1      -7.202  -8.149  -0.467  0.00  0.00    +0.000 A 
ATOM     37  C   UNL     1      -7.634  -8.464  -1.741  0.00  0.00    +0.000 A 
ATOM     38  C   UNL     1      -7.874  -7.459  -2.659  0.00  0.00    +0.002 A 
ENDBRANCH  31  33
ENDBRANCH  22  23
ENDBRANCH  21  22
ENDBRANCH  10  21
TORSDOF 7
