REMARK  Name = ZINC39695985
REMARK  10 active torsions:
REMARK  status: ('A' for Active; 'I' for Inactive)
REMARK    1  A    between atoms: C_1  and  C_2
REMARK    2  A    between atoms: C_2  and  C_3
REMARK    3  A    between atoms: C_6  and  C_9
REMARK    4  A    between atoms: C_9  and  C_11
REMARK    5  A    between atoms: C_9  and  N_12
REMARK    6  A    between atoms: C_13  and  C_15
REMARK    7  A    between atoms: C_26  and  C_28
REMARK    8  A    between atoms: C_31  and  O_34
REMARK    9  A    between atoms: O_34  and  C_35
REMARK   10  A    between atoms: C_35  and  C_36
REMARK                            x       y       z     vdW  Elec       q    Type
REMARK                         _______ _______ _______ _____ _____    ______ ____
ROOT
ATOM      1  C   UNL     1       6.441   0.015  -6.039  0.00  0.00    +0.100 C 
ATOM      2  C   UNL     1       7.287  -0.955  -5.183  0.00  0.00    +0.121 C 
ATOM      3  N   UNL     1       7.894  -1.886  -6.163  0.00  0.00    -0.296 N 
ATOM      4  C   UNL     1       8.252  -1.026  -7.316  0.00  0.00    +0.115 C 
ATOM      5  C   UNL     1       7.080  -0.032  -7.437  0.00  0.00    -0.004 C 
ATOM      6  C   UNL     1       7.597   1.350  -7.828  0.00  0.00    -0.010 C 
ATOM      7  C   UNL     1       8.175   1.291  -9.244  0.00  0.00    -0.082 C 
ATOM      8  N   UNL     1       7.135   0.852 -10.182  0.00  0.00    +0.379 N 
ATOM      9  C   UNL     1       6.710  -0.514  -9.855  0.00  0.00    -0.082 C 
ATOM     10  C   UNL     1       6.069  -0.532  -8.464  0.00  0.00    -0.010 C 
ATOM     11  C   UNL     1       8.079  -3.215  -6.034  0.00  0.00    +0.247 C 
ATOM     12  O   UNL     1       7.617  -3.803  -5.076  0.00  0.00    -0.270 OA
ATOM     13  H   UNL     1       6.343   1.474 -10.118  0.00  0.00    -0.086 HD
ATOM     14  H   UNL     1       7.501   0.873 -11.122  0.00  0.00    -0.086 HD
ENDROOT
BRANCH  11  15
ATOM     15  C   UNL     1       8.844  -3.955  -7.057  0.00  0.00    +0.037 A 
ATOM     16  C   UNL     1       9.731  -3.277  -7.896  0.00  0.00    +0.016 A 
ATOM     17  C   UNL     1      10.443  -3.971  -8.849  0.00  0.00    +0.046 A 
ATOM     18  C   UNL     1      10.279  -5.346  -8.976  0.00  0.00    +0.121 A 
ATOM     19  C   UNL     1       9.398  -6.024  -8.143  0.00  0.00    +0.046 A 
ATOM     20  C   UNL     1       8.687  -5.338  -7.184  0.00  0.00    +0.016 A 
BRANCH  18  21
ATOM     21  O   UNL     1      10.982  -6.027  -9.916  0.00  0.00    -0.492 OA
BRANCH  21  22
ATOM     22  C   UNL     1      10.765  -7.437  -9.993  0.00  0.00    +0.225 C 
ATOM     23  C   UNL     1      11.638  -8.028 -11.103  0.00  0.00    +0.048 C 
ENDBRANCH  21  22
ENDBRANCH  18  21
ENDBRANCH  11  15
BRANCH   1  25
ATOM     24  N   UNL     1       4.024   0.430  -6.359  0.00  0.00    -0.308 N 
ATOM     25  C   UNL     1       5.009  -0.452  -6.101  0.00  0.00    +0.219 C 
ATOM     26  O   UNL     1       4.745  -1.621  -5.918  0.00  0.00    -0.275 OA
ATOM     27  H   UNL     1       4.235   1.365  -6.505  0.00  0.00    +0.149 HD
BRANCH  24  28
ATOM     28  C   UNL     1       2.632  -0.024  -6.419  0.00  0.00    +0.100 C 
ATOM     29  C   UNL     1       2.042  -0.048  -5.008  0.00  0.00    +0.033 C 
BRANCH  28  33
ATOM     30  C   UNL     1       0.366   2.648  -8.863  0.00  0.00    -0.048 A 
ATOM     31  C   UNL     1       0.147   1.285  -8.942  0.00  0.00    +0.004 A 
ATOM     32  C   UNL     1       0.880   0.420  -8.151  0.00  0.00    +0.006 A 
ATOM     33  C   UNL     1       1.833   0.918  -7.282  0.00  0.00    -0.027 A 
ATOM     34  C   UNL     1       2.053   2.281  -7.204  0.00  0.00    +0.006 A 
ATOM     35  C   UNL     1       1.322   3.145  -7.998  0.00  0.00    +0.004 A 
BRANCH  30  37
ATOM     36  C   UNL     1       0.291   3.803 -11.056  0.00  0.00    +0.009 C 
ATOM     37  C   UNL     1      -0.434   3.590  -9.725  0.00  0.00    +0.032 C 
ENDBRANCH  30  37
ENDBRANCH  28  33
ENDBRANCH  24  28
ENDBRANCH   1  25
TORSDOF 7
