REMARK  Name = ZINC14469336
REMARK  14 active torsions:
REMARK  status: ('A' for Active; 'I' for Inactive)
REMARK    1  A    between atoms: C_1  and  C_2
REMARK    2  A    between atoms: C_2  and  N_70
REMARK    3  A    between atoms: C_3  and  C_4
REMARK    4  A    between atoms: C_3  and  N_70
REMARK    5  A    between atoms: C_5  and  C_6
REMARK    6  A    between atoms: C_5  and  N_70
REMARK    7  A    between atoms: C_6  and  N_7
REMARK    8  A    between atoms: C_8  and  C_10
REMARK    9  A    between atoms: C_23  and  C_26
REMARK   10  A    between atoms: C_29  and  O_34
REMARK   11  A    between atoms: C_30  and  O_32
REMARK   12  A    between atoms: O_32  and  C_33
REMARK   13  A    between atoms: O_34  and  C_35
REMARK   14  A    between atoms: C_35  and  C_37
REMARK                            x       y       z     vdW  Elec       q    Type
REMARK                         _______ _______ _______ _____ _____    ______ ____
ROOT
ATOM      1  C   UNL     1      -0.182   1.585  -0.978  0.00  0.00    +0.037 A 
ATOM      2  C   UNL     1       1.051   2.213  -0.782  0.00  0.00    +0.015 A 
ATOM      3  C   UNL     1       2.206   1.467  -0.757  0.00  0.00    +0.024 A 
ATOM      4  C   UNL     1       2.159   0.085  -0.924  0.00  0.00    +0.031 A 
ATOM      5  C   UNL     1       0.922  -0.542  -1.132  0.00  0.00    -0.019 A 
ATOM      6  C   UNL     1      -0.233   0.200  -1.156  0.00  0.00    +0.019 A 
ATOM      7  C   UNL     1       0.925  -2.007  -1.335  0.00  0.00    +0.049 C 
ATOM      8  C   UNL     1      -0.253  -2.850  -1.004  0.00  0.00    -0.023 C 
ATOM      9  C   UNL     1       0.176  -4.050  -0.632  0.00  0.00    -0.030 C 
ATOM     10  C   UNL     1       1.705  -4.090  -0.655  0.00  0.00    +0.033 C 
ATOM     11  C   UNL     1       2.055  -2.610  -0.447  0.00  0.00    +0.029 C 
ATOM     12  C   UNL     1       3.354  -2.113  -1.054  0.00  0.00    +0.105 C 
ATOM     13  N   UNL     1       3.346  -0.645  -0.869  0.00  0.00    -0.336 N 
ATOM     14  H   UNL     1       4.182  -0.182  -0.706  0.00  0.00    +0.147 HD
ENDROOT
BRANCH  12  15
ATOM     15  C   UNL     1       4.531  -2.721  -0.336  0.00  0.00    -0.023 A 
ATOM     16  C   UNL     1       4.946  -2.197   0.875  0.00  0.00    +0.009 A 
ATOM     17  C   UNL     1       6.025  -2.751   1.538  0.00  0.00    +0.050 A 
ATOM     18  C   UNL     1       6.693  -3.834   0.990  0.00  0.00    +0.173 A 
ATOM     19  C   UNL     1       6.275  -4.362  -0.228  0.00  0.00    +0.163 A 
ATOM     20  C   UNL     1       5.190  -3.805  -0.885  0.00  0.00    +0.055 A 
BRANCH  19  21
ATOM     21  O   UNL     1       6.927  -5.425  -0.770  0.00  0.00    -0.491 OA
ATOM     22  C   UNL     1       6.443  -5.914  -2.022  0.00  0.00    +0.277 C 
ENDBRANCH  19  21
BRANCH  18  23
ATOM     23  O   UNL     1       7.754  -4.381   1.641  0.00  0.00    -0.422 OA
BRANCH  23  24
ATOM     24  C   UNL     1       8.977  -3.985   1.254  0.00  0.00    +0.309 C 
ATOM     25  O   UNL     1       9.095  -3.115   0.423  0.00  0.00    -0.251 OA
ATOM     26  C   UNL     1      10.202  -4.625   1.855  0.00  0.00    +0.136 C 
ENDBRANCH  23  24
ENDBRANCH  18  23
ENDBRANCH  12  15
BRANCH   1  28
ATOM     27  N   UNL     1      -1.371   3.718  -0.833  0.00  0.00    -0.313 N 
ATOM     28  C   UNL     1      -1.424   2.382  -1.004  0.00  0.00    +0.244 C 
ATOM     29  O   UNL     1      -2.495   1.834  -1.180  0.00  0.00    -0.270 OA
ATOM     30  H   UNL     1      -0.517   4.155  -0.692  0.00  0.00    +0.149 HD
BRANCH  27  31
ATOM     31  C   UNL     1      -2.604   4.509  -0.858  0.00  0.00    +0.086 C 
BRANCH  31  32
ATOM     32  C   UNL     1      -2.267   5.986  -0.641  0.00  0.00    -0.060 C 
BRANCH  32  33
ATOM     33  N   UNL     1      -3.523   6.763  -0.643  0.00  0.00    +0.380 N 
ATOM     34  H   UNL     1      -4.131   6.413  -1.394  0.00  0.00    -0.082 HD
BRANCH  33  36
ATOM     35  C   UNL     1      -5.611   7.229   0.543  0.00  0.00    -0.017 C 
ATOM     36  C   UNL     1      -4.219   6.604   0.651  0.00  0.00    -0.082 C 
ENDBRANCH  33  36
BRANCH  33  37
ATOM     37  C   UNL     1      -3.233   8.192  -0.888  0.00  0.00    -0.082 C 
ATOM     38  C   UNL     1      -2.981   8.391  -2.384  0.00  0.00    -0.017 C 
ENDBRANCH  33  37
ENDBRANCH  32  33
ENDBRANCH  31  32
ENDBRANCH  27  31
ENDBRANCH   1  28
TORSDOF 10
