REMARK  Name = ZINC08624136
REMARK  10 active torsions:
REMARK  status: ('A' for Active; 'I' for Inactive)
REMARK    1  A    between atoms: C_1  and  C_2
REMARK    2  A    between atoms: C_2  and  O_3
REMARK    3  A    between atoms: O_3  and  C_4
REMARK    4  A    between atoms: C_4  and  C_6
REMARK    5  A    between atoms: C_7  and  C_35
REMARK    6  A    between atoms: C_8  and  C_31
REMARK    7  A    between atoms: C_10  and  N_11
REMARK    8  A    between atoms: C_12  and  C_14
REMARK    9  A    between atoms: C_14  and  N_15
REMARK   10  A    between atoms: N_33  and  C_34
REMARK                            x       y       z     vdW  Elec       q    Type
REMARK                         _______ _______ _______ _____ _____    ______ ____
ROOT
ATOM      1  N   UNL     1       6.756   2.322  -3.938  0.00  0.00    -0.278 N 
ATOM      2  C   UNL     1       6.038   1.801  -2.923  0.00  0.00    +0.236 C 
ATOM      3  O   UNL     1       5.086   2.407  -2.480  0.00  0.00    -0.274 OA
ATOM      4  H   UNL     1       7.518   1.837  -4.292  0.00  0.00    +0.155 HD
ENDROOT
BRANCH   1   9
ATOM      5  C   UNL     1       7.020   4.248  -5.516  0.00  0.00    +0.091 A 
ATOM      6  C   UNL     1       6.473   5.470  -5.881  0.00  0.00    -0.015 A 
ATOM      7  C   UNL     1       5.376   5.907  -5.190  0.00  0.00    +0.079 A 
ATOM      8  S   UNL     1       5.100   4.591  -4.019  0.00  0.00    -0.068 S 
ATOM      9  C   UNL     1       6.405   3.545  -4.475  0.00  0.00    +0.087 A 
ATOM     10  C   UNL     1       7.069   6.289  -6.997  0.00  0.00    +0.046 C 
BRANCH   7  11
ATOM     11  C   UNL     1       4.618   7.147  -5.367  0.00  0.00    +0.251 C 
ATOM     12  O   UNL     1       4.948   7.945  -6.225  0.00  0.00    -0.270 OA
ATOM     13  N   UNL     1       3.555   7.405  -4.580  0.00  0.00    -0.314 N 
ATOM     14  C   UNL     1       2.796   8.646  -4.757  0.00  0.00    +0.128 C 
ATOM     15  H   UNL     1       3.292   6.770  -3.896  0.00  0.00    +0.149 HD
ENDBRANCH   7  11
BRANCH   5  16
ATOM     16  C   UNL     1       8.200   3.711  -6.202  0.00  0.00    +0.342 C 
ATOM     17  O   UNL     1       8.064   3.004  -7.182  0.00  0.00    -0.245 OA
BRANCH  16  18
ATOM     18  O   UNL     1       9.435   4.000  -5.745  0.00  0.00    -0.461 OA
BRANCH  18  20
ATOM     19  C   UNL     1      11.866   3.868  -5.812  0.00  0.00    +0.048 C 
ATOM     20  C   UNL     1      10.557   3.433  -6.473  0.00  0.00    +0.229 C 
ENDBRANCH  18  20
ENDBRANCH  16  18
ENDBRANCH   5  16
ENDBRANCH   1   9
BRANCH   2  21
ATOM     21  C   UNL     1       6.421   0.466  -2.337  0.00  0.00    +0.214 C 
BRANCH  21  22
ATOM     22  N   UNL     1       5.494   0.124  -1.256  0.00  0.00    -0.215 N 
ATOM     23  C   UNL     1       4.348  -0.566  -1.429  0.00  0.00    +0.251 C 
ATOM     24  O   UNL     1       3.905  -1.002  -2.470  0.00  0.00    -0.272 OA
ATOM     25  C   UNL     1       3.731  -0.679  -0.053  0.00  0.00    +0.138 C 
ATOM     26  C   UNL     1       3.614  -2.143   0.354  0.00  0.00    +0.040 C 
ATOM     27  C   UNL     1       2.490  -2.786  -0.467  0.00  0.00    +0.008 C 
ATOM     28  C   UNL     1       1.157  -2.199  -0.006  0.00  0.00    +0.035 C 
ATOM     29  C   UNL     1       1.207  -0.693  -0.013  0.00  0.00    -0.042 A 
ATOM     30  C   UNL     1       2.394   0.007  -0.026  0.00  0.00    -0.012 A 
ATOM     31  C   UNL     1       2.373   1.395  -0.016  0.00  0.00    +0.006 A 
ATOM     32  C   UNL     1       1.174   2.078   0.002  0.00  0.00    +0.000 A 
ATOM     33  C   UNL     1      -0.017   1.376   0.010  0.00  0.00    +0.000 A 
ATOM     34  C   UNL     1       0.002  -0.004   0.002  0.00  0.00    +0.004 A 
ATOM     35  N   UNL     1       4.682   0.022   0.820  0.00  0.00    -0.281 N 
ATOM     36  C   UNL     1       5.679   0.456   0.028  0.00  0.00    +0.310 C 
ATOM     37  O   UNL     1       6.641   1.081   0.432  0.00  0.00    -0.252 OA
ATOM     38  H   UNL     1       4.606   0.147   1.779  0.00  0.00    +0.152 HD
ENDBRANCH  21  22
ENDBRANCH   2  21
TORSDOF 7
