REMARK  Name = ZINC20394789
REMARK  16 active torsions:
REMARK  status: ('A' for Active; 'I' for Inactive)
REMARK    1  A    between atoms: C_1  and  C_2
REMARK    2  A    between atoms: C_5  and  N_9
REMARK    3  A    between atoms: C_7  and  C_8
REMARK    4  A    between atoms: N_9  and  C_10
REMARK    5  A    between atoms: C_10  and  N_12
REMARK    6  A    between atoms: N_12  and  C_13
REMARK    7  A    between atoms: C_13  and  C_14
REMARK    8  A    between atoms: C_14  and  C_35
REMARK    9  A    between atoms: C_16  and  N_23
REMARK   10  A    between atoms: C_19  and  C_21
REMARK   11  A    between atoms: C_19  and  C_22
REMARK   12  A    between atoms: N_23  and  C_24
REMARK   13  A    between atoms: C_24  and  N_26
REMARK   14  A    between atoms: N_26  and  C_27
REMARK   15  A    between atoms: C_30  and  C_34
REMARK   16  A    between atoms: C_31  and  C_33
REMARK                            x       y       z     vdW  Elec       q    Type
REMARK                         _______ _______ _______ _____ _____    ______ ____
ROOT
ATOM      1  C   UNL     1       0.799   4.334   8.606  0.00  0.00    -0.014 C 
ATOM      2  C   UNL     1       2.014   4.969   7.952  0.00  0.00    +0.030 C 
ATOM      3  C   UNL     1       2.886   5.759   8.911  0.00  0.00    +0.073 C 
ATOM      4  C   UNL     1       2.088   6.754   9.732  0.00  0.00    +0.028 C 
ATOM      5  C   UNL     1       0.874   6.153  10.419  0.00  0.00    -0.033 C 
ATOM      6  C   UNL     1       0.032   5.292   9.498  0.00  0.00    +0.014 C 
ATOM      7  C   UNL     1       1.286   5.381  11.675  0.00  0.00    +0.011 C 
ATOM      8  C   UNL     1      -0.015   7.330  10.892  0.00  0.00    +0.011 C 
ATOM      9  C   UNL     1       1.191   3.064   9.365  0.00  0.00    +0.013 C 
ENDROOT
BRANCH   3  10
ATOM     10  N   UNL     1       3.699   4.885   9.753  0.00  0.00    -0.323 N 
ATOM     11  H   UNL     1       3.370   3.856   9.957  0.00  0.00    +0.148 HD
BRANCH  10  12
ATOM     12  C   UNL     1       4.853   5.341  10.280  0.00  0.00    +0.135 C 
ATOM     13  S   UNL     1       5.365   6.943   9.963  0.00  0.00    -0.019 S 
BRANCH  12  14
ATOM     14  N   UNL     1       5.603   4.535  11.057  0.00  0.00    -0.297 N 
ATOM     15  H   UNL     1       5.314   3.483  11.200  0.00  0.00    +0.154 HD
BRANCH  14  16
ATOM     16  C   UNL     1       6.750   5.036  11.682  0.00  0.00    +0.033 A 
ATOM     17  C   UNL     1       6.998   4.746  13.018  0.00  0.00    +0.023 A 
ATOM     18  C   UNL     1       8.131   5.242  13.631  0.00  0.00    +0.005 A 
ATOM     19  C   UNL     1       9.019   6.027  12.918  0.00  0.00    -0.047 A 
ATOM     20  C   UNL     1       8.776   6.317  11.588  0.00  0.00    -0.046 A 
ATOM     21  C   UNL     1       7.647   5.819  10.966  0.00  0.00    +0.027 A 
ATOM     22  C   UNL     1       9.746   7.171  10.814  0.00  0.00    +0.044 C 
ATOM     23  C   UNL     1      10.255   6.566  13.591  0.00  0.00    +0.044 C 
ENDBRANCH  14  16
ENDBRANCH  12  14
ENDBRANCH  10  12
ENDBRANCH   3  10
BRANCH   1  24
ATOM     24  C   UNL     1      -0.157   3.896   7.468  0.00  0.00    +0.110 C 
BRANCH  24  25
ATOM     25  N   UNL     1       0.524   2.931   6.602  0.00  0.00    -0.326 N 
ATOM     26  H   UNL     1       1.561   2.633   6.820  0.00  0.00    +0.148 HD
BRANCH  25  27
ATOM     27  C   UNL     1      -0.118   2.409   5.539  0.00  0.00    +0.135 C 
ATOM     28  S   UNL     1      -1.731   2.873   5.200  0.00  0.00    -0.019 S 
BRANCH  27  29
ATOM     29  N   UNL     1       0.509   1.521   4.742  0.00  0.00    -0.297 N 
ATOM     30  H   UNL     1       1.506   1.145   5.015  0.00  0.00    +0.154 HD
BRANCH  29  35
ATOM     31  C   UNL     1      -2.003  -0.280  -0.015  0.00  0.00    +0.044 C 
ATOM     32  C   UNL     1      -1.333   0.200   1.247  0.00  0.00    -0.047 A 
ATOM     33  C   UNL     1      -0.600  -0.685   2.018  0.00  0.00    +0.005 A 
ATOM     34  C   UNL     1       0.010  -0.250   3.178  0.00  0.00    +0.023 A 
ATOM     35  C   UNL     1      -0.107   1.078   3.567  0.00  0.00    +0.033 A 
ATOM     36  C   UNL     1      -0.839   1.964   2.788  0.00  0.00    +0.027 A 
ATOM     37  C   UNL     1      -1.447   1.523   1.629  0.00  0.00    -0.046 A 
ATOM     38  C   UNL     1      -2.242   2.485   0.783  0.00  0.00    +0.044 C 
ENDBRANCH  29  35
ENDBRANCH  27  29
ENDBRANCH  25  27
ENDBRANCH  24  25
ENDBRANCH   1  24
TORSDOF 9
