REMARK  Name = ZINC17575873
REMARK  8 active torsions:
REMARK  status: ('A' for Active; 'I' for Inactive)
REMARK    1  A    between atoms: C_1  and  N_2
REMARK    2  A    between atoms: N_2  and  C_3
REMARK    3  A    between atoms: N_2  and  S_9
REMARK    4  A    between atoms: S_9  and  C_12
REMARK    5  A    between atoms: C_15  and  C_18
REMARK    6  A    between atoms: N_20  and  N_21
REMARK    7  A    between atoms: C_22  and  C_24
REMARK    8  A    between atoms: C_29  and  O_30
REMARK                            x       y       z     vdW  Elec       q    Type
REMARK                         _______ _______ _______ _____ _____    ______ ____
ROOT
ATOM      1  C   UNL     1       1.682  -1.059  -1.905  0.00  0.00    +0.106 A 
ATOM      2  C   UNL     1       2.321  -0.106  -2.678  0.00  0.00    +0.029 A 
ATOM      3  C   UNL     1       3.638  -0.284  -3.048  0.00  0.00    +0.015 A 
ATOM      4  C   UNL     1       4.326  -1.429  -2.641  0.00  0.00    +0.038 A 
ATOM      5  C   UNL     1       3.675  -2.386  -1.861  0.00  0.00    +0.015 A 
ATOM      6  C   UNL     1       2.359  -2.194  -1.494  0.00  0.00    +0.029 A 
ENDROOT
BRANCH   4   7
ATOM      7  C   UNL     1       5.737  -1.626  -3.034  0.00  0.00    +0.260 C 
ATOM      8  O   UNL     1       6.302  -0.790  -3.713  0.00  0.00    -0.269 OA
ATOM      9  N   UNL     1       6.399  -2.732  -2.639  0.00  0.00    -0.230 N 
ATOM     10  H   UNL     1       5.948  -3.399  -2.097  0.00  0.00    +0.173 HD
BRANCH   9  11
ATOM     11  N   UNL     1       7.736  -2.919  -3.012  0.00  0.00    -0.230 N 
ATOM     12  C   UNL     1       8.397  -4.025  -2.617  0.00  0.00    +0.264 C 
ATOM     13  O   UNL     1       7.833  -4.861  -1.938  0.00  0.00    -0.269 OA
ATOM     14  H   UNL     1       8.186  -2.252  -3.554  0.00  0.00    +0.173 HD
BRANCH  12  15
ATOM     15  C   UNL     1       9.806  -4.222  -3.010  0.00  0.00    +0.079 A 
ATOM     16  C   UNL     1      10.460  -3.261  -3.785  0.00  0.00    +0.017 A 
ATOM     17  C   UNL     1      11.776  -3.451  -4.148  0.00  0.00    +0.001 A 
ATOM     18  C   UNL     1      12.454  -4.591  -3.747  0.00  0.00    +0.004 A 
ATOM     19  C   UNL     1      11.819  -5.548  -2.981  0.00  0.00    +0.046 A 
ATOM     20  C   UNL     1      10.497  -5.371  -2.602  0.00  0.00    +0.129 A 
BRANCH  20  21
ATOM     21  O   UNL     1       9.874  -6.308  -1.844  0.00  0.00    -0.506 OA
ATOM     22  H   UNL     1       9.431  -6.997  -2.357  0.00  0.00    +0.292 HD
ENDBRANCH  20  21
ENDBRANCH  12  15
ENDBRANCH   9  11
ENDBRANCH   4   7
BRANCH   1  23
ATOM     23  S   UNL     1      -0.000  -0.824  -1.437  0.00  0.00    +0.061 S 
ATOM     24  O   UNL     1      -0.531  -2.115  -1.167  0.00  0.00    -0.153 OA
ATOM     25  O   UNL     1      -0.572   0.049  -2.401  0.00  0.00    -0.153 OA
BRANCH  23  27
ATOM     26  C   UNL     1      -0.018   1.461   0.010  0.00  0.00    +0.132 C 
ATOM     27  N   UNL     1       0.002  -0.004   0.002  0.00  0.00    -0.177 NA
BRANCH  27  28
ATOM     28  C   UNL     1       0.024  -0.743   1.267  0.00  0.00    +0.080 C 
ATOM     29  C   UNL     1      -1.222  -0.395   2.083  0.00  0.00    +0.020 C 
ATOM     30  C   UNL     1      -1.199  -1.167   3.404  0.00  0.00    +0.002 C 
ATOM     31  C   UNL     1       0.052  -0.785   4.196  0.00  0.00    +0.000 C 
ATOM     32  C   UNL     1       1.299  -1.133   3.380  0.00  0.00    +0.002 C 
ATOM     33  C   UNL     1       1.276  -0.361   2.059  0.00  0.00    +0.020 C 
ENDBRANCH  27  28
ENDBRANCH  23  27
ENDBRANCH   1  23
TORSDOF 7
