REMARK  Name = ZINC06191671
REMARK  5 active torsions:
REMARK  status: ('A' for Active; 'I' for Inactive)
REMARK    1  A    between atoms: C_11  and  N_27
REMARK    2  A    between atoms: C_13  and  N_60
REMARK    3  A    between atoms: C_20  and  C_22
REMARK    4  A    between atoms: N_27  and  S_28
REMARK    5  A    between atoms: S_28  and  C_31
REMARK                            x       y       z     vdW  Elec       q    Type
REMARK                         _______ _______ _______ _____ _____    ______ ____
ROOT
ATOM      1  C   UNL     1       4.188   2.430   0.118  0.00  0.00    +0.001 A 
ATOM      2  C   UNL     1       3.366   3.512   0.246  0.00  0.00    +0.008 A 
ATOM      3  C   UNL     1       1.977   3.308   0.269  0.00  0.00    -0.017 A 
ATOM      4  C   UNL     1       1.027   4.335   0.394  0.00  0.00    +0.008 A 
ATOM      5  C   UNL     1      -0.298   4.009   0.403  0.00  0.00    +0.001 A 
ATOM      6  C   UNL     1      -0.743   2.689   0.288  0.00  0.00    +0.003 A 
ATOM      7  C   UNL     1       0.151   1.670   0.170  0.00  0.00    -0.051 A 
ATOM      8  C   UNL     1       1.505   1.988   0.158  0.00  0.00    -0.012 A 
ATOM      9  C   UNL     1       2.356   0.894   0.029  0.00  0.00    -0.022 A 
ATOM     10  C   UNL     1       3.697   1.127   0.009  0.00  0.00    +0.006 A 
ATOM     11  C   UNL     1       1.492  -0.340  -0.061  0.00  0.00    +0.098 C 
ATOM     12  C   UNL     1       0.038   0.171   0.032  0.00  0.00    -0.014 C 
ENDROOT
BRANCH  12  20
ATOM     13  C   UNL     1      -2.072  -0.121   1.183  0.00  0.00    -0.059 C 
ATOM     14  C   UNL     1      -2.757  -0.881   2.324  0.00  0.00    +0.089 C 
ATOM     15  N   UNL     1      -2.080  -0.541   3.584  0.00  0.00    -0.299 N 
ATOM     16  C   UNL     1      -0.616  -0.664   3.643  0.00  0.00    +0.089 C 
ATOM     17  C   UNL     1      -0.015   0.088   2.451  0.00  0.00    -0.059 C 
ATOM     18  C   UNL     1      -2.783  -0.127   4.657  0.00  0.00    +0.282 C 
ATOM     19  O   UNL     1      -2.202   0.261   5.653  0.00  0.00    -0.267 OA
ATOM     20  N   UNL     1      -0.626  -0.430   1.207  0.00  0.00    +0.388 N 
ATOM     21  H   UNL     1      -0.503  -1.449   1.175  0.00  0.00    -0.081 HD
BRANCH  18  22
ATOM     22  C   UNL     1      -4.249  -0.142   4.623  0.00  0.00    +0.189 A 
ATOM     23  C   UNL     1      -5.079   0.372   5.577  0.00  0.00    +0.054 A 
ATOM     24  C   UNL     1      -6.392   0.140   5.138  0.00  0.00    +0.042 A 
ATOM     25  C   UNL     1      -6.307  -0.498   3.950  0.00  0.00    +0.196 A 
ATOM     26  O   UNL     1      -5.014  -0.662   3.641  0.00  0.00    -0.458 OA
ENDBRANCH  18  22
ENDBRANCH  12  20
BRANCH  11  27
ATOM     27  N   UNL     1       1.710  -1.020  -1.341  0.00  0.00    -0.184 NA
ATOM     28  H   UNL     1       1.264  -0.703  -2.141  0.00  0.00    +0.149 HD
BRANCH  27  29
ATOM     29  S   UNL     1       2.719  -2.331  -1.420  0.00  0.00    +0.059 S 
ATOM     30  O   UNL     1       2.701  -2.776  -2.770  0.00  0.00    -0.153 OA
ATOM     31  O   UNL     1       3.920  -1.960  -0.757  0.00  0.00    -0.153 OA
BRANCH  29  32
ATOM     32  C   UNL     1       1.986  -3.612  -0.458  0.00  0.00    +0.105 A 
ATOM     33  C   UNL     1       2.289  -3.725   0.886  0.00  0.00    +0.030 A 
ATOM     34  C   UNL     1       1.710  -4.726   1.643  0.00  0.00    +0.022 A 
ATOM     35  C   UNL     1       0.836  -5.622   1.053  0.00  0.00    +0.041 A 
ATOM     36  C   UNL     1       0.538  -5.511  -0.293  0.00  0.00    +0.022 A 
ATOM     37  C   UNL     1       1.113  -4.506  -1.048  0.00  0.00    +0.030 A 
ATOM     38 CL   UNL     1       0.115  -6.884   2.002  0.00  0.00    -0.084 Cl
ENDBRANCH  29  32
ENDBRANCH  27  29
ENDBRANCH  11  27
TORSDOF 5
