REMARK  Name = ZINC67305335
REMARK  3 active torsions:
REMARK  status: ('A' for Active; 'I' for Inactive)
REMARK    1  A    between atoms: C_4  and  N_6
REMARK    2  A    between atoms: C_9  and  N_12
REMARK    3  A    between atoms: C_13  and  C_15
REMARK                            x       y       z     vdW  Elec       q    Type
REMARK                         _______ _______ _______ _____ _____    ______ ____
ROOT
ATOM      1  N   UNL     1       4.040  -3.949  -0.210  0.00  0.00    -0.314 N 
ATOM      2  C   UNL     1       4.642  -5.153  -0.158  0.00  0.00    +0.216 C 
ATOM      3  O   UNL     1       4.532  -5.845   0.833  0.00  0.00    -0.276 OA
ATOM      4  H   UNL     1       4.128  -3.396  -1.002  0.00  0.00    +0.149 HD
ENDROOT
BRANCH   2   5
ATOM      5  C   UNL     1       5.454  -5.641  -1.330  0.00  0.00    +0.075 C 
ATOM      6  C   UNL     1       4.559  -5.728  -2.569  0.00  0.00    +0.015 C 
ATOM      7  C   UNL     1       5.387  -6.212  -3.762  0.00  0.00    +0.036 C 
ATOM      8  C   UNL     1       5.984  -7.579  -3.449  0.00  0.00    +0.112 C 
ATOM      9  C   UNL     1       6.859  -7.514  -2.202  0.00  0.00    +0.036 C 
ATOM     10  C   UNL     1       6.025  -7.025  -1.015  0.00  0.00    +0.015 C 
ATOM     11  C   UNL     1       4.889  -8.606  -3.273  0.00  0.00    +0.244 C 
ATOM     12  O   UNL     1       4.009  -8.604  -2.440  0.00  0.00    -0.273 OA
ATOM     13  N   UNL     1       5.099  -9.525  -4.238  0.00  0.00    -0.238 N 
ATOM     14  C   UNL     1       6.165  -9.219  -4.987  0.00  0.00    +0.307 C 
ATOM     15  O   UNL     1       6.553  -9.896  -5.919  0.00  0.00    -0.252 OA
ATOM     16  N   UNL     1       6.758  -8.076  -4.594  0.00  0.00    -0.285 N 
ATOM     17  H   UNL     1       4.546 -10.311  -4.371  0.00  0.00    +0.159 HD
ATOM     18  H   UNL     1       7.542  -7.663  -4.989  0.00  0.00    +0.151 HD
ENDBRANCH   2   5
BRANCH   1  22
ATOM     19  N   UNL     1       1.692  -1.617   0.819  0.00  0.00    +0.383 N 
ATOM     20  C   UNL     1       1.047  -2.798   0.191  0.00  0.00    -0.077 C 
ATOM     21  C   UNL     1       1.798  -3.993   0.830  0.00  0.00    +0.002 C 
ATOM     22  C   UNL     1       3.251  -3.475   0.930  0.00  0.00    +0.055 C 
ATOM     23  C   UNL     1       3.133  -1.940   0.900  0.00  0.00    -0.056 C 
ATOM     24  H   UNL     1       1.317  -1.464   1.743  0.00  0.00    -0.081 HD
BRANCH  19  28
ATOM     25  C   UNL     1      -0.019   1.534   0.011  0.00  0.00    -0.002 C 
ATOM     26  C   UNL     1       1.453   1.995  -0.001  0.00  0.00    -0.002 C 
ATOM     27  C   UNL     1       2.232   0.792   0.586  0.00  0.00    -0.015 C 
ATOM     28  C   UNL     1       1.486  -0.425  -0.014  0.00  0.00    -0.069 C 
ATOM     29  C   UNL     1       0.002  -0.004   0.002  0.00  0.00    -0.015 C 
ENDBRANCH  19  28
ENDBRANCH   1  22
TORSDOF 3
