REMARK  Name = ZINC39656894
REMARK  5 active torsions:
REMARK  status: ('A' for Active; 'I' for Inactive)
REMARK    1  A    between atoms: C_1  and  C_2
REMARK    2  A    between atoms: C_2  and  C_4
REMARK    3  A    between atoms: C_2  and  N_11
REMARK    4  A    between atoms: C_12  and  C_14
REMARK    5  A    between atoms: C_25  and  C_27
REMARK                            x       y       z     vdW  Elec       q    Type
REMARK                         _______ _______ _______ _____ _____    ______ ____
ROOT
ATOM      1  C   UNL     1       2.868  -1.320   3.044  0.00  0.00    +0.100 C 
ATOM      2  C   UNL     1       2.240  -2.731   3.096  0.00  0.00    +0.121 C 
ATOM      3  N   UNL     1       3.211  -3.599   2.389  0.00  0.00    -0.296 N 
ATOM      4  C   UNL     1       4.537  -3.097   2.822  0.00  0.00    +0.115 C 
ATOM      5  C   UNL     1       4.376  -1.564   2.868  0.00  0.00    -0.004 C 
ATOM      6  C   UNL     1       5.146  -0.987   4.051  0.00  0.00    -0.010 C 
ATOM      7  C   UNL     1       6.647  -1.190   3.825  0.00  0.00    -0.082 C 
ATOM      8  N   UNL     1       7.051  -0.525   2.581  0.00  0.00    +0.379 N 
ATOM      9  C   UNL     1       6.375  -1.149   1.437  0.00  0.00    -0.082 C 
ATOM     10  C   UNL     1       4.862  -0.944   1.562  0.00  0.00    -0.010 C 
ATOM     11  C   UNL     1       2.949  -4.615   1.544  0.00  0.00    +0.247 C 
ATOM     12  O   UNL     1       1.806  -4.829   1.187  0.00  0.00    -0.270 OA
ATOM     13  H   UNL     1       6.801   0.451   2.626  0.00  0.00    -0.086 HD
ATOM     14  H   UNL     1       8.050  -0.608   2.465  0.00  0.00    -0.086 HD
ENDROOT
BRANCH  11  15
ATOM     15  C   UNL     1       4.049  -5.470   1.051  0.00  0.00    +0.037 A 
ATOM     16  C   UNL     1       5.254  -5.534   1.752  0.00  0.00    +0.014 A 
ATOM     17  C   UNL     1       6.277  -6.334   1.288  0.00  0.00    +0.021 A 
ATOM     18  C   UNL     1       6.111  -7.072   0.128  0.00  0.00    +0.041 A 
ATOM     19  C   UNL     1       4.917  -7.013  -0.572  0.00  0.00    +0.021 A 
ATOM     20  C   UNL     1       3.885  -6.221  -0.114  0.00  0.00    +0.014 A 
ATOM     21 CL   UNL     1       7.404  -8.075  -0.451  0.00  0.00    -0.084 Cl
ENDBRANCH  11  15
BRANCH   1  23
ATOM     22  N   UNL     1       2.336   0.802   1.889  0.00  0.00    -0.308 N 
ATOM     23  C   UNL     1       2.321  -0.546   1.872  0.00  0.00    +0.219 C 
ATOM     24  O   UNL     1       1.868  -1.135   0.914  0.00  0.00    -0.275 OA
ATOM     25  H   UNL     1       2.698   1.273   2.655  0.00  0.00    +0.149 HD
BRANCH  22  27
ATOM     26  C   UNL     1       2.892   1.702  -0.316  0.00  0.00    +0.033 C 
ATOM     27  C   UNL     1       1.804   1.554   0.750  0.00  0.00    +0.100 C 
BRANCH  27  28
ATOM     28  C   UNL     1       1.364   2.920   1.211  0.00  0.00    -0.027 A 
ATOM     29  C   UNL     1       2.127   3.618   2.128  0.00  0.00    +0.006 A 
ATOM     30  C   UNL     1       1.724   4.871   2.551  0.00  0.00    +0.015 A 
ATOM     31  C   UNL     1       0.557   5.426   2.057  0.00  0.00    +0.018 A 
ATOM     32  C   UNL     1      -0.205   4.726   1.139  0.00  0.00    +0.015 A 
ATOM     33  C   UNL     1       0.201   3.476   0.712  0.00  0.00    +0.006 A 
ATOM     34 BR   UNL     1       0.005   7.139   2.635  0.00  0.00    -0.050 Br
ENDBRANCH  27  28
ENDBRANCH  22  27
ENDBRANCH   1  23
TORSDOF 4
