REMARK  Name = ZINC64667193
REMARK  2 active torsions:
REMARK  status: ('A' for Active; 'I' for Inactive)
REMARK    1  A    between atoms: C_4  and  N_7
REMARK    2  A    between atoms: C_12  and  C_18
REMARK                            x       y       z     vdW  Elec       q    Type
REMARK                         _______ _______ _______ _____ _____    ______ ____
ROOT
ATOM      1  N   UNL     1       3.623  -0.652  -0.037  0.00  0.00    -0.218 N 
ATOM      2  C   UNL     1       3.889  -1.825   0.573  0.00  0.00    +0.132 A 
ATOM      3  C   UNL     1       5.197  -2.141   0.312  0.00  0.00    +0.020 A 
ATOM      4  C   UNL     1       5.730  -1.135  -0.479  0.00  0.00    +0.141 A 
ATOM      5  N   UNL     1       4.793  -0.241  -0.698  0.00  0.00    -0.173 NA
ATOM      6  C   UNL     1       5.843  -3.393   0.846  0.00  0.00    +0.064 C 
ATOM      7  C   UNL     1       5.157  -3.765   2.164  0.00  0.00    +0.109 C 
ATOM      8  C   UNL     1       3.664  -3.632   2.063  0.00  0.00    +0.219 C 
ATOM      9  O   UNL     1       2.965  -4.433   2.646  0.00  0.00    -0.275 OA
ATOM     10  N   UNL     1       3.075  -2.651   1.347  0.00  0.00    -0.270 N 
ATOM     11  H   UNL     1       2.113  -2.525   1.369  0.00  0.00    +0.156 HD
ENDROOT
BRANCH   6  12
ATOM     12  C   UNL     1       5.676  -4.514  -0.148  0.00  0.00    -0.025 A 
ATOM     13  C   UNL     1       4.410  -4.923  -0.522  0.00  0.00    +0.005 A 
ATOM     14  C   UNL     1       4.257  -5.951  -1.434  0.00  0.00    +0.000 A 
ATOM     15  C   UNL     1       5.370  -6.570  -1.972  0.00  0.00    +0.001 A 
ATOM     16  C   UNL     1       6.636  -6.162  -1.598  0.00  0.00    +0.015 A 
ATOM     17  C   UNL     1       6.790  -5.130  -0.689  0.00  0.00    +0.022 A 
ATOM     18 BR   UNL     1       8.522  -4.565  -0.182  0.00  0.00    -0.050 Br
ENDBRANCH   6  12
BRANCH   1  22
ATOM     19  C   UNL     1      -0.017   1.379   0.010  0.00  0.00    +0.000 A 
ATOM     20  C   UNL     1       1.170   2.089   0.002  0.00  0.00    +0.002 A 
ATOM     21  C   UNL     1       2.377   1.419  -0.013  0.00  0.00    +0.028 A 
ATOM     22  C   UNL     1       2.399   0.031  -0.021  0.00  0.00    +0.067 A 
ATOM     23  C   UNL     1       1.207  -0.680  -0.013  0.00  0.00    +0.028 A 
ATOM     24  C   UNL     1       0.002  -0.004   0.002  0.00  0.00    +0.002 A 
ENDBRANCH   1  22
TORSDOF 2
