REMARK  Name = ZINC14670230
REMARK  15 active torsions:
REMARK  status: ('A' for Active; 'I' for Inactive)
REMARK    1  A    between atoms: C_1  and  C_2
REMARK    2  A    between atoms: C_2  and  C_3
REMARK    3  A    between atoms: C_3  and  C_4
REMARK    4  A    between atoms: C_4  and  N_5
REMARK    5  A    between atoms: C_6  and  N_34
REMARK    6  A    between atoms: C_7  and  N_14
REMARK    7  A    between atoms: N_14  and  C_15
REMARK    8  A    between atoms: C_15  and  C_16
REMARK    9  A    between atoms: C_16  and  C_17
REMARK   10  A    between atoms: C_16  and  C_18
REMARK   11  A    between atoms: C_19  and  C_21
REMARK   12  A    between atoms: C_21  and  C_22
REMARK   13  A    between atoms: C_22  and  C_23
REMARK   14  A    between atoms: C_23  and  N_24
REMARK   15  A    between atoms: C_25  and  C_27
REMARK                            x       y       z     vdW  Elec       q    Type
REMARK                         _______ _______ _______ _____ _____    ______ ____
ROOT
ATOM      1  N   UNL     1      -1.375  -4.967  -2.611  0.00  0.00    -0.264 N 
ATOM      2  C   UNL     1      -1.443  -4.654  -3.922  0.00  0.00    +0.220 C 
ATOM      3  O   UNL     1      -1.520  -3.493  -4.265  0.00  0.00    -0.275 OA
ENDROOT
BRANCH   1   6
ATOM      4  N   UNL     1      -0.740  -1.950  -0.614  0.00  0.00    -0.280 N 
ATOM      5  C   UNL     1      -0.593  -2.918  -1.579  0.00  0.00    +0.127 A 
ATOM      6  C   UNL     1      -1.502  -3.955  -1.637  0.00  0.00    +0.140 A 
ATOM      7  C   UNL     1      -2.561  -3.982  -0.710  0.00  0.00    +0.277 A 
ATOM      8  O   UNL     1      -3.381  -4.884  -0.742  0.00  0.00    -0.266 OA
ATOM      9  N   UNL     1      -2.663  -3.005   0.212  0.00  0.00    -0.273 N 
ATOM     10  H   UNL     1      -3.415  -3.023   0.871  0.00  0.00    +0.173 HD
ATOM     11  C   UNL     1      -1.764  -2.006   0.257  0.00  0.00    +0.331 A 
ATOM     12  O   UNL     1      -1.879  -1.137   1.100  0.00  0.00    -0.246 OA
BRANCH   5  13
ATOM     13  N   UNL     1       0.450  -2.858  -2.472  0.00  0.00    -0.343 N 
ATOM     14  H   UNL     1       1.125  -2.167  -2.383  0.00  0.00    +0.144 HD
ATOM     15  H   UNL     1       0.511  -3.506  -3.191  0.00  0.00    +0.144 HD
ENDBRANCH   5  13
BRANCH   4  16
ATOM     16  C   UNL     1       0.221  -0.847  -0.537  0.00  0.00    +0.128 C 
BRANCH  16  17
ATOM     17  C   UNL     1       1.369  -1.234   0.397  0.00  0.00    +0.021 C 
BRANCH  17  19
ATOM     18  C   UNL     1       3.521  -0.470   1.411  0.00  0.00    +0.004 C 
ATOM     19  C   UNL     1       2.373  -0.083   0.477  0.00  0.00    -0.002 C 
ENDBRANCH  17  19
ENDBRANCH  16  17
ENDBRANCH   4  16
ENDBRANCH   1   6
BRANCH   1  20
ATOM     20  C   UNL     1      -1.169  -6.358  -2.201  0.00  0.00    +0.117 C 
BRANCH  20  21
ATOM     21  C   UNL     1       0.330  -6.635  -2.070  0.00  0.00    +0.001 C 
ATOM     22  C   UNL     1       0.898  -5.825  -0.903  0.00  0.00    +0.009 C 
ATOM     23  C   UNL     1       0.553  -8.127  -1.812  0.00  0.00    +0.009 C 
ENDBRANCH  20  21
ENDBRANCH   1  20
BRANCH   2  24
ATOM     24  C   UNL     1      -1.425  -5.746  -4.960  0.00  0.00    +0.098 C 
BRANCH  24  25
ATOM     25  C   UNL     1      -1.386  -5.123  -6.356  0.00  0.00    +0.028 C 
BRANCH  25  26
ATOM     26  C   UNL     1      -1.367  -6.232  -7.410  0.00  0.00    +0.105 C 
BRANCH  26  27
ATOM     27  N   UNL     1      -1.331  -5.635  -8.747  0.00  0.00    -0.311 N 
ATOM     28  C   UNL     1      -1.309  -6.426  -9.838  0.00  0.00    +0.244 C 
ATOM     29  O   UNL     1      -1.319  -7.635  -9.713  0.00  0.00    -0.270 OA
ATOM     30  H   UNL     1      -1.322  -4.670  -8.848  0.00  0.00    +0.149 HD
BRANCH  28  31
ATOM     31  C   UNL     1      -1.272  -5.823 -11.187  0.00  0.00    +0.037 A 
ATOM     32  C   UNL     1      -1.265  -4.435 -11.335  0.00  0.00    +0.014 A 
ATOM     33  C   UNL     1      -1.224  -3.878 -12.596  0.00  0.00    +0.021 A 
ATOM     34  C   UNL     1      -1.202  -4.694 -13.715  0.00  0.00    +0.041 A 
ATOM     35  C   UNL     1      -1.214  -6.072 -13.575  0.00  0.00    +0.021 A 
ATOM     36  C   UNL     1      -1.249  -6.640 -12.319  0.00  0.00    +0.014 A 
ATOM     37 CL   UNL     1      -1.157  -3.986 -15.300  0.00  0.00    -0.084 Cl
ENDBRANCH  28  31
ENDBRANCH  26  27
ENDBRANCH  25  26
ENDBRANCH  24  25
ENDBRANCH   2  24
TORSDOF 12
