REMARK  Name = ZINC26534196
REMARK  10 active torsions:
REMARK  status: ('A' for Active; 'I' for Inactive)
REMARK    1  A    between atoms: C_4  and  N_7
REMARK    2  A    between atoms: N_7  and  N_8
REMARK    3  A    between atoms: N_8  and  C_9
REMARK    4  A    between atoms: C_9  and  C_11
REMARK    5  A    between atoms: C_9  and  C_29
REMARK    6  A    between atoms: C_11  and  C_12
REMARK    7  A    between atoms: C_12  and  C_21
REMARK    8  A    between atoms: N_13  and  N_14
REMARK    9  A    between atoms: N_14  and  C_15
REMARK   10  A    between atoms: C_26  and  O_27
REMARK                            x       y       z     vdW  Elec       q    Type
REMARK                         _______ _______ _______ _____ _____    ______ ____
ROOT
ATOM      1  C   UNL     1       7.077   0.268   0.204  0.00  0.00    +0.082 C 
ENDROOT
BRANCH   1   2
ATOM      2  C   UNL     1       5.843  -0.563  -0.037  0.00  0.00    +0.072 C 
ATOM      3  N   UNL     1       4.706   0.017  -0.272  0.00  0.00    -0.186 NA
BRANCH   2   4
ATOM      4  C   UNL     1       5.927  -2.034  -0.004  0.00  0.00    +0.040 A 
ATOM      5  C   UNL     1       5.258  -2.754   0.988  0.00  0.00    +0.028 A 
ATOM      6  C   UNL     1       5.340  -4.131   1.012  0.00  0.00    +0.019 A 
ATOM      7  C   UNL     1       6.085  -4.803   0.056  0.00  0.00    +0.019 A 
ATOM      8  C   UNL     1       6.752  -4.101  -0.930  0.00  0.00    +0.047 A 
ATOM      9  C   UNL     1       6.674  -2.719  -0.972  0.00  0.00    +0.126 A 
ATOM     10 BR   UNL     1       4.434  -5.106   2.356  0.00  0.00    -0.050 Br
BRANCH   9  11
ATOM     11  O   UNL     1       7.325  -2.029  -1.945  0.00  0.00    -0.506 OA
ATOM     12  H   UNL     1       7.911  -2.568  -2.704  0.00  0.00    +0.292 HD
ENDBRANCH   9  11
ENDBRANCH   2   4
BRANCH   3  13
ATOM     13  N   UNL     1       3.586  -0.750  -0.618  0.00  0.00    -0.238 N 
ATOM     14  H   UNL     1       3.685  -1.838  -0.751  0.00  0.00    +0.174 HD
BRANCH  13  15
ATOM     15  C   UNL     1       2.346  -0.136  -0.794  0.00  0.00    +0.048 A 
ATOM     16  C   UNL     1       1.234  -0.895  -1.137  0.00  0.00    +0.025 A 
ATOM     17  C   UNL     1       0.008  -0.284  -1.309  0.00  0.00    +0.002 A 
ATOM     18  C   UNL     1      -0.114   1.084  -1.141  0.00  0.00    +0.000 A 
ATOM     19  C   UNL     1       0.991   1.843  -0.800  0.00  0.00    +0.002 A 
ATOM     20  C   UNL     1       2.220   1.238  -0.626  0.00  0.00    +0.025 A 
ENDBRANCH  13  15
ENDBRANCH   3  13
ENDBRANCH   1   2
BRANCH   1  21
ATOM     21  C   UNL     1       7.565   0.054   1.638  0.00  0.00    +0.108 C 
BRANCH  21  22
ATOM     22  C   UNL     1       8.866   0.787   1.841  0.00  0.00    -0.028 A 
ATOM     23  C   UNL     1       8.861   2.149   2.077  0.00  0.00    +0.008 A 
ATOM     24  C   UNL     1      10.053   2.821   2.268  0.00  0.00    +0.038 A 
ATOM     25  C   UNL     1      11.253   2.132   2.214  0.00  0.00    +0.123 A 
ATOM     26  C   UNL     1      11.256   0.768   1.972  0.00  0.00    +0.038 A 
ATOM     27  C   UNL     1      10.063   0.097   1.787  0.00  0.00    +0.008 A 
ATOM     28  F   UNL     1      12.419   2.789   2.396  0.00  0.00    -0.205 F 
ENDBRANCH  21  22
BRANCH  21  29
ATOM     29  N   UNL     1       6.561   0.569   2.579  0.00  0.00    -0.235 NA
ATOM     30  H   UNL     1       6.692   1.555   2.744  0.00  0.00    +0.145 HD
BRANCH  29  31
ATOM     31  N   UNL     1       6.583  -0.132   3.751  0.00  0.00    -0.280 N 
ATOM     32  H   UNL     1       7.296  -0.959   3.884  0.00  0.00    +0.166 HD
BRANCH  31  36
ATOM     33  C   UNL     1       3.954   0.865   6.823  0.00  0.00    +0.000 A 
ATOM     34  C   UNL     1       4.849  -0.176   6.991  0.00  0.00    +0.002 A 
ATOM     35  C   UNL     1       5.723  -0.509   5.974  0.00  0.00    +0.024 A 
ATOM     36  C   UNL     1       5.701   0.202   4.781  0.00  0.00    +0.041 A 
ATOM     37  C   UNL     1       4.804   1.250   4.617  0.00  0.00    +0.024 A 
ATOM     38  C   UNL     1       3.930   1.575   5.636  0.00  0.00    +0.002 A 
ENDBRANCH  31  36
ENDBRANCH  29  31
ENDBRANCH  21  29
ENDBRANCH   1  21
TORSDOF 10
