REMARK  Name = ZINC02318433
REMARK  6 active torsions:
REMARK  status: ('A' for Active; 'I' for Inactive)
REMARK    1  A    between atoms: C_1  and  C_2
REMARK    2  A    between atoms: C_2  and  O_3
REMARK    3  A    between atoms: O_3  and  C_4
REMARK    4  A    between atoms: C_11  and  C_26
REMARK    5  A    between atoms: C_11  and  C_27
REMARK    6  A    between atoms: N_15  and  C_16
REMARK                            x       y       z     vdW  Elec       q    Type
REMARK                         _______ _______ _______ _____ _____    ______ ____
ROOT
ATOM      1  C   UNL     1      -0.348  -1.543   0.325  0.00  0.00    +0.122 A 
ATOM      2  C   UNL     1       0.537  -2.613   0.332  0.00  0.00    +0.046 A 
ATOM      3  C   UNL     1       0.092  -3.883   0.011  0.00  0.00    +0.014 A 
ATOM      4  C   UNL     1      -1.240  -4.071  -0.320  0.00  0.00    +0.007 A 
ATOM      5  C   UNL     1      -2.140  -3.004  -0.311  0.00  0.00    +0.039 A 
ATOM      6  C   UNL     1      -1.686  -1.734   0.011  0.00  0.00    +0.069 A 
ATOM      7  N   UNL     1      -3.489  -3.228  -0.597  0.00  0.00    -0.334 N 
ATOM      8  C   UNL     1      -3.859  -4.305  -1.523  0.00  0.00    +0.059 C 
ATOM      9  C   UNL     1      -3.000  -5.519  -1.230  0.00  0.00    +0.030 A 
ATOM     10  C   UNL     1      -1.749  -5.450  -0.683  0.00  0.00    +0.029 A 
ATOM     11  C   UNL     1      -0.886  -6.558  -0.431  0.00  0.00    +0.117 A 
ATOM     12  N   UNL     1       0.343  -6.495   0.073  0.00  0.00    -0.240 NA
ATOM     13  S   UNL     1      -1.752  -8.044  -0.914  0.00  0.00    -0.032 S 
ATOM     14  S   UNL     1      -3.491  -7.096  -1.549  0.00  0.00    -0.052 S 
ATOM     15  C   UNL     1      -3.623  -3.845  -2.963  0.00  0.00    +0.037 C 
ATOM     16  C   UNL     1      -5.334  -4.662  -1.332  0.00  0.00    +0.037 C 
ATOM     17  H   UNL     1      -4.175  -2.678  -0.186  0.00  0.00    +0.147 HD
ENDROOT
BRANCH  12  18
ATOM     18  C   UNL     1       0.563  -5.854   1.256  0.00  0.00    +0.068 A 
ATOM     19  C   UNL     1      -0.512  -5.536   2.094  0.00  0.00    +0.029 A 
ATOM     20  C   UNL     1      -0.283  -4.887   3.289  0.00  0.00    +0.025 A 
ATOM     21  C   UNL     1       1.007  -4.549   3.662  0.00  0.00    +0.076 A 
ATOM     22  C   UNL     1       2.078  -4.860   2.837  0.00  0.00    +0.144 A 
ATOM     23  C   UNL     1       1.864  -5.516   1.640  0.00  0.00    +0.067 A 
ATOM     24  F   UNL     1       3.334  -4.527   3.208  0.00  0.00    -0.204 F 
ATOM     25 CL   UNL     1       1.285  -3.733   5.168  0.00  0.00    -0.081 Cl
ENDBRANCH  12  18
BRANCH   1  26
ATOM     26  O   UNL     1       0.100  -0.297   0.634  0.00  0.00    -0.492 OA
BRANCH  26  28
ATOM     27  C   UNL     1       1.833   1.334   1.053  0.00  0.00    +0.048 C 
ATOM     28  C   UNL     1       1.506  -0.145   0.837  0.00  0.00    +0.225 C 
ENDBRANCH  26  28
ENDBRANCH   1  26
TORSDOF 3
