REMARK  Name = ZINC39665109
REMARK  7 active torsions:
REMARK  status: ('A' for Active; 'I' for Inactive)
REMARK    1  A    between atoms: C_1  and  C_2
REMARK    2  A    between atoms: C_2  and  C_4
REMARK    3  A    between atoms: C_2  and  O_28
REMARK    4  A    between atoms: C_4  and  N_5
REMARK    5  A    between atoms: C_6  and  C_8
REMARK    6  A    between atoms: C_19  and  C_21
REMARK    7  A    between atoms: O_28  and  C_29
REMARK                            x       y       z     vdW  Elec       q    Type
REMARK                         _______ _______ _______ _____ _____    ______ ____
ROOT
ATOM      1  C   UNL     1      -3.361  -3.110   0.551  0.00  0.00    +0.100 C 
ATOM      2  C   UNL     1      -2.658  -3.721  -0.682  0.00  0.00    +0.121 C 
ATOM      3  N   UNL     1      -3.547  -4.826  -1.111  0.00  0.00    -0.296 N 
ATOM      4  C   UNL     1      -4.917  -4.290  -0.927  0.00  0.00    +0.115 C 
ATOM      5  C   UNL     1      -4.843  -3.486   0.386  0.00  0.00    -0.004 C 
ATOM      6  C   UNL     1      -5.699  -2.227   0.281  0.00  0.00    -0.010 C 
ATOM      7  C   UNL     1      -7.174  -2.624   0.177  0.00  0.00    -0.082 C 
ATOM      8  N   UNL     1      -7.557  -3.403   1.361  0.00  0.00    +0.379 N 
ATOM      9  C   UNL     1      -6.795  -4.657   1.403  0.00  0.00    -0.082 C 
ATOM     10  C   UNL     1      -5.304  -4.345   1.559  0.00  0.00    -0.010 C 
ATOM     11  C   UNL     1      -3.191  -6.044  -1.565  0.00  0.00    +0.247 C 
ATOM     12  O   UNL     1      -2.022  -6.378  -1.558  0.00  0.00    -0.270 OA
ATOM     13  H   UNL     1      -7.365  -2.865   2.192  0.00  0.00    -0.086 HD
ATOM     14  H   UNL     1      -8.544  -3.611   1.319  0.00  0.00    -0.086 HD
ENDROOT
BRANCH  11  15
ATOM     15  C   UNL     1      -4.221  -6.974  -2.073  0.00  0.00    +0.037 A 
ATOM     16  C   UNL     1      -5.442  -6.481  -2.537  0.00  0.00    +0.014 A 
ATOM     17  C   UNL     1      -6.399  -7.354  -3.010  0.00  0.00    +0.021 A 
ATOM     18  C   UNL     1      -6.152  -8.717  -3.025  0.00  0.00    +0.041 A 
ATOM     19  C   UNL     1      -4.942  -9.211  -2.566  0.00  0.00    +0.021 A 
ATOM     20  C   UNL     1      -3.975  -8.348  -2.096  0.00  0.00    +0.014 A 
ATOM     21 CL   UNL     1      -7.362  -9.809  -3.621  0.00  0.00    -0.084 Cl
ENDBRANCH  11  15
BRANCH   1  23
ATOM     22  N   UNL     1      -3.158  -0.946   1.731  0.00  0.00    -0.312 N 
ATOM     23  C   UNL     1      -3.197  -1.612   0.560  0.00  0.00    +0.218 C 
ATOM     24  O   UNL     1      -3.100  -1.006  -0.486  0.00  0.00    -0.275 OA
ATOM     25  H   UNL     1      -3.236  -1.431   2.567  0.00  0.00    +0.149 HD
BRANCH  22  26
ATOM     26  C   UNL     1      -2.998   0.510   1.740  0.00  0.00    +0.148 C 
BRANCH  26  28
ATOM     27  C   UNL     1      -2.819   2.534   3.194  0.00  0.00    +0.053 C 
ATOM     28  C   UNL     1      -2.986   1.013   3.185  0.00  0.00    +0.187 C 
BRANCH  28  29
ATOM     29  O   UNL     1      -4.217   0.665   3.821  0.00  0.00    -0.488 OA
BRANCH  29  30
ATOM     30  C   UNL     1      -4.167   0.383   5.150  0.00  0.00    +0.121 A 
ATOM     31  C   UNL     1      -5.293  -0.098   5.801  0.00  0.00    +0.045 A 
ATOM     32  C   UNL     1      -5.239  -0.384   7.152  0.00  0.00    +0.004 A 
ATOM     33  C   UNL     1      -4.064  -0.192   7.854  0.00  0.00    +0.000 A 
ATOM     34  C   UNL     1      -2.940   0.288   7.207  0.00  0.00    +0.004 A 
ATOM     35  C   UNL     1      -2.987   0.570   5.856  0.00  0.00    +0.045 A 
ENDBRANCH  29  30
ENDBRANCH  28  29
ENDBRANCH  26  28
ENDBRANCH  22  26
ENDBRANCH   1  23
TORSDOF 6
