REMARK  Name = ZINC38547060
REMARK  7 active torsions:
REMARK  status: ('A' for Active; 'I' for Inactive)
REMARK    1  A    between atoms: C_1  and  C_2
REMARK    2  A    between atoms: C_2  and  C_3
REMARK    3  A    between atoms: C_5  and  C_17
REMARK    4  A    between atoms: C_6  and  N_8
REMARK    5  A    between atoms: C_9  and  C_11
REMARK    6  A    between atoms: C_17  and  C_19
REMARK    7  A    between atoms: C_17  and  N_25
REMARK                            x       y       z     vdW  Elec       q    Type
REMARK                         _______ _______ _______ _____ _____    ______ ____
ROOT
ATOM      1  C   UNL     1       0.542  -0.824   1.137  0.00  0.00    -0.008 A 
ATOM      2  C   UNL     1       0.108  -1.038   2.403  0.00  0.00    +0.019 A 
ATOM      3  C   UNL     1       1.029  -1.354   3.385  0.00  0.00    +0.006 A 
ATOM      4  C   UNL     1       2.346  -1.439   3.046  0.00  0.00    +0.077 A 
ATOM      5  S   UNL     1       2.302  -1.074   1.299  0.00  0.00    -0.078 S 
ENDROOT
BRANCH   4   6
ATOM      6  N   UNL     1       3.444  -1.738   3.855  0.00  0.00    -0.276 N 
ATOM      7  C   UNL     1       4.683  -1.774   3.324  0.00  0.00    +0.249 C 
ATOM      8  O   UNL     1       4.843  -1.544   2.141  0.00  0.00    -0.270 OA
ATOM      9  H   UNL     1       3.316  -1.922   4.799  0.00  0.00    +0.156 HD
BRANCH   7  10
ATOM     10  C   UNL     1       5.845  -2.091   4.180  0.00  0.00    +0.037 A 
ATOM     11  C   UNL     1       5.663  -2.361   5.537  0.00  0.00    +0.013 A 
ATOM     12  C   UNL     1       6.753  -2.657   6.330  0.00  0.00    +0.001 A 
ATOM     13  C   UNL     1       8.023  -2.687   5.783  0.00  0.00    +0.000 A 
ATOM     14  C   UNL     1       8.210  -2.420   4.438  0.00  0.00    +0.001 A 
ATOM     15  C   UNL     1       7.129  -2.128   3.633  0.00  0.00    +0.013 A 
ENDBRANCH   7  10
ENDBRANCH   4   6
BRANCH   1  17
ATOM     16  C   UNL     1      -0.354   1.050  -0.216  0.00  0.00    +0.009 C 
ATOM     17  C   UNL     1      -0.256  -0.471  -0.091  0.00  0.00    +0.039 C 
ENDBRANCH   1  17
BRANCH   3  18
ATOM     18  C   UNL     1       0.584  -1.599   4.804  0.00  0.00    +0.136 C 
BRANCH  18  19
ATOM     19  N   UNL     1      -0.655  -0.860   5.061  0.00  0.00    -0.320 N 
ATOM     20  C   UNL     1      -0.990  -0.496   6.360  0.00  0.00    +0.097 A 
ATOM     21  C   UNL     1      -0.141  -0.831   7.411  0.00  0.00    +0.041 A 
ATOM     22  C   UNL     1      -0.486  -0.462   8.698  0.00  0.00    +0.005 A 
ATOM     23  C   UNL     1      -1.673   0.232   8.893  0.00  0.00    +0.018 A 
ATOM     24  C   UNL     1      -2.468   0.531   7.805  0.00  0.00    +0.084 A 
ATOM     25  N   UNL     1      -2.110   0.172   6.586  0.00  0.00    -0.350 N 
ATOM     26  H   UNL     1      -1.242  -0.625   4.325  0.00  0.00    +0.148 HD
ATOM     27  H   UNL     1      -2.685   0.398   5.839  0.00  0.00    +0.166 HD
ENDBRANCH  18  19
BRANCH  18  28
ATOM     28  C   UNL     1       0.342  -3.072   5.007  0.00  0.00    -0.005 A 
ATOM     29  C   UNL     1       1.296  -3.860   5.632  0.00  0.00    +0.009 A 
ATOM     30  C   UNL     1       1.031  -5.211   5.798  0.00  0.00    +0.020 A 
ATOM     31  C   UNL     1      -0.168  -5.723   5.337  0.00  0.00    +0.111 A 
ATOM     32  N   UNL     1      -1.052  -4.943   4.747  0.00  0.00    -0.263 NA
ATOM     33  C   UNL     1      -0.836  -3.653   4.578  0.00  0.00    +0.116 A 
ENDBRANCH  18  28
ENDBRANCH   3  18
TORSDOF 6
