REMARK  Name = ZINC39671592
REMARK  6 active torsions:
REMARK  status: ('A' for Active; 'I' for Inactive)
REMARK    1  A    between atoms: C_1  and  C_2
REMARK    2  A    between atoms: C_4  and  C_9
REMARK    3  A    between atoms: C_5  and  C_8
REMARK    4  A    between atoms: C_13  and  C_22
REMARK    5  A    between atoms: N_24  and  C_25
REMARK    6  A    between atoms: C_25  and  C_26
REMARK                            x       y       z     vdW  Elec       q    Type
REMARK                         _______ _______ _______ _____ _____    ______ ____
ROOT
ATOM      1  C   UNL     1      -3.297  -0.332  -1.764  0.00  0.00    +0.247 C 
ATOM      2  O   UNL     1      -4.460  -0.567  -2.040  0.00  0.00    -0.270 OA
ATOM      3  N   UNL     1      -2.560   0.459  -2.569  0.00  0.00    -0.296 N 
ATOM      4  C   UNL     1      -1.114   0.765  -2.464  0.00  0.00    +0.121 C 
ATOM      5  C   UNL     1      -0.609   0.773  -3.925  0.00  0.00    +0.100 C 
ATOM      6  C   UNL     1      -1.859   1.073  -4.769  0.00  0.00    -0.004 C 
ATOM      7  C   UNL     1      -3.011   1.213  -3.763  0.00  0.00    +0.115 C 
ATOM      8  C   UNL     1      -1.673   2.373  -5.545  0.00  0.00    -0.010 C 
ATOM      9  C   UNL     1      -2.905   2.619  -6.422  0.00  0.00    -0.082 C 
ATOM     10  N   UNL     1      -3.081   1.494  -7.348  0.00  0.00    +0.379 N 
ATOM     11  C   UNL     1      -3.352   0.264  -6.595  0.00  0.00    -0.082 C 
ATOM     12  C   UNL     1      -2.139  -0.082  -5.726  0.00  0.00    -0.010 C 
ATOM     13  H   UNL     1      -3.856   1.687  -7.965  0.00  0.00    -0.086 HD
ATOM     14  H   UNL     1      -2.241   1.375  -7.894  0.00  0.00    -0.086 HD
ENDROOT
BRANCH   1  17
ATOM     15  C   UNL     1      -1.374  -2.835  -1.395  0.00  0.00    +0.046 C 
ATOM     16  C   UNL     1      -2.395  -2.346  -0.365  0.00  0.00    +0.182 C 
ATOM     17  C   UNL     1      -2.721  -0.888  -0.598  0.00  0.00    +0.066 C 
ATOM     18  C   UNL     1      -2.359  -0.219   0.513  0.00  0.00    +0.046 C 
ATOM     19  N   UNL     1      -1.837  -1.064   1.442  0.00  0.00    -0.269 N 
ATOM     20  O   UNL     1      -1.834  -2.396   0.955  0.00  0.00    -0.266 OA
ATOM     21  C   UNL     1      -2.512   1.268   0.702  0.00  0.00    +0.066 C 
ATOM     22  H   UNL     1      -1.513  -0.794   2.315  0.00  0.00    +0.194 HD
ENDBRANCH   1  17
BRANCH   5  23
ATOM     23  C   UNL     1      -0.036  -0.572  -4.290  0.00  0.00    +0.219 C 
ATOM     24  O   UNL     1      -0.505  -1.582  -3.808  0.00  0.00    -0.275 OA
ATOM     25  N   UNL     1       0.997  -0.653  -5.151  0.00  0.00    -0.309 N 
ATOM     26  H   UNL     1       1.372   0.154  -5.536  0.00  0.00    +0.149 HD
BRANCH  25  27
ATOM     27  C   UNL     1       1.554  -1.961  -5.506  0.00  0.00    +0.157 C 
BRANCH  27  28
ATOM     28  C   UNL     1       2.691  -1.776  -6.477  0.00  0.00    +0.034 A 
ATOM     29  H   UNL     1       1.711  -1.689  -8.313  0.00  0.00    +0.166 HD
ATOM     30  C   UNL     1       3.988  -1.704  -6.140  0.00  0.00    +0.032 A 
ATOM     31  C   UNL     1       4.744  -1.523  -7.382  0.00  0.00    -0.000 A 
ATOM     32  C   UNL     1       6.100  -1.385  -7.681  0.00  0.00    +0.010 A 
ATOM     33  C   UNL     1       6.496  -1.229  -8.980  0.00  0.00    +0.001 A 
ATOM     34  C   UNL     1       5.560  -1.206 -10.005  0.00  0.00    +0.002 A 
ATOM     35  C   UNL     1       4.216  -1.340  -9.732  0.00  0.00    +0.026 A 
ATOM     36  C   UNL     1       3.791  -1.500  -8.417  0.00  0.00    +0.047 A 
ATOM     37  N   UNL     1       2.554  -1.662  -7.834  0.00  0.00    -0.357 N 
ENDBRANCH  27  28
ENDBRANCH  25  27
ENDBRANCH   5  23
TORSDOF 4
