REMARK  Name = ZINC38361524
REMARK  14 active torsions:
REMARK  status: ('A' for Active; 'I' for Inactive)
REMARK    1  A    between atoms: C_1  and  C_2
REMARK    2  A    between atoms: C_2  and  C_4
REMARK    3  A    between atoms: C_2  and  N_16
REMARK    4  A    between atoms: N_6  and  C_7
REMARK    5  A    between atoms: C_10  and  C_13
REMARK    6  A    between atoms: N_16  and  C_17
REMARK    7  A    between atoms: C_17  and  C_19
REMARK    8  A    between atoms: C_17  and  C_29
REMARK    9  A    between atoms: C_22  and  C_25
REMARK   10  A    between atoms: C_25  and  C_26
REMARK   11  A    between atoms: C_26  and  C_27
REMARK   12  A    between atoms: C_26  and  C_28
REMARK   13  A    between atoms: C_29  and  C_30
REMARK   14  A    between atoms: C_29  and  C_31
REMARK                            x       y       z     vdW  Elec       q    Type
REMARK                         _______ _______ _______ _____ _____    ______ ____
ROOT
ATOM      1  C   UNL     1      -0.771  -2.686   1.204  0.00  0.00    -0.004 C 
ATOM      2  C   UNL     1       0.556  -1.931   1.303  0.00  0.00    +0.014 C 
ENDROOT
BRANCH   2   3
ATOM      3  C   UNL     1       1.456  -2.345   0.167  0.00  0.00    +0.203 C 
ATOM      4  O   UNL     1       1.849  -1.517  -0.627  0.00  0.00    -0.277 OA
ATOM      5  N   UNL     1       1.824  -3.635   0.034  0.00  0.00    -0.287 N 
ATOM      6  H   UNL     1       1.451  -4.309   0.624  0.00  0.00    +0.155 HD
BRANCH   5   7
ATOM      7  C   UNL     1       2.740  -4.000  -0.951  0.00  0.00    +0.033 A 
ATOM      8  C   UNL     1       3.764  -3.126  -1.305  0.00  0.00    +0.024 A 
ATOM      9  C   UNL     1       4.671  -3.484  -2.277  0.00  0.00    +0.015 A 
ATOM     10  C   UNL     1       4.563  -4.726  -2.908  0.00  0.00    +0.037 A 
ATOM     11  C   UNL     1       3.534  -5.601  -2.550  0.00  0.00    +0.015 A 
ATOM     12  C   UNL     1       2.633  -5.239  -1.574  0.00  0.00    +0.024 A 
BRANCH  10  13
ATOM     13  C   UNL     1       5.533  -5.113  -3.951  0.00  0.00    +0.242 C 
ATOM     14  O   UNL     1       6.427  -4.350  -4.262  0.00  0.00    -0.270 OA
ATOM     15  N   UNL     1       5.427  -6.311  -4.559  0.00  0.00    -0.325 N 
ATOM     16  H   UNL     1       4.714  -6.920  -4.311  0.00  0.00    +0.145 HD
ATOM     17  H   UNL     1       6.065  -6.565  -5.244  0.00  0.00    +0.145 HD
ENDBRANCH  10  13
ENDBRANCH   5   7
ENDBRANCH   2   3
BRANCH   2  18
ATOM     18  N   UNL     1       0.304  -0.486   1.227  0.00  0.00    +0.391 N 
ATOM     19  H   UNL     1       1.184   0.007   1.194  0.00  0.00    -0.084 HD
ATOM     20  H   UNL     1      -0.228  -0.281   0.395  0.00  0.00    -0.084 HD
BRANCH  18  21
ATOM     21  C   UNL     1      -0.453  -0.058   2.411  0.00  0.00    -0.037 C 
BRANCH  21  22
ATOM     22  C   UNL     1       0.397  -0.237   3.643  0.00  0.00    -0.061 A 
ATOM     23  C   UNL     1       1.743   0.079   3.606  0.00  0.00    +0.002 A 
ATOM     24  C   UNL     1       2.522  -0.085   4.736  0.00  0.00    +0.004 A 
ATOM     25  C   UNL     1       1.956  -0.565   5.902  0.00  0.00    -0.047 A 
ATOM     26  C   UNL     1       0.611  -0.880   5.939  0.00  0.00    +0.004 A 
ATOM     27  C   UNL     1      -0.170  -0.712   4.811  0.00  0.00    +0.002 A 
BRANCH  25  28
ATOM     28  C   UNL     1       2.807  -0.745   7.133  0.00  0.00    +0.038 C 
BRANCH  28  29
ATOM     29  C   UNL     1       2.790   0.544   7.958  0.00  0.00    -0.013 C 
ATOM     30  C   UNL     1       3.549   0.321   9.267  0.00  0.00    +0.007 C 
ATOM     31  C   UNL     1       3.461   1.666   7.163  0.00  0.00    +0.007 C 
ENDBRANCH  28  29
ENDBRANCH  25  28
ENDBRANCH  21  22
BRANCH  21  32
ATOM     32  C   UNL     1      -0.836   1.416   2.266  0.00  0.00    -0.027 C 
ATOM     33  C   UNL     1      -1.791   1.581   1.082  0.00  0.00    +0.006 C 
ATOM     34  C   UNL     1      -1.524   1.893   3.547  0.00  0.00    +0.006 C 
ENDBRANCH  21  32
ENDBRANCH  18  21
ENDBRANCH   2  18
TORSDOF 9
