REMARK  Name = ZINC26404281
REMARK  9 active torsions:
REMARK  status: ('A' for Active; 'I' for Inactive)
REMARK    1  A    between atoms: C_1  and  C_2
REMARK    2  A    between atoms: C_6  and  C_8
REMARK    3  A    between atoms: N_10  and  C_11
REMARK    4  A    between atoms: C_11  and  C_12
REMARK    5  A    between atoms: N_14  and  C_15
REMARK    6  A    between atoms: C_15  and  C_16
REMARK    7  A    between atoms: C_21  and  C_22
REMARK    8  A    between atoms: C_25  and  C_28
REMARK    9  A    between atoms: C_28  and  N_29
REMARK                            x       y       z     vdW  Elec       q    Type
REMARK                         _______ _______ _______ _____ _____    ______ ____
ROOT
ATOM      1  C   UNL     1       6.128   0.987  -0.165  0.00  0.00    -0.023 A 
ATOM      2  C   UNL     1       6.695   1.176  -1.409  0.00  0.00    +0.006 A 
ATOM      3  C   UNL     1       7.838   1.943  -1.541  0.00  0.00    +0.000 A 
ATOM      4  C   UNL     1       8.419   2.525  -0.428  0.00  0.00    +0.001 A 
ATOM      5  C   UNL     1       7.860   2.342   0.820  0.00  0.00    +0.009 A 
ATOM      6  C   UNL     1       6.706   1.574   0.958  0.00  0.00    -0.013 A 
ENDROOT
BRANCH   6   7
ATOM      7  C   UNL     1       6.097   1.379   2.297  0.00  0.00    -0.018 A 
ATOM      8  C   UNL     1       5.733   2.482   3.067  0.00  0.00    +0.009 A 
ATOM      9  C   UNL     1       5.162   2.294   4.310  0.00  0.00    +0.002 A 
ATOM     10  C   UNL     1       4.961   1.015   4.796  0.00  0.00    -0.064 A 
ATOM     11  C   UNL     1       5.326  -0.084   4.038  0.00  0.00    +0.002 A 
ATOM     12  C   UNL     1       5.893   0.092   2.792  0.00  0.00    +0.009 A 
BRANCH  10  13
ATOM     13  C   UNL     1       4.343   0.816   6.156  0.00  0.00    -0.043 C 
BRANCH  13  14
ATOM     14  N   UNL     1       5.402   0.773   7.173  0.00  0.00    +0.382 N 
ATOM     15  C   UNL     1       6.291   1.958   7.067  0.00  0.00    -0.078 C 
ATOM     16  C   UNL     1       6.962   2.025   8.462  0.00  0.00    -0.020 C 
ATOM     17  C   UNL     1       5.819   1.607   9.415  0.00  0.00    -0.020 C 
ATOM     18  C   UNL     1       4.829   0.820   8.536  0.00  0.00    -0.078 C 
ATOM     19  H   UNL     1       5.948  -0.165   6.997  0.00  0.00    -0.081 HD
ENDBRANCH  13  14
ENDBRANCH  10  13
ENDBRANCH   6   7
BRANCH   1  20
ATOM     20  C   UNL     1       4.881   0.151  -0.023  0.00  0.00    +0.140 C 
BRANCH  20  23
ATOM     21  C   UNL     1       2.520   0.494   0.471  0.00  0.00    +0.230 C 
ATOM     22  O   UNL     1       2.386  -0.710   0.523  0.00  0.00    -0.274 OA
ATOM     23  N   UNL     1       3.729   1.027   0.204  0.00  0.00    -0.310 N 
ATOM     24  H   UNL     1       3.851   2.119   0.157  0.00  0.00    +0.149 HD
BRANCH  21  25
ATOM     25  C   UNL     1       1.335   1.395   0.705  0.00  0.00    +0.200 C 
BRANCH  25  28
ATOM     26  C   UNL     1      -1.039   1.175   1.207  0.00  0.00    +0.244 C 
ATOM     27  O   UNL     1      -1.123   2.388   1.201  0.00  0.00    -0.270 OA
ATOM     28  N   UNL     1       0.148   0.581   0.973  0.00  0.00    -0.303 N 
ATOM     29  H   UNL     1       0.224  -0.517   0.983  0.00  0.00    +0.150 HD
BRANCH  26  35
ATOM     30  C   UNL     1      -5.914   0.852   2.223  0.00  0.00    +0.044 C 
ATOM     31  C   UNL     1      -4.585   0.192   1.960  0.00  0.00    -0.050 A 
ATOM     32  C   UNL     1      -4.486  -1.188   1.965  0.00  0.00    +0.003 A 
ATOM     33  C   UNL     1      -3.270  -1.802   1.725  0.00  0.00    +0.001 A 
ATOM     34  C   UNL     1      -2.147  -1.040   1.473  0.00  0.00    +0.013 A 
ATOM     35  C   UNL     1      -2.239   0.353   1.472  0.00  0.00    +0.037 A 
ATOM     36  C   UNL     1      -3.469   0.966   1.714  0.00  0.00    +0.016 A 
ENDBRANCH  26  35
ENDBRANCH  25  28
ENDBRANCH  21  25
ENDBRANCH  20  23
ENDBRANCH   1  20
TORSDOF 8
