REMARK  Name = ZINC39668904
REMARK  5 active torsions:
REMARK  status: ('A' for Active; 'I' for Inactive)
REMARK    1  A    between atoms: C_10  and  C_12
REMARK    2  A    between atoms: C_12  and  N_13
REMARK    3  A    between atoms: C_14  and  C_16
REMARK    4  A    between atoms: C_27  and  C_29
REMARK    5  A    between atoms: C_34  and  C_35
REMARK                            x       y       z     vdW  Elec       q    Type
REMARK                         _______ _______ _______ _____ _____    ______ ____
ROOT
ATOM      1  C   UNL     1       8.938  -0.652   1.072  0.00  0.00    +0.100 C 
ATOM      2  C   UNL     1       8.653  -2.061   1.638  0.00  0.00    +0.121 C 
ATOM      3  N   UNL     1       9.800  -2.343   2.534  0.00  0.00    -0.296 N 
ATOM      4  C   UNL     1      10.068  -1.050   3.208  0.00  0.00    +0.115 C 
ATOM      5  C   UNL     1       9.866   0.009   2.105  0.00  0.00    -0.004 C 
ATOM      6  C   UNL     1      11.203   0.364   1.463  0.00  0.00    -0.010 C 
ATOM      7  C   UNL     1      12.088   1.071   2.494  0.00  0.00    -0.082 C 
ATOM      8  N   UNL     1      11.413   2.284   2.971  0.00  0.00    +0.379 N 
ATOM      9  C   UNL     1      10.172   1.927   3.669  0.00  0.00    -0.082 C 
ATOM     10  C   UNL     1       9.207   1.256   2.687  0.00  0.00    -0.010 C 
ATOM     11  C   UNL     1      10.451  -3.511   2.700  0.00  0.00    +0.247 C 
ATOM     12  O   UNL     1      11.313  -3.611   3.551  0.00  0.00    -0.270 OA
ATOM     13  H   UNL     1      12.022   2.780   3.604  0.00  0.00    -0.086 HD
ATOM     14  H   UNL     1      11.195   2.878   2.184  0.00  0.00    -0.086 HD
ENDROOT
BRANCH  11  15
ATOM     15  C   UNL     1      10.118  -4.671   1.846  0.00  0.00    +0.049 A 
ATOM     16  C   UNL     1       8.796  -4.902   1.462  0.00  0.00    +0.013 A 
ATOM     17  C   UNL     1       8.491  -5.985   0.665  0.00  0.00    +0.001 A 
ATOM     18  C   UNL     1       9.493  -6.843   0.245  0.00  0.00    +0.001 A 
ATOM     19  C   UNL     1      10.806  -6.620   0.622  0.00  0.00    +0.013 A 
ATOM     20  C   UNL     1      11.124  -5.536   1.415  0.00  0.00    +0.067 A 
BRANCH  20  21
ATOM     21  C   UNL     1      12.555  -5.292   1.819  0.00  0.00    +0.418 C 
ATOM     22  F   UNL     1      13.372  -6.285   1.269  0.00  0.00    -0.166 F 
ATOM     23  F   UNL     1      12.965  -4.039   1.351  0.00  0.00    -0.166 F 
ATOM     24  F   UNL     1      12.657  -5.324   3.214  0.00  0.00    -0.166 F 
ENDBRANCH  20  21
ENDBRANCH  11  15
BRANCH   1  26
ATOM     25  N   UNL     1       7.536   1.076  -0.010  0.00  0.00    -0.312 N 
ATOM     26  C   UNL     1       7.656   0.130   0.943  0.00  0.00    +0.218 C 
ATOM     27  O   UNL     1       6.731  -0.092   1.696  0.00  0.00    -0.275 OA
ATOM     28  H   UNL     1       8.276   1.253  -0.612  0.00  0.00    +0.149 HD
BRANCH  25  29
ATOM     29  C   UNL     1       6.290   1.836  -0.136  0.00  0.00    +0.140 C 
BRANCH  29  39
ATOM     30  C   UNL     1       2.925   5.303  -1.350  0.00  0.00    +0.000 A 
ATOM     31  C   UNL     1       3.545   4.997  -0.153  0.00  0.00    +0.000 A 
ATOM     32  C   UNL     1       4.671   4.198  -0.146  0.00  0.00    +0.006 A 
ATOM     33  C   UNL     1       5.183   3.700  -1.334  0.00  0.00    -0.014 A 
ATOM     34  C   UNL     1       4.562   4.002  -2.528  0.00  0.00    -0.040 A 
ATOM     35  C   UNL     1       3.433   4.807  -2.534  0.00  0.00    +0.004 A 
ATOM     36  C   UNL     1       5.081   3.469  -3.839  0.00  0.00    +0.063 C 
ATOM     37  C   UNL     1       6.519   2.979  -3.665  0.00  0.00    +0.165 C 
ATOM     38  O   UNL     1       6.574   2.128  -2.514  0.00  0.00    -0.370 OA
ATOM     39  C   UNL     1       6.417   2.837  -1.285  0.00  0.00    +0.165 C 
ENDBRANCH  29  39
ENDBRANCH  25  29
ENDBRANCH   1  26
TORSDOF 5
