REMARK  Name = ZINC01419023
REMARK  13 active torsions:
REMARK  status: ('A' for Active; 'I' for Inactive)
REMARK    1  A    between atoms: C_1  and  N_2
REMARK    2  A    between atoms: N_2  and  C_3
REMARK    3  A    between atoms: N_2  and  C_4
REMARK    4  A    between atoms: C_7  and  N_10
REMARK    5  A    between atoms: C_11  and  C_13
REMARK    6  A    between atoms: C_13  and  C_15
REMARK    7  A    between atoms: C_13  and  N_22
REMARK    8  A    between atoms: N_22  and  C_23
REMARK    9  A    between atoms: C_23  and  C_24
REMARK   10  A    between atoms: C_27  and  O_30
REMARK   11  A    between atoms: O_30  and  C_31
REMARK   12  A    between atoms: C_32  and  C_34
REMARK   13  A    between atoms: C_34  and  N_35
REMARK                            x       y       z     vdW  Elec       q    Type
REMARK                         _______ _______ _______ _____ _____    ______ ____
ROOT
ATOM      1  N   UNL     1      -2.421   4.970   0.653  0.00  0.00    -0.280 N 
ATOM      2  C   UNL     1      -1.904   5.246   1.867  0.00  0.00    +0.238 C 
ATOM      3  O   UNL     1      -1.442   4.354   2.546  0.00  0.00    -0.274 OA
ENDROOT
BRANCH   1   4
ATOM      4  C   UNL     1      -2.522   3.581   0.199  0.00  0.00    +0.193 C 
BRANCH   4   5
ATOM      5  C   UNL     1      -3.339   2.788   1.186  0.00  0.00    -0.018 A 
ATOM      6  C   UNL     1      -2.723   2.184   2.266  0.00  0.00    +0.007 A 
ATOM      7  C   UNL     1      -3.473   1.461   3.174  0.00  0.00    +0.020 A 
ATOM      8  C   UNL     1      -4.839   1.333   2.997  0.00  0.00    +0.041 A 
ATOM      9  C   UNL     1      -5.454   1.933   1.912  0.00  0.00    +0.020 A 
ATOM     10  C   UNL     1      -4.704   2.660   1.008  0.00  0.00    +0.007 A 
ATOM     11 CL   UNL     1      -5.780   0.419   4.133  0.00  0.00    -0.084 Cl
ENDBRANCH   4   5
BRANCH   4  13
ATOM     12  N   UNL     1      -0.989   1.707  -0.307  0.00  0.00    -0.284 N 
ATOM     13  C   UNL     1      -1.142   2.984   0.095  0.00  0.00    +0.242 C 
ATOM     14  O   UNL     1      -0.169   3.654   0.373  0.00  0.00    -0.273 OA
ATOM     15  H   UNL     1      -1.760   1.192  -0.591  0.00  0.00    +0.155 HD
BRANCH  12  19
ATOM     16  C   UNL     1       2.802  -0.034  -0.340  0.00  0.00    +0.029 A 
ATOM     17  C   UNL     1       1.689  -0.798  -0.015  0.00  0.00    +0.025 A 
ATOM     18  C   UNL     1       0.435  -0.222  -0.002  0.00  0.00    +0.025 A 
ATOM     19  C   UNL     1       0.285   1.123  -0.314  0.00  0.00    +0.034 A 
ATOM     20  C   UNL     1       1.398   1.888  -0.640  0.00  0.00    +0.025 A 
ATOM     21  C   UNL     1       2.652   1.312  -0.652  0.00  0.00    +0.025 A 
BRANCH  16  23
ATOM     22  C   UNL     1       4.230  -2.036  -0.023  0.00  0.00    +0.129 C 
ATOM     23  N   UNL     1       4.073  -0.618  -0.353  0.00  0.00    -0.336 N 
ATOM     24  C   UNL     1       5.246   0.189  -0.696  0.00  0.00    +0.129 C 
ENDBRANCH  16  23
ENDBRANCH  12  19
ENDBRANCH   4  13
ENDBRANCH   1   4
BRANCH   1  25
ATOM     25  C   UNL     1      -2.881   6.059  -0.212  0.00  0.00    +0.144 C 
BRANCH  25  26
ATOM     26  C   UNL     1      -4.320   6.378   0.104  0.00  0.00    -0.030 A 
ATOM     27  C   UNL     1      -5.333   5.623  -0.459  0.00  0.00    +0.009 A 
ATOM     28  C   UNL     1      -6.652   5.910  -0.167  0.00  0.00    +0.046 A 
ATOM     29  C   UNL     1      -6.961   6.962   0.683  0.00  0.00    +0.120 A 
ATOM     30  C   UNL     1      -5.943   7.720   1.242  0.00  0.00    +0.046 A 
ATOM     31  C   UNL     1      -4.625   7.427   0.951  0.00  0.00    +0.009 A 
BRANCH  29  32
ATOM     32  O   UNL     1      -8.258   7.248   0.967  0.00  0.00    -0.495 OA
ATOM     33  C   UNL     1      -9.254   6.426   0.356  0.00  0.00    +0.277 C 
ENDBRANCH  29  32
ENDBRANCH  25  26
ENDBRANCH   1  25
BRANCH   2  34
ATOM     34  C   UNL     1      -1.901   6.663   2.380  0.00  0.00    +0.241 C 
BRANCH  34  35
ATOM     35  N   UNL     1      -1.156   6.724   3.641  0.00  0.00    -0.235 N 
ATOM     36  C   UNL     1      -1.668   6.564   4.906  0.00  0.00    +0.090 A 
ATOM     37  C   UNL     1      -2.937   6.299   5.410  0.00  0.00    +0.029 A 
ATOM     38  C   UNL     1      -3.123   6.186   6.759  0.00  0.00    +0.002 A 
ATOM     39  C   UNL     1      -2.054   6.329   7.634  0.00  0.00    +0.002 A 
ATOM     40  C   UNL     1      -0.798   6.583   7.166  0.00  0.00    +0.032 A 
ATOM     41  C   UNL     1      -0.581   6.703   5.786  0.00  0.00    +0.113 A 
ATOM     42  N   UNL     1       0.518   6.945   5.044  0.00  0.00    -0.129 NA
ATOM     43  N   UNL     1       0.217   6.963   3.793  0.00  0.00    -0.064 NA
ENDBRANCH  34  35
ENDBRANCH   2  34
TORSDOF 10
