REMARK  Name = ZINC36579765
REMARK  19 active torsions:
REMARK  status: ('A' for Active; 'I' for Inactive)
REMARK    1  A    between atoms: C_1  and  C_2
REMARK    2  A    between atoms: C_2  and  C_3
REMARK    3  A    between atoms: C_2  and  C_4
REMARK    4  A    between atoms: C_2  and  C_5
REMARK    5  A    between atoms: C_5  and  C_6
REMARK    6  A    between atoms: C_6  and  C_7
REMARK    7  A    between atoms: C_6  and  C_8
REMARK    8  A    between atoms: C_6  and  N_9
REMARK    9  A    between atoms: C_10  and  C_12
REMARK   10  A    between atoms: C_12  and  C_14
REMARK   11  A    between atoms: C_12  and  N_24
REMARK   12  A    between atoms: C_16  and  N_21
REMARK   13  A    between atoms: N_24  and  C_35
REMARK   14  A    between atoms: C_25  and  C_27
REMARK   15  A    between atoms: C_32  and  O_33
REMARK   16  A    between atoms: O_33  and  C_34
REMARK   17  A    between atoms: C_35  and  C_36
REMARK   18  A    between atoms: C_35  and  C_37
REMARK   19  A    between atoms: C_35  and  C_38
REMARK                            x       y       z     vdW  Elec       q    Type
REMARK                         _______ _______ _______ _____ _____    ______ ____
ROOT
ATOM      1  C   UNL     1       4.430   1.058  -2.318  0.00  0.00    +0.194 C 
ENDROOT
BRANCH   1   2
ATOM      2  C   UNL     1       4.158   0.354  -3.623  0.00  0.00    +0.002 A 
ATOM      3  C   UNL     1       5.125  -0.458  -4.185  0.00  0.00    +0.040 A 
ATOM      4  C   UNL     1       4.877  -1.103  -5.382  0.00  0.00    +0.127 A 
ATOM      5  C   UNL     1       3.660  -0.937  -6.017  0.00  0.00    +0.034 A 
ATOM      6  C   UNL     1       2.692  -0.125  -5.456  0.00  0.00    +0.022 A 
ATOM      7  C   UNL     1       2.939   0.516  -4.255  0.00  0.00    +0.047 A 
ATOM      8 CL   UNL     1       1.721   1.530  -3.546  0.00  0.00    -0.083 Cl
BRANCH   4   9
ATOM      9  N   UNL     1       5.913  -1.972  -5.983  0.00  0.00    +0.056 N 
ATOM     10  O   UNL     1       6.976  -2.118  -5.427  0.00  0.00    -0.126 OA
ATOM     11  O   UNL     1       5.695  -2.537  -7.030  0.00  0.00    -0.126 OA
ENDBRANCH   4   9
ENDBRANCH   1   2
BRANCH   1  13
ATOM     12  N   UNL     1       2.801  -0.234  -0.977  0.00  0.00    -0.308 N 
ATOM     13  C   UNL     1       4.080   0.144  -1.172  0.00  0.00    +0.239 C 
ATOM     14  O   UNL     1       4.950  -0.252  -0.425  0.00  0.00    -0.273 OA
ATOM     15  H   UNL     1       2.101   0.110  -1.554  0.00  0.00    +0.149 HD
BRANCH  12  16
ATOM     16  C   UNL     1       2.469  -1.163   0.105  0.00  0.00    +0.030 C 
ATOM     17  C   UNL     1       2.918  -0.571   1.442  0.00  0.00    +0.031 C 
ATOM     18  C   UNL     1       3.184  -2.496  -0.129  0.00  0.00    +0.031 C 
BRANCH  16  19
ATOM     19  C   UNL     1       0.956  -1.394   0.132  0.00  0.00    +0.031 C 
BRANCH  19  21
ATOM     20  C   UNL     1       0.099   0.322  -1.469  0.00  0.00    +0.010 C 
ATOM     21  C   UNL     1       0.233  -0.052   0.009  0.00  0.00    -0.036 C 
ATOM     22  C   UNL     1       1.036   1.029   0.737  0.00  0.00    +0.010 C 
ATOM     23  C   UNL     1      -1.158  -0.162   0.635  0.00  0.00    +0.010 C 
ENDBRANCH  19  21
ENDBRANCH  16  19
ENDBRANCH  12  16
ENDBRANCH   1  13
BRANCH   1  24
ATOM     24  N   UNL     1       5.849   1.415  -2.242  0.00  0.00    -0.277 N 
ATOM     25  C   UNL     1       6.769   0.468  -1.972  0.00  0.00    +0.251 C 
ATOM     26  O   UNL     1       7.952   0.748  -1.987  0.00  0.00    -0.270 OA
BRANCH  25  27
ATOM     27  C   UNL     1       6.340  -0.909  -1.658  0.00  0.00    +0.078 A 
ATOM     28  C   UNL     1       5.084  -1.363  -2.065  0.00  0.00    +0.017 A 
ATOM     29  C   UNL     1       4.689  -2.650  -1.769  0.00  0.00    +0.001 A 
ATOM     30  C   UNL     1       5.534  -3.496  -1.069  0.00  0.00    +0.004 A 
ATOM     31  C   UNL     1       6.778  -3.060  -0.660  0.00  0.00    +0.046 A 
ATOM     32  C   UNL     1       7.194  -1.769  -0.954  0.00  0.00    +0.132 A 
BRANCH  32  33
ATOM     33  O   UNL     1       8.418  -1.341  -0.558  0.00  0.00    -0.494 OA
ATOM     34  C   UNL     1       9.233  -2.274   0.155  0.00  0.00    +0.277 C 
ENDBRANCH  32  33
ENDBRANCH  25  27
BRANCH  24  35
ATOM     35  C   UNL     1       6.268   2.802  -2.461  0.00  0.00    +0.030 C 
ATOM     36  C   UNL     1       5.032   3.687  -2.629  0.00  0.00    +0.031 C 
ATOM     37  C   UNL     1       7.081   3.284  -1.258  0.00  0.00    +0.031 C 
ATOM     38  C   UNL     1       7.128   2.882  -3.723  0.00  0.00    +0.031 C 
ENDBRANCH  24  35
ENDBRANCH   1  24
TORSDOF 10
