REMARK  Name = ZINC13977079
REMARK  12 active torsions:
REMARK  status: ('A' for Active; 'I' for Inactive)
REMARK    1  A    between atoms: C_1  and  C_2
REMARK    2  A    between atoms: C_7  and  O_8
REMARK    3  A    between atoms: O_8  and  C_9
REMARK    4  A    between atoms: C_9  and  C_10
REMARK    5  A    between atoms: N_12  and  N_13
REMARK    6  A    between atoms: N_13  and  C_14
REMARK    7  A    between atoms: C_14  and  N_16
REMARK    8  A    between atoms: C_17  and  C_19
REMARK    9  A    between atoms: C_22  and  C_26
REMARK   10  A    between atoms: C_26  and  C_27
REMARK   11  A    between atoms: C_26  and  C_28
REMARK   12  A    between atoms: C_26  and  C_29
REMARK                            x       y       z     vdW  Elec       q    Type
REMARK                         _______ _______ _______ _____ _____    ______ ____
ROOT
ATOM      1  C   UNL     1       0.142  -0.210   8.040  0.00  0.00    +0.153 C 
ATOM      2  S   UNL     1       0.327   0.882   9.346  0.00  0.00    -0.017 S 
ENDROOT
BRANCH   1   3
ATOM      3  N   UNL     1       0.129  -1.538   8.268  0.00  0.00    -0.263 N 
ATOM      4  C   UNL     1       0.261  -2.007   9.525  0.00  0.00    +0.250 C 
ATOM      5  O   UNL     1       0.392  -1.232  10.452  0.00  0.00    -0.270 OA
ATOM      6  H   UNL     1       0.025  -2.157   7.529  0.00  0.00    +0.157 HD
BRANCH   4   7
ATOM      7  C   UNL     1       0.247  -3.463   9.776  0.00  0.00    +0.038 A 
ATOM      8  C   UNL     1       0.103  -4.356   8.712  0.00  0.00    +0.013 A 
ATOM      9  C   UNL     1       0.091  -5.715   8.953  0.00  0.00    +0.006 A 
ATOM     10  C   UNL     1       0.221  -6.193  10.244  0.00  0.00    -0.028 A 
ATOM     11  C   UNL     1       0.364  -5.314  11.304  0.00  0.00    +0.022 A 
ATOM     12  C   UNL     1       0.384  -3.952  11.076  0.00  0.00    +0.028 A 
ATOM     13 BR   UNL     1       0.541  -5.979  13.065  0.00  0.00    -0.050 Br
BRANCH  10  14
ATOM     14  C   UNL     1       0.207  -7.678  10.499  0.00  0.00    -0.012 C 
ATOM     15  C   UNL     1       0.055  -8.422   9.171  0.00  0.00    +0.015 C 
ATOM     16  C   UNL     1       1.518  -8.094  11.169  0.00  0.00    +0.015 C 
ATOM     17  C   UNL     1      -0.967  -8.027  11.417  0.00  0.00    +0.015 C 
ENDBRANCH  10  14
ENDBRANCH   4   7
ENDBRANCH   1   3
BRANCH   1  18
ATOM     18  N   UNL     1       0.010   0.259   6.783  0.00  0.00    -0.245 N 
ATOM     19  H   UNL     1       0.020   1.214   6.618  0.00  0.00    +0.172 HD
BRANCH  18  22
ATOM     20  C   UNL     1      -0.272  -0.166   4.458  0.00  0.00    +0.267 C 
ATOM     21  O   UNL     1      -0.261   1.029   4.252  0.00  0.00    -0.271 OA
ATOM     22  N   UNL     1      -0.140  -0.635   5.714  0.00  0.00    -0.232 N 
ATOM     23  H   UNL     1      -0.150  -1.591   5.879  0.00  0.00    +0.173 HD
BRANCH  20  24
ATOM     24  C   UNL     1      -0.434  -1.127   3.308  0.00  0.00    +0.326 C 
BRANCH  24  25
ATOM     25  O   UNL     1      -0.554  -0.394   2.087  0.00  0.00    -0.482 OA
BRANCH  25  32
ATOM     26  C   UNL     1      -0.794   1.037  -0.336  0.00  0.00    +0.047 C 
ATOM     27  C   UNL     1      -0.831  -0.468  -0.274  0.00  0.00    -0.007 A 
ATOM     28  C   UNL     1      -0.981  -1.204  -1.434  0.00  0.00    +0.027 A 
ATOM     29  C   UNL     1      -1.015  -2.586  -1.377  0.00  0.00    +0.041 A 
ATOM     30  C   UNL     1      -0.899  -3.234  -0.160  0.00  0.00    +0.023 A 
ATOM     31  C   UNL     1      -0.749  -2.502   1.001  0.00  0.00    +0.047 A 
ATOM     32  C   UNL     1      -0.708  -1.116   0.946  0.00  0.00    +0.124 A 
ATOM     33 CL   UNL     1      -1.205  -3.509  -2.836  0.00  0.00    -0.084 Cl
ENDBRANCH  25  32
ENDBRANCH  24  25
ENDBRANCH  20  24
ENDBRANCH  18  22
ENDBRANCH   1  18
TORSDOF 8
