REMARK  Name = ZINC39748091
REMARK  11 active torsions:
REMARK  status: ('A' for Active; 'I' for Inactive)
REMARK    1  A    between atoms: C_1  and  C_2
REMARK    2  A    between atoms: C_2  and  C_3
REMARK    3  A    between atoms: C_3  and  C_5
REMARK    4  A    between atoms: C_3  and  S_18
REMARK    5  A    between atoms: N_7  and  C_8
REMARK    6  A    between atoms: S_18  and  C_19
REMARK    7  A    between atoms: C_22  and  C_25
REMARK    8  A    between atoms: N_23  and  C_24
REMARK    9  A    between atoms: C_25  and  N_26
REMARK   10  A    between atoms: C_27  and  C_29
REMARK   11  A    between atoms: C_30  and  C_31
REMARK                            x       y       z     vdW  Elec       q    Type
REMARK                         _______ _______ _______ _____ _____    ______ ____
ROOT
ATOM      1  C   UNL     1      -2.203   1.976  -0.771  0.00  0.00    +0.192 A 
ATOM      2  N   UNL     1      -1.353   2.502   0.080  0.00  0.00    -0.122 NA
ATOM      3  N   UNL     1      -1.463   3.783   0.071  0.00  0.00    -0.132 NA
ATOM      4  C   UNL     1      -2.382   4.147  -0.777  0.00  0.00    +0.151 A 
ATOM      5  N   UNL     1      -2.883   3.010  -1.349  0.00  0.00    -0.308 N 
ATOM      6  C   UNL     1      -3.932   2.919  -2.366  0.00  0.00    +0.152 C 
ENDROOT
BRANCH   1   7
ATOM      7  S   UNL     1      -2.421   0.261  -1.108  0.00  0.00    -0.073 S 
BRANCH   7   8
ATOM      8  C   UNL     1      -1.338  -0.564   0.091  0.00  0.00    +0.140 C 
BRANCH   8   9
ATOM      9  C   UNL     1      -1.897  -0.384   1.479  0.00  0.00    +0.231 C 
ATOM     10  O   UNL     1      -3.084  -0.188   1.634  0.00  0.00    -0.274 OA
ATOM     11  N   UNL     1      -1.078  -0.442   2.548  0.00  0.00    -0.284 N 
ATOM     12  H   UNL     1      -0.142  -0.670   2.430  0.00  0.00    +0.155 HD
BRANCH  11  13
ATOM     13  C   UNL     1      -1.576  -0.174   3.824  0.00  0.00    +0.041 A 
ATOM     14  C   UNL     1      -2.865  -0.531   4.157  0.00  0.00    +0.024 A 
ATOM     15  C   UNL     1      -3.372  -0.268   5.426  0.00  0.00    +0.002 A 
ATOM     16  C   UNL     1      -2.610   0.345   6.373  0.00  0.00    +0.008 A 
ATOM     17  C   UNL     1      -1.290   0.724   6.075  0.00  0.00    -0.016 A 
ATOM     18  C   UNL     1      -0.762   0.458   4.788  0.00  0.00    +0.003 A 
ATOM     19  C   UNL     1       0.558   0.833   4.493  0.00  0.00    +0.010 A 
ATOM     20  C   UNL     1       1.315   1.442   5.447  0.00  0.00    +0.001 A 
ATOM     21  C   UNL     1       0.798   1.700   6.716  0.00  0.00    +0.001 A 
ATOM     22  C   UNL     1      -0.481   1.360   7.033  0.00  0.00    +0.008 A 
ENDBRANCH  11  13
ENDBRANCH   8   9
BRANCH   8  24
ATOM     23  C   UNL     1      -0.563  -2.244  -1.588  0.00  0.00    +0.005 C 
ATOM     24  C   UNL     1      -1.256  -2.056  -0.237  0.00  0.00    +0.020 C 
ENDBRANCH   8  24
ENDBRANCH   7   8
ENDBRANCH   1   7
BRANCH   4  25
ATOM     25  C   UNL     1      -2.810   5.561  -1.079  0.00  0.00    +0.181 C 
BRANCH  25  26
ATOM     26  N   UNL     1      -1.997   6.094  -2.175  0.00  0.00    -0.305 N 
ATOM     27  C   UNL     1      -2.204   7.350  -2.618  0.00  0.00    +0.237 C 
ATOM     28  O   UNL     1      -3.066   8.041  -2.107  0.00  0.00    -0.271 OA
ATOM     29  H   UNL     1      -1.311   5.543  -2.582  0.00  0.00    +0.149 HD
BRANCH  27  30
ATOM     30  C   UNL     1      -1.392   7.882  -3.713  0.00  0.00    +0.068 C 
ATOM     31  C   UNL     1      -1.599   9.139  -4.156  0.00  0.00    +0.014 C 
BRANCH  31  32
ATOM     32  C   UNL     1      -0.782   9.675  -5.257  0.00  0.00    -0.007 A 
ATOM     33  C   UNL     1       0.205   8.881  -5.851  0.00  0.00    +0.009 A 
ATOM     34  C   UNL     1       0.965   9.390  -6.882  0.00  0.00    +0.001 A 
ATOM     35  C   UNL     1       0.754  10.682  -7.331  0.00  0.00    +0.001 A 
ATOM     36  C   UNL     1      -0.220  11.474  -6.750  0.00  0.00    +0.020 A 
ATOM     37  C   UNL     1      -0.994  10.978  -5.720  0.00  0.00    +0.048 A 
ATOM     38 CL   UNL     1      -2.220  11.971  -4.996  0.00  0.00    -0.083 Cl
ENDBRANCH  31  32
ENDBRANCH  27  30
ENDBRANCH  25  26
ENDBRANCH   4  25
TORSDOF 9
