REMARK  Name = ZINC35645551
REMARK  8 active torsions:
REMARK  status: ('A' for Active; 'I' for Inactive)
REMARK    1  A    between atoms: C_1  and  C_2
REMARK    2  A    between atoms: C_2  and  C_4
REMARK    3  A    between atoms: C_2  and  N_14
REMARK    4  A    between atoms: N_14  and  C_15
REMARK    5  A    between atoms: C_21  and  N_23
REMARK    6  A    between atoms: N_23  and  S_24
REMARK    7  A    between atoms: S_24  and  C_27
REMARK    8  A    between atoms: C_30  and  N_33
REMARK                            x       y       z     vdW  Elec       q    Type
REMARK                         _______ _______ _______ _____ _____    ______ ____
ROOT
ATOM      1  C   UNL     1       2.122  -0.083   1.122  0.00  0.00    -0.052 C 
ATOM      2  C   UNL     1       2.796  -0.777  -0.064  0.00  0.00    -0.014 C 
ATOM      3  C   UNL     1       4.263  -0.351  -0.137  0.00  0.00    -0.001 C 
ATOM      4  C   UNL     1       4.975  -0.749   1.159  0.00  0.00    +0.001 C 
ATOM      5  C   UNL     1       4.301  -0.055   2.344  0.00  0.00    +0.019 C 
ATOM      6  C   UNL     1       2.833  -0.480   2.417  0.00  0.00    +0.063 C 
ENDROOT
BRANCH   1   7
ATOM      7  N   UNL     1       0.713  -0.491   1.192  0.00  0.00    +0.386 N 
ATOM      8  H   UNL     1       0.290  -0.099   2.020  0.00  0.00    -0.085 HD
ATOM      9  H   UNL     1       0.655  -1.497   1.230  0.00  0.00    -0.085 HD
BRANCH   7  11
ATOM     10  C   UNL     1      -0.019   1.526   0.010  0.00  0.00    -0.009 C 
ATOM     11  C   UNL     1       0.002  -0.004   0.002  0.00  0.00    -0.043 C 
BRANCH  11  12
ATOM     12  C   UNL     1      -1.412  -0.526   0.013  0.00  0.00    -0.054 A 
ATOM     13  C   UNL     1      -2.009  -0.860   1.190  0.00  0.00    +0.002 A 
ATOM     14  C   UNL     1      -3.315  -1.344   1.219  0.00  0.00    +0.001 A 
ATOM     15  C   UNL     1      -4.032  -1.497   0.072  0.00  0.00    +0.008 A 
ATOM     16  C   UNL     1      -3.449  -1.163  -1.162  0.00  0.00    -0.018 A 
ATOM     17  C   UNL     1      -2.122  -0.664  -1.191  0.00  0.00    -0.016 A 
ATOM     18  C   UNL     1      -1.542  -0.324  -2.425  0.00  0.00    +0.009 A 
ATOM     19  C   UNL     1      -2.260  -0.472  -3.571  0.00  0.00    +0.001 A 
ATOM     20  C   UNL     1      -3.567  -0.956  -3.542  0.00  0.00    +0.001 A 
ATOM     21  C   UNL     1      -4.158  -1.308  -2.367  0.00  0.00    +0.008 A 
ENDBRANCH  11  12
ENDBRANCH   7  11
ENDBRANCH   1   7
BRANCH   6  22
ATOM     22  N   UNL     1       2.188   0.184   3.552  0.00  0.00    -0.188 NA
ATOM     23  H   UNL     1       1.827   1.079   3.450  0.00  0.00    +0.148 HD
BRANCH  22  24
ATOM     24  S   UNL     1       2.075  -0.592   5.011  0.00  0.00    +0.059 S 
ATOM     25  O   UNL     1       1.433   0.310   5.902  0.00  0.00    -0.153 OA
ATOM     26  O   UNL     1       1.564  -1.890   4.741  0.00  0.00    -0.153 OA
BRANCH  24  27
ATOM     27  C   UNL     1       3.716  -0.811   5.613  0.00  0.00    +0.105 A 
ATOM     28  C   UNL     1       4.425  -1.952   5.287  0.00  0.00    +0.031 A 
ATOM     29  C   UNL     1       5.713  -2.124   5.759  0.00  0.00    +0.034 A 
ATOM     30  C   UNL     1       6.292  -1.155   6.557  0.00  0.00    +0.126 A 
ATOM     31  C   UNL     1       5.583  -0.014   6.883  0.00  0.00    +0.034 A 
ATOM     32  C   UNL     1       4.297   0.160   6.407  0.00  0.00    +0.031 A 
BRANCH  30  33
ATOM     33  N   UNL     1       7.670  -1.340   7.064  0.00  0.00    +0.056 N 
ATOM     34  O   UNL     1       8.290  -2.338   6.780  0.00  0.00    -0.126 OA
ATOM     35  O   UNL     1       8.176  -0.493   7.762  0.00  0.00    -0.126 OA
ENDBRANCH  30  33
ENDBRANCH  24  27
ENDBRANCH  22  24
ENDBRANCH   6  22
TORSDOF 7
