REMARK  Name = ZINC62523507
REMARK  7 active torsions:
REMARK  status: ('A' for Active; 'I' for Inactive)
REMARK    1  A    between atoms: C_1  and  C_2
REMARK    2  A    between atoms: C_2  and  C_3
REMARK    3  A    between atoms: C_2  and  N_23
REMARK    4  A    between atoms: N_5  and  C_6
REMARK    5  A    between atoms: C_9  and  N_12
REMARK    6  A    between atoms: N_15  and  C_16
REMARK    7  A    between atoms: C_24  and  C_26
REMARK                            x       y       z     vdW  Elec       q    Type
REMARK                         _______ _______ _______ _____ _____    ______ ____
ROOT
ATOM      1  C   UNL     1       1.041  -0.609   3.550  0.00  0.00    +0.034 A 
ATOM      2  C   UNL     1       2.221  -1.312   3.349  0.00  0.00    +0.025 A 
ATOM      3  C   UNL     1       2.974  -1.721   4.432  0.00  0.00    +0.025 A 
ATOM      4  C   UNL     1       2.550  -1.431   5.722  0.00  0.00    +0.035 A 
ATOM      5  C   UNL     1       1.369  -0.728   5.923  0.00  0.00    +0.025 A 
ATOM      6  C   UNL     1       0.620  -0.313   4.840  0.00  0.00    +0.025 A 
ENDROOT
BRANCH   4   7
ATOM      7  N   UNL     1       3.314  -1.846   6.820  0.00  0.00    -0.269 N 
ATOM      8  C   UNL     1       2.703  -2.229   7.959  0.00  0.00    +0.308 C 
ATOM      9  O   UNL     1       1.495  -2.135   8.063  0.00  0.00    -0.252 OA
ATOM     10  N   UNL     1       3.431  -2.717   8.983  0.00  0.00    -0.269 N 
ATOM     11  H   UNL     1       4.282  -1.859   6.761  0.00  0.00    +0.156 HD
ATOM     12  H   UNL     1       4.400  -2.720   8.931  0.00  0.00    +0.156 HD
BRANCH  10  13
ATOM     13  C   UNL     1       2.790  -3.220  10.121  0.00  0.00    +0.035 A 
ATOM     14  C   UNL     1       1.579  -3.889   9.999  0.00  0.00    +0.025 A 
ATOM     15  C   UNL     1       0.948  -4.383  11.124  0.00  0.00    +0.022 A 
ATOM     16  C   UNL     1       1.521  -4.212  12.372  0.00  0.00    +0.041 A 
ATOM     17  C   UNL     1       2.728  -3.546  12.496  0.00  0.00    +0.022 A 
ATOM     18  C   UNL     1       3.365  -3.055  11.374  0.00  0.00    +0.025 A 
ATOM     19 CL   UNL     1       0.725  -4.834  13.783  0.00  0.00    -0.084 Cl
ENDBRANCH  10  13
ENDBRANCH   4   7
BRANCH   1  22
ATOM     20  C   UNL     1      -0.382   0.982   2.495  0.00  0.00    +0.237 C 
ATOM     21  O   UNL     1      -0.382   1.640   3.514  0.00  0.00    -0.273 OA
ATOM     22  N   UNL     1       0.277  -0.193   2.452  0.00  0.00    -0.284 N 
ATOM     23  H   UNL     1       0.223  -0.751   1.660  0.00  0.00    +0.155 HD
BRANCH  20  25
ATOM     24  C   UNL     1      -2.195   0.466   0.884  0.00  0.00    +0.038 C 
ATOM     25  C   UNL     1      -1.118   1.479   1.278  0.00  0.00    +0.156 C 
BRANCH  25  26
ATOM     26  N   UNL     1      -1.746   2.767   1.579  0.00  0.00    -0.304 N 
ATOM     27  C   UNL     1      -2.015   3.635   0.583  0.00  0.00    +0.211 C 
ATOM     28  O   UNL     1      -1.738   3.348  -0.562  0.00  0.00    -0.276 OA
ATOM     29  C   UNL     1      -2.662   4.960   0.892  0.00  0.00    +0.109 C 
ATOM     30  H   UNL     1      -1.968   2.996   2.495  0.00  0.00    +0.149 HD
ENDBRANCH  25  26
ENDBRANCH  20  25
ENDBRANCH   1  22
TORSDOF 5
