REMARK  Name = ZINC08888764
REMARK  9 active torsions:
REMARK  status: ('A' for Active; 'I' for Inactive)
REMARK    1  A    between atoms: C_1  and  C_2
REMARK    2  A    between atoms: C_5  and  N_9
REMARK    3  A    between atoms: C_6  and  C_8
REMARK    4  A    between atoms: C_13  and  C_15
REMARK    5  A    between atoms: C_15  and  O_16
REMARK    6  A    between atoms: O_16  and  C_17
REMARK    7  A    between atoms: C_17  and  C_19
REMARK    8  A    between atoms: C_19  and  C_20
REMARK    9  A    between atoms: C_20  and  C_21
REMARK                            x       y       z     vdW  Elec       q    Type
REMARK                         _______ _______ _______ _____ _____    ______ ____
ROOT
ATOM      1  C   UNL     1      -2.486   9.217  -5.715  0.00  0.00    +0.308 C 
ATOM      2  O   UNL     1      -2.637   8.853  -6.857  0.00  0.00    -0.251 OA
ENDROOT
BRANCH   1   3
ATOM      3  O   UNL     1      -2.586  10.520  -5.407  0.00  0.00    -0.455 OA
BRANCH   3   4
ATOM      4  C   UNL     1      -2.878  11.434  -6.497  0.00  0.00    +0.328 C 
BRANCH   4   9
ATOM      5  N   UNL     1      -3.542  16.148  -7.163  0.00  0.00    -0.269 N 
ATOM      6  C   UNL     1      -3.281  15.125  -6.326  0.00  0.00    +0.310 C 
ATOM      7  O   UNL     1      -3.105  15.337  -5.143  0.00  0.00    -0.252 OA
ATOM      8  N   UNL     1      -3.214  13.865  -6.802  0.00  0.00    -0.237 N 
ATOM      9  C   UNL     1      -2.953  12.842  -5.965  0.00  0.00    +0.258 C 
ATOM     10  O   UNL     1      -2.777  13.054  -4.784  0.00  0.00    -0.272 OA
ATOM     11  H   UNL     1      -3.602  15.991  -8.119  0.00  0.00    +0.156 HD
ATOM     12  H   UNL     1      -3.354  13.696  -7.747  0.00  0.00    +0.159 HD
BRANCH   5  17
ATOM     13  C   UNL     1      -4.295  21.379  -5.099  0.00  0.00    +0.044 C 
ATOM     14  C   UNL     1      -4.096  19.989  -5.647  0.00  0.00    -0.050 A 
ATOM     15  C   UNL     1      -4.337  18.889  -4.845  0.00  0.00    +0.005 A 
ATOM     16  C   UNL     1      -4.155  17.615  -5.344  0.00  0.00    +0.024 A 
ATOM     17  C   UNL     1      -3.728  17.438  -6.654  0.00  0.00    +0.038 A 
ATOM     18  C   UNL     1      -3.482  18.545  -7.456  0.00  0.00    -0.029 A 
ATOM     19  C   UNL     1      -3.671  19.817  -6.952  0.00  0.00    +0.008 A 
ATOM     20  C   UNL     1      -3.013  18.358  -8.876  0.00  0.00    +0.045 C 
ENDBRANCH   5  17
ENDBRANCH   4   9
ENDBRANCH   3   4
ENDBRANCH   1   3
BRANCH   1  21
ATOM     21  C   UNL     1      -2.185   8.209  -4.636  0.00  0.00    +0.128 C 
BRANCH  21  22
ATOM     22  C   UNL     1      -2.125   6.808  -5.249  0.00  0.00    +0.085 C 
BRANCH  22  23
ATOM     23  C   UNL     1      -1.825   5.800  -4.170  0.00  0.00    +0.111 A 
ATOM     24  N   UNL     1      -1.730   4.493  -4.514  0.00  0.00    -0.310 N 
ATOM     25  H   UNL     1      -1.858   4.250  -5.445  0.00  0.00    +0.170 HD
ATOM     26  C   UNL     1      -1.463   3.511  -3.621  0.00  0.00    +0.260 A 
ATOM     27  O   UNL     1      -1.380   2.340  -3.950  0.00  0.00    -0.267 OA
ATOM     28  C   UNL     1      -1.284   3.937  -2.262  0.00  0.00    +0.075 A 
ATOM     29  C   UNL     1      -0.992   3.093  -1.117  0.00  0.00    -0.023 A 
ATOM     30  C   UNL     1      -0.864   3.716   0.078  0.00  0.00    -0.004 A 
ATOM     31  S   UNL     1      -1.122   5.438  -0.265  0.00  0.00    -0.073 S 
ATOM     32  C   UNL     1      -1.402   5.320  -2.003  0.00  0.00    +0.116 A 
ATOM     33  N   UNL     1      -1.666   6.229  -2.937  0.00  0.00    -0.227 NA
ATOM     34  C   UNL     1      -0.568   3.084   1.403  0.00  0.00    +0.043 C 
ATOM     35  C   UNL     1      -0.797   1.570   1.280  0.00  0.00    +0.005 C 
ATOM     36  C   UNL     1      -0.094   1.070   0.015  0.00  0.00    +0.005 C 
ATOM     37  C   UNL     1      -0.833   1.579  -1.223  0.00  0.00    +0.037 C 
ENDBRANCH  22  23
ENDBRANCH  21  22
ENDBRANCH   1  21
TORSDOF 7
