REMARK  Name = ZINC65301357
REMARK  10 active torsions:
REMARK  status: ('A' for Active; 'I' for Inactive)
REMARK    1  A    between atoms: C_1  and  C_2
REMARK    2  A    between atoms: C_2  and  N_3
REMARK    3  A    between atoms: N_3  and  C_4
REMARK    4  A    between atoms: C_4  and  C_5
REMARK    5  A    between atoms: C_6  and  C_8
REMARK    6  A    between atoms: C_13  and  N_14
REMARK    7  A    between atoms: C_17  and  C_20
REMARK    8  A    between atoms: N_22  and  C_23
REMARK    9  A    between atoms: C_23  and  C_24
REMARK   10  A    between atoms: C_31  and  C_34
REMARK                            x       y       z     vdW  Elec       q    Type
REMARK                         _______ _______ _______ _____ _____    ______ ____
ROOT
ATOM      1  C   UNL     1      -1.244  -0.816   5.055  0.00  0.00    +0.074 A 
ATOM      2  C   UNL     1       0.088  -0.419   4.884  0.00  0.00    +0.098 A 
ATOM      3  N   UNL     1       0.537  -0.082   3.694  0.00  0.00    -0.353 N 
ATOM      4  C   UNL     1      -0.238  -0.104   2.630  0.00  0.00    +0.107 A 
ATOM      5  C   UNL     1      -1.599  -0.487   2.679  0.00  0.00    +0.050 A 
ATOM      6  C   UNL     1      -2.108  -0.862   3.951  0.00  0.00    +0.055 A 
ATOM      7  C   UNL     1      -2.228  -0.434   1.424  0.00  0.00    +0.058 A 
ATOM      8  N   UNL     1      -1.570  -0.063   0.368  0.00  0.00    -0.213 NA
ATOM      9  S   UNL     1      -0.018   0.267   0.908  0.00  0.00    +0.030 S 
ATOM     10  C   UNL     1      -3.681  -0.813   1.302  0.00  0.00    +0.067 C 
ATOM     11  H   UNL     1       1.463   0.191   3.598  0.00  0.00    +0.166 HD
ENDROOT
BRANCH   6  12
ATOM     12  N   UNL     1      -3.422  -1.255   4.098  0.00  0.00    -0.329 N 
ATOM     13  C   UNL     1      -4.492  -0.257   4.232  0.00  0.00    +0.106 C 
ATOM     14  C   UNL     1      -5.299  -0.567   5.497  0.00  0.00    +0.031 C 
ATOM     15  C   UNL     1      -5.793  -2.014   5.441  0.00  0.00    +0.078 C 
ATOM     16  C   UNL     1      -4.593  -2.963   5.389  0.00  0.00    +0.031 C 
ATOM     17  C   UNL     1      -3.778  -2.680   4.118  0.00  0.00    +0.106 C 
BRANCH  15  18
ATOM     18  C   UNL     1      -6.616  -2.312   6.667  0.00  0.00    +0.216 C 
ATOM     19  O   UNL     1      -6.790  -1.452   7.504  0.00  0.00    -0.276 OA
ATOM     20  N   UNL     1      -7.159  -3.534   6.834  0.00  0.00    -0.311 N 
ATOM     21  H   UNL     1      -7.019  -4.223   6.165  0.00  0.00    +0.149 HD
BRANCH  20  22
ATOM     22  C   UNL     1      -7.959  -3.824   8.027  0.00  0.00    +0.139 C 
BRANCH  22  23
ATOM     23  C   UNL     1      -8.445  -5.249   7.971  0.00  0.00    -0.030 A 
ATOM     24  C   UNL     1      -9.653  -5.544   7.366  0.00  0.00    +0.008 A 
ATOM     25  C   UNL     1     -10.100  -6.850   7.314  0.00  0.00    +0.038 A 
ATOM     26  C   UNL     1      -9.338  -7.864   7.869  0.00  0.00    +0.123 A 
ATOM     27  C   UNL     1      -8.129  -7.568   8.476  0.00  0.00    +0.038 A 
ATOM     28  C   UNL     1      -7.681  -6.261   8.521  0.00  0.00    +0.008 A 
ATOM     29  F   UNL     1      -9.774  -9.142   7.820  0.00  0.00    -0.205 F 
ENDBRANCH  22  23
ENDBRANCH  20  22
ENDBRANCH  15  18
ENDBRANCH   6  12
BRANCH   1  31
ATOM     30  N   UNL     1      -1.174  -2.224   7.049  0.00  0.00    -0.298 N 
ATOM     31  C   UNL     1      -1.735  -1.191   6.390  0.00  0.00    +0.250 C 
ATOM     32  O   UNL     1      -2.648  -0.569   6.900  0.00  0.00    -0.270 OA
BRANCH  30  34
ATOM     33  C   UNL     1      -0.978  -1.994   9.476  0.00  0.00    +0.024 C 
ATOM     34  C   UNL     1      -1.733  -2.667   8.329  0.00  0.00    +0.104 C 
ENDBRANCH  30  34
BRANCH  30  35
ATOM     35  C   UNL     1      -0.005  -2.904   6.486  0.00  0.00    +0.104 C 
ATOM     36  C   UNL     1      -0.467  -4.058   5.593  0.00  0.00    +0.024 C 
ENDBRANCH  30  35
ENDBRANCH   1  31
TORSDOF 7
