REMARK  Name = ZINC14157960
REMARK  11 active torsions:
REMARK  status: ('A' for Active; 'I' for Inactive)
REMARK    1  A    between atoms: C_1  and  C_2
REMARK    2  A    between atoms: C_4  and  C_34
REMARK    3  A    between atoms: N_10  and  C_11
REMARK    4  A    between atoms: C_11  and  N_13
REMARK    5  A    between atoms: N_13  and  C_14
REMARK    6  A    between atoms: C_14  and  C_15
REMARK    7  A    between atoms: N_21  and  C_22
REMARK    8  A    between atoms: C_22  and  C_23
REMARK    9  A    between atoms: C_23  and  C_24
REMARK   10  A    between atoms: C_27  and  S_30
REMARK   11  A    between atoms: S_30  and  N_33
REMARK                            x       y       z     vdW  Elec       q    Type
REMARK                         _______ _______ _______ _____ _____    ______ ____
ROOT
ATOM      1  C   UNL     1       3.890  -0.318   1.651  0.00  0.00    +0.066 C 
ATOM      2  C   UNL     1       2.868  -1.352   1.255  0.00  0.00    +0.044 A 
ATOM      3  C   UNL     1       3.002  -2.051   0.066  0.00  0.00    +0.046 A 
ATOM      4  C   UNL     1       2.039  -2.994  -0.260  0.00  0.00    +0.044 A 
ATOM      5  N   UNL     1       1.028  -3.197   0.568  0.00  0.00    -0.217 NA
ATOM      6  C   UNL     1       0.930  -2.511   1.697  0.00  0.00    +0.231 A 
ATOM      7  N   UNL     1       1.835  -1.607   2.041  0.00  0.00    -0.217 NA
ATOM      8  N   UNL     1      -0.145  -2.750   2.543  0.00  0.00    -0.297 N 
ATOM      9  C   UNL     1      -0.341  -1.956   3.641  0.00  0.00    +0.195 C 
ATOM     10  N   UNL     1      -0.718  -2.495   4.788  0.00  0.00    -0.160 NA
ATOM     11  N   UNL     1      -0.148  -0.608   3.551  0.00  0.00    -0.357 N 
ATOM     12  C   UNL     1       2.143  -3.778  -1.543  0.00  0.00    +0.066 C 
ATOM     13  H   UNL     1      -0.756  -3.479   2.356  0.00  0.00    +0.171 HD
ATOM     14  H   UNL     1       0.167  -0.111   4.323  0.00  0.00    +0.162 HD
ENDROOT
BRANCH  10  15
ATOM     15  C   UNL     1      -0.978  -3.808   4.857  0.00  0.00    +0.157 C 
ATOM     16  S   UNL     1       0.285  -4.944   4.642  0.00  0.00    -0.017 S 
BRANCH  15  17
ATOM     17  N   UNL     1      -2.234  -4.234   5.097  0.00  0.00    -0.322 N 
ATOM     18  H   UNL     1      -2.950  -3.591   5.219  0.00  0.00    +0.148 HD
BRANCH  17  19
ATOM     19  C   UNL     1      -2.519  -5.670   5.173  0.00  0.00    +0.134 C 
BRANCH  19  20
ATOM     20  C   UNL     1      -4.008  -5.880   5.452  0.00  0.00    +0.135 C 
ATOM     21  C   UNL     1      -4.325  -7.392   5.572  0.00  0.00    +0.035 C 
ATOM     22  C   UNL     1      -5.606  -7.357   6.449  0.00  0.00    +0.031 C 
ATOM     23  C   UNL     1      -5.338  -6.147   7.371  0.00  0.00    +0.160 C 
ATOM     24  O   UNL     1      -4.361  -5.319   6.727  0.00  0.00    -0.375 OA
ENDBRANCH  19  20
ENDBRANCH  17  19
ENDBRANCH  15  17
ENDBRANCH  10  15
BRANCH  11  25
ATOM     25  C   UNL     1      -0.416   0.089   2.291  0.00  0.00    +0.120 C 
BRANCH  25  26
ATOM     26  C   UNL     1      -0.375   1.600   2.524  0.00  0.00    +0.056 C 
BRANCH  26  27
ATOM     27  C   UNL     1      -0.879   2.312   1.295  0.00  0.00    -0.046 A 
ATOM     28  C   UNL     1      -0.004   2.630   0.274  0.00  0.00    +0.005 A 
ATOM     29  C   UNL     1      -0.466   3.283  -0.854  0.00  0.00    +0.029 A 
ATOM     30  C   UNL     1      -1.803   3.618  -0.960  0.00  0.00    +0.105 A 
ATOM     31  C   UNL     1      -2.678   3.299   0.062  0.00  0.00    +0.029 A 
ATOM     32  C   UNL     1      -2.217   2.642   1.187  0.00  0.00    +0.005 A 
BRANCH  30  33
ATOM     33  S   UNL     1      -2.392   4.451  -2.396  0.00  0.00    +0.056 S 
ATOM     34  O   UNL     1      -3.575   5.136  -2.011  0.00  0.00    -0.153 OA
ATOM     35  O   UNL     1      -1.274   5.121  -2.964  0.00  0.00    -0.153 OA
BRANCH  33  36
ATOM     36  N   UNL     1      -2.849   3.289  -3.483  0.00  0.00    -0.204 NA
ATOM     37  H   UNL     1      -3.564   3.470  -4.114  0.00  0.00    +0.144 HD
ATOM     38  H   UNL     1      -2.403   2.428  -3.489  0.00  0.00    +0.144 HD
ENDBRANCH  33  36
ENDBRANCH  30  33
ENDBRANCH  26  27
ENDBRANCH  25  26
ENDBRANCH  11  25
TORSDOF 9
