REMARK  Name = ZINC55108831
REMARK  7 active torsions:
REMARK  status: ('A' for Active; 'I' for Inactive)
REMARK    1  A    between atoms: C_3  and  C_6
REMARK    2  A    between atoms: C_6  and  N_7
REMARK    3  A    between atoms: C_11  and  C_14
REMARK    4  A    between atoms: N_16  and  C_17
REMARK    5  A    between atoms: C_17  and  C_18
REMARK    6  A    between atoms: C_21  and  S_24
REMARK    7  A    between atoms: S_24  and  N_27
REMARK                            x       y       z     vdW  Elec       q    Type
REMARK                         _______ _______ _______ _____ _____    ______ ____
ROOT
ATOM      1  C   UNL     1       7.581   0.194   2.754  0.00  0.00    +0.215 C 
ATOM      2  O   UNL     1       8.175   0.162   1.697  0.00  0.00    -0.276 OA
ATOM      3  N   UNL     1       8.261   0.089   3.912  0.00  0.00    -0.311 N 
ATOM      4  H   UNL     1       7.786   0.115   4.758  0.00  0.00    +0.149 HD
ENDROOT
BRANCH   1   9
ATOM      5  N   UNL     1       4.102   0.606   1.351  0.00  0.00    +0.385 N 
ATOM      6  C   UNL     1       3.741   1.863   2.018  0.00  0.00    -0.078 C 
ATOM      7  C   UNL     1       4.192   1.816   3.480  0.00  0.00    -0.018 C 
ATOM      8  C   UNL     1       5.710   1.625   3.534  0.00  0.00    +0.009 C 
ATOM      9  C   UNL     1       6.082   0.351   2.771  0.00  0.00    +0.058 C 
ATOM     10  C   UNL     1       5.562   0.452   1.336  0.00  0.00    -0.066 C 
ATOM     11  H   UNL     1       3.688  -0.168   1.848  0.00  0.00    -0.081 HD
BRANCH   5  12
ATOM     12  C   UNL     1       3.599   0.625  -0.029  0.00  0.00    -0.003 C 
BRANCH  12  15
ATOM     13  C   UNL     1      -0.016   1.341   0.009  0.00  0.00    +0.041 A 
ATOM     14  C   UNL     1       1.331   1.769  -0.001  0.00  0.00    +0.042 A 
ATOM     15  C   UNL     1       2.092   0.660  -0.014  0.00  0.00    +0.089 A 
ATOM     16  O   UNL     1       1.282  -0.411  -0.012  0.00  0.00    -0.470 OA
ATOM     17  C   UNL     1       0.002  -0.004   0.002  0.00  0.00    +0.195 A 
ENDBRANCH  12  15
ENDBRANCH   5  12
ENDBRANCH   1   9
BRANCH   3  18
ATOM     18  C   UNL     1       9.718  -0.063   3.896  0.00  0.00    +0.139 C 
BRANCH  18  19
ATOM     19  C   UNL     1      10.230  -0.158   5.310  0.00  0.00    -0.030 A 
ATOM     20  C   UNL     1      10.584   0.989   5.995  0.00  0.00    +0.007 A 
ATOM     21  C   UNL     1      11.053   0.903   7.292  0.00  0.00    +0.029 A 
ATOM     22  C   UNL     1      11.168  -0.331   7.905  0.00  0.00    +0.105 A 
ATOM     23  C   UNL     1      10.813  -1.478   7.220  0.00  0.00    +0.029 A 
ATOM     24  C   UNL     1      10.340  -1.391   5.924  0.00  0.00    +0.007 A 
BRANCH  22  25
ATOM     25  S   UNL     1      11.767  -0.442   9.558  0.00  0.00    +0.056 S 
ATOM     26  O   UNL     1      12.295  -1.752   9.712  0.00  0.00    -0.153 OA
ATOM     27  O   UNL     1      12.545   0.725   9.787  0.00  0.00    -0.153 OA
BRANCH  25  28
ATOM     28  N   UNL     1      10.454  -0.340  10.562  0.00  0.00    -0.204 NA
ATOM     29  H   UNL     1      10.465  -0.789  11.422  0.00  0.00    +0.144 HD
ATOM     30  H   UNL     1       9.675   0.169  10.291  0.00  0.00    +0.144 HD
ENDBRANCH  25  28
ENDBRANCH  22  25
ENDBRANCH  18  19
ENDBRANCH   3  18
TORSDOF 7
