REMARK  Name = ZINC09358673
REMARK  18 active torsions:
REMARK  status: ('A' for Active; 'I' for Inactive)
REMARK    1  A    between atoms: C_1  and  C_2
REMARK    2  A    between atoms: C_2  and  N_72
REMARK    3  A    between atoms: C_3  and  C_4
REMARK    4  A    between atoms: C_3  and  N_72
REMARK    5  A    between atoms: C_5  and  C_6
REMARK    6  A    between atoms: C_5  and  N_72
REMARK    7  A    between atoms: C_6  and  N_7
REMARK    8  A    between atoms: C_8  and  C_29
REMARK    9  A    between atoms: C_10  and  C_15
REMARK   10  A    between atoms: C_11  and  O_14
REMARK   11  A    between atoms: C_15  and  C_17
REMARK   12  A    between atoms: C_20  and  O_24
REMARK   13  A    between atoms: C_21  and  C_23
REMARK   14  A    between atoms: O_24  and  C_25
REMARK   15  A    between atoms: C_25  and  C_26
REMARK   16  A    between atoms: C_26  and  C_27
REMARK   17  A    between atoms: C_26  and  C_28
REMARK   18  A    between atoms: C_32  and  N_35
REMARK                            x       y       z     vdW  Elec       q    Type
REMARK                         _______ _______ _______ _____ _____    ______ ____
ROOT
ATOM      1  N   UNL     1      -0.876   2.430   0.141  0.00  0.00    -0.285 N 
ATOM      2  C   UNL     1      -0.292   3.776   0.130  0.00  0.00    +0.144 C 
ATOM      3  C   UNL     1       1.190   3.594   0.363  0.00  0.00    +0.071 C 
ATOM      4  C   UNL     1       1.404   2.265   0.496  0.00  0.00    +0.188 C 
ATOM      5  C   UNL     1       0.117   1.550   0.360  0.00  0.00    +0.282 C 
ATOM      6  O   UNL     1      -0.022   0.345   0.432  0.00  0.00    -0.267 OA
ENDROOT
BRANCH   2   7
ATOM      7  C   UNL     1      -0.530   4.429  -1.207  0.00  0.00    -0.022 A 
ATOM      8  C   UNL     1      -0.383   3.696  -2.370  0.00  0.00    +0.008 A 
ATOM      9  C   UNL     1      -0.606   4.293  -3.597  0.00  0.00    +0.033 A 
ATOM     10  C   UNL     1      -0.967   5.625  -3.661  0.00  0.00    +0.126 A 
ATOM     11  C   UNL     1      -1.109   6.360  -2.499  0.00  0.00    +0.033 A 
ATOM     12  C   UNL     1      -0.891   5.762  -1.272  0.00  0.00    +0.008 A 
BRANCH  10  13
ATOM     13  N   UNL     1      -1.200   6.266  -4.975  0.00  0.00    +0.056 N 
ATOM     14  O   UNL     1      -1.518   7.441  -5.032  0.00  0.00    -0.126 OA
ATOM     15  O   UNL     1      -1.075   5.619  -5.999  0.00  0.00    -0.126 OA
ENDBRANCH  10  13
ENDBRANCH   2   7
BRANCH   4  16
ATOM     16  O   UNL     1       2.604   1.683   0.719  0.00  0.00    -0.502 OA
ATOM     17  H   UNL     1       2.489   0.691   0.777  0.00  0.00    +0.292 HD
ENDBRANCH   4  16
BRANCH   3  18
ATOM     18  C   UNL     1       2.200   4.654   0.432  0.00  0.00    +0.195 C 
ATOM     19  O   UNL     1       3.069   4.723  -0.418  0.00  0.00    -0.287 OA
BRANCH  18  20
ATOM     20  C   UNL     1       2.165   5.638   1.531  0.00  0.00    +0.023 A 
ATOM     21  C   UNL     1       1.216   5.516   2.551  0.00  0.00    +0.015 A 
ATOM     22  C   UNL     1       1.186   6.435   3.575  0.00  0.00    +0.046 A 
ATOM     23  C   UNL     1       2.098   7.485   3.596  0.00  0.00    +0.123 A 
ATOM     24  C   UNL     1       3.042   7.611   2.583  0.00  0.00    -0.008 A 
ATOM     25  C   UNL     1       3.083   6.692   1.559  0.00  0.00    +0.018 A 
ATOM     26  C   UNL     1       4.028   8.751   2.611  0.00  0.00    +0.047 C 
BRANCH  23  27
ATOM     27  O   UNL     1       2.066   8.389   4.607  0.00  0.00    -0.491 OA
BRANCH  27  28
ATOM     28  C   UNL     1       1.069   8.201   5.614  0.00  0.00    +0.232 C 
BRANCH  28  29
ATOM     29  C   UNL     1       1.188   9.310   6.662  0.00  0.00    +0.020 C 
ATOM     30  C   UNL     1       0.045   9.181   7.672  0.00  0.00    +0.010 C 
ATOM     31  C   UNL     1       2.528   9.183   7.389  0.00  0.00    +0.010 C 
ENDBRANCH  28  29
ENDBRANCH  27  28
ENDBRANCH  23  27
ENDBRANCH  18  20
ENDBRANCH   3  18
BRANCH   1  32
ATOM     32  C   UNL     1      -2.291   2.103  -0.051  0.00  0.00    +0.090 C 
BRANCH  32  33
ATOM     33  C   UNL     1      -3.002   2.098   1.304  0.00  0.00    -0.060 C 
BRANCH  33  34
ATOM     34  N   UNL     1      -4.431   1.788   1.092  0.00  0.00    +0.380 N 
ATOM     35  H   UNL     1      -4.807   2.419   0.374  0.00  0.00    -0.082 HD
BRANCH  34  37
ATOM     36  C   UNL     1      -4.077  -0.584   1.694  0.00  0.00    -0.017 C 
ATOM     37  C   UNL     1      -4.582   0.392   0.628  0.00  0.00    -0.082 C 
ENDBRANCH  34  37
BRANCH  34  38
ATOM     38  C   UNL     1      -5.184   1.987   2.348  0.00  0.00    -0.082 C 
ATOM     39  C   UNL     1      -6.679   2.025   2.025  0.00  0.00    -0.017 C 
ENDBRANCH  34  38
ENDBRANCH  33  34
ENDBRANCH  32  33
ENDBRANCH   1  32
TORSDOF 13
