REMARK  Name = ZINC39280198
REMARK  6 active torsions:
REMARK  status: ('A' for Active; 'I' for Inactive)
REMARK    1  A    between atoms: C_7  and  C_10
REMARK    2  A    between atoms: C_10  and  C_11
REMARK    3  A    between atoms: C_11  and  N_12
REMARK    4  A    between atoms: C_13  and  C_15
REMARK    5  A    between atoms: C_17  and  N_31
REMARK    6  A    between atoms: C_22  and  C_26
REMARK                            x       y       z     vdW  Elec       q    Type
REMARK                         _______ _______ _______ _____ _____    ______ ____
ROOT
ATOM      1  C   UNL     1      -5.640   7.159  -2.474  0.00  0.00    +0.128 C 
ATOM      2  C   UNL     1      -5.087   7.960  -3.674  0.00  0.00    -0.019 C 
ATOM      3  C   UNL     1      -5.974   7.835  -4.887  0.00  0.00    -0.028 A 
ATOM      4  C   UNL     1      -5.612   8.072  -6.218  0.00  0.00    +0.007 A 
ATOM      5  C   UNL     1      -6.552   7.928  -7.217  0.00  0.00    +0.029 A 
ATOM      6  C   UNL     1      -7.854   7.548  -6.893  0.00  0.00    +0.079 A 
ATOM      7  N   UNL     1      -8.177   7.321  -5.623  0.00  0.00    -0.240 NA
ATOM      8  C   UNL     1      -7.293   7.444  -4.653  0.00  0.00    +0.100 A 
ATOM      9  S   UNL     1      -7.431   7.167  -2.897  0.00  0.00    -0.094 S 
ENDROOT
BRANCH   6  10
ATOM     10  C   UNL     1      -8.870   7.401  -7.955  0.00  0.00    +0.038 A 
ATOM     11  C   UNL     1     -10.189   7.047  -7.845  0.00  0.00    +0.017 A 
ATOM     12  C   UNL     1     -10.953   6.974  -8.988  0.00  0.00    +0.008 A 
ATOM     13  C   UNL     1     -10.378   7.254 -10.186  0.00  0.00    +0.046 A 
ATOM     14  S   UNL     1      -8.701   7.644  -9.715  0.00  0.00    -0.095 S 
ENDBRANCH   6  10
BRANCH   1  16
ATOM     15  N   UNL     1      -5.649   4.798  -3.213  0.00  0.00    -0.314 N 
ATOM     16  C   UNL     1      -5.088   5.757  -2.449  0.00  0.00    +0.225 C 
ATOM     17  O   UNL     1      -4.140   5.491  -1.741  0.00  0.00    -0.275 OA
ATOM     18  H   UNL     1      -6.407   5.011  -3.779  0.00  0.00    +0.149 HD
BRANCH  15  19
ATOM     19  C   UNL     1      -5.112   3.435  -3.188  0.00  0.00    +0.109 C 
BRANCH  19  20
ATOM     20  C   UNL     1      -5.923   2.550  -4.138  0.00  0.00    +0.056 C 
BRANCH  20  27
ATOM     21  C   UNL     1      -6.663  -1.137  -1.339  0.00  0.00    +0.001 A 
ATOM     22  C   UNL     1      -5.917  -2.250  -1.703  0.00  0.00    +0.002 A 
ATOM     23  C   UNL     1      -5.067  -2.203  -2.786  0.00  0.00    +0.026 A 
ATOM     24  C   UNL     1      -4.953  -1.030  -3.525  0.00  0.00    +0.047 A 
ATOM     25  N   UNL     1      -4.212  -0.673  -4.629  0.00  0.00    -0.360 N 
ATOM     26  C   UNL     1      -4.474   0.628  -4.964  0.00  0.00    +0.087 A 
ATOM     27  C   UNL     1      -5.371   1.148  -4.112  0.00  0.00    -0.021 A 
ATOM     28  C   UNL     1      -5.712   0.095  -3.152  0.00  0.00    +0.003 A 
ATOM     29  C   UNL     1      -6.571   0.024  -2.054  0.00  0.00    +0.010 A 
ATOM     30  H   UNL     1      -3.596  -1.256  -5.099  0.00  0.00    +0.165 HD
ENDBRANCH  20  27
ENDBRANCH  19  20
ENDBRANCH  15  19
ENDBRANCH   1  16
BRANCH   2  31
ATOM     31  N   UNL     1      -3.748   7.457  -4.010  0.00  0.00    +0.384 N 
ATOM     32  H   UNL     1      -3.821   6.514  -4.362  0.00  0.00    -0.089 HD
ATOM     33  H   UNL     1      -3.333   8.048  -4.715  0.00  0.00    -0.089 HD
ATOM     34  H   UNL     1      -3.169   7.464  -3.183  0.00  0.00    -0.089 HD
ENDBRANCH   2  31
TORSDOF 6
