REMARK  Name = ZINC22918458
REMARK  10 active torsions:
REMARK  status: ('A' for Active; 'I' for Inactive)
REMARK    1  A    between atoms: C_3  and  S_28
REMARK    2  A    between atoms: C_6  and  C_7
REMARK    3  A    between atoms: C_7  and  C_8
REMARK    4  A    between atoms: C_8  and  N_9
REMARK    5  A    between atoms: C_10  and  C_12
REMARK    6  A    between atoms: C_12  and  N_13
REMARK    7  A    between atoms: N_16  and  C_19
REMARK    8  A    between atoms: C_19  and  C_20
REMARK    9  A    between atoms: C_23  and  C_26
REMARK   10  A    between atoms: S_28  and  N_31
REMARK                            x       y       z     vdW  Elec       q    Type
REMARK                         _______ _______ _______ _____ _____    ______ ____
ROOT
ATOM      1  N   UNL     1      -3.004  -1.778  -1.420  0.00  0.00    -0.314 N 
ATOM      2  C   UNL     1      -3.594  -2.117  -2.584  0.00  0.00    +0.227 C 
ATOM      3  O   UNL     1      -3.084  -1.801  -3.637  0.00  0.00    -0.274 OA
ATOM      4  H   UNL     1      -3.412  -2.031  -0.578  0.00  0.00    +0.149 HD
ENDROOT
BRANCH   1   5
ATOM      5  C   UNL     1      -1.745  -1.028  -1.429  0.00  0.00    +0.109 C 
BRANCH   5   6
ATOM      6  C   UNL     1      -1.293  -0.775   0.011  0.00  0.00    +0.054 C 
BRANCH   6  12
ATOM      7  C   UNL     1      -0.017   1.378   0.010  0.00  0.00    +0.005 A 
ATOM      8  C   UNL     1       1.171   2.086   0.002  0.00  0.00    +0.029 A 
ATOM      9  C   UNL     1       2.377   1.411  -0.013  0.00  0.00    +0.105 A 
ATOM     10  C   UNL     1       2.396   0.029  -0.020  0.00  0.00    +0.029 A 
ATOM     11  C   UNL     1       1.208  -0.679  -0.012  0.00  0.00    +0.005 A 
ATOM     12  C   UNL     1       0.002  -0.004   0.002  0.00  0.00    -0.046 A 
BRANCH   9  13
ATOM     13  S   UNL     1       3.891   2.312  -0.024  0.00  0.00    +0.056 S 
ATOM     14  O   UNL     1       4.872   1.453  -0.588  0.00  0.00    -0.153 OA
ATOM     15  O   UNL     1       3.597   3.593  -0.566  0.00  0.00    -0.153 OA
BRANCH  13  16
ATOM     16  N   UNL     1       4.327   2.556   1.555  0.00  0.00    -0.204 NA
ATOM     17  H   UNL     1       3.768   2.215   2.271  0.00  0.00    +0.144 HD
ATOM     18  H   UNL     1       5.142   3.039   1.764  0.00  0.00    +0.144 HD
ENDBRANCH  13  16
ENDBRANCH   9  13
ENDBRANCH   6  12
ENDBRANCH   5   6
ENDBRANCH   1   5
BRANCH   2  19
ATOM     19  C   UNL     1      -4.889  -2.888  -2.575  0.00  0.00    +0.180 C 
BRANCH  19  20
ATOM     20  N   UNL     1      -5.323  -3.131  -3.957  0.00  0.00    -0.298 NA
ATOM     21  C   UNL     1      -5.677  -1.872  -4.627  0.00  0.00    +0.066 C 
ATOM     22  C   UNL     1      -6.066  -2.162  -6.079  0.00  0.00    -0.063 C 
ATOM     23  N   UNL     1      -7.206  -3.087  -6.105  0.00  0.00    +0.384 N 
ATOM     24  C   UNL     1      -6.830  -4.349  -5.454  0.00  0.00    -0.063 C 
ATOM     25  C   UNL     1      -6.447  -4.077  -3.997  0.00  0.00    +0.066 C 
ATOM     26  H   UNL     1      -7.985  -2.675  -5.614  0.00  0.00    -0.081 HD
BRANCH  23  27
ATOM     27  C   UNL     1      -7.590  -3.351  -7.498  0.00  0.00    -0.043 C 
BRANCH  27  28
ATOM     28  C   UNL     1      -8.834  -4.201  -7.523  0.00  0.00    -0.064 A 
ATOM     29  C   UNL     1      -8.726  -5.581  -7.529  0.00  0.00    +0.003 A 
ATOM     30  C   UNL     1      -9.860  -6.365  -7.552  0.00  0.00    +0.019 A 
ATOM     31  C   UNL     1     -11.120  -5.764  -7.570  0.00  0.00    +0.052 A 
ATOM     32  C   UNL     1     -11.223  -4.371  -7.564  0.00  0.00    +0.019 A 
ATOM     33  C   UNL     1     -10.080  -3.599  -7.536  0.00  0.00    +0.003 A 
BRANCH  31  34
ATOM     34  C   UNL     1     -12.302  -6.572  -7.594  0.00  0.00    +0.099 C 
ATOM     35  N   UNL     1     -13.240  -7.213  -7.614  0.00  0.00    -0.191 NA
ENDBRANCH  31  34
ENDBRANCH  27  28
ENDBRANCH  23  27
ENDBRANCH  19  20
ENDBRANCH   2  19
TORSDOF 10
