REMARK  Name = ZINC09505366
REMARK  7 active torsions:
REMARK  status: ('A' for Active; 'I' for Inactive)
REMARK    1  A    between atoms: C_4  and  C_7
REMARK    2  A    between atoms: C_7  and  N_58
REMARK    3  A    between atoms: C_13  and  N_17
REMARK    4  A    between atoms: C_14  and  C_15
REMARK    5  A    between atoms: C_18  and  C_20
REMARK    6  A    between atoms: N_25  and  S_26
REMARK    7  A    between atoms: S_26  and  C_29
REMARK                            x       y       z     vdW  Elec       q    Type
REMARK                         _______ _______ _______ _____ _____    ______ ____
ROOT
ATOM      1  C   UNL     1       2.152   1.297  -1.050  0.00  0.00    -0.073 C 
ATOM      2  C   UNL     1       2.401  -0.164  -0.663  0.00  0.00    +0.019 C 
ATOM      3  C   UNL     1       1.063  -0.791  -0.291  0.00  0.00    -0.022 A 
ATOM      4  C   UNL     1       0.002  -0.004   0.002  0.00  0.00    -0.021 A 
ATOM      5  S   UNL     1      -1.311  -1.133   0.361  0.00  0.00    -0.079 S 
ATOM      6  C   UNL     1      -0.466  -2.628   0.129  0.00  0.00    +0.090 A 
ATOM      7  C   UNL     1       0.813  -2.218  -0.223  0.00  0.00    +0.083 A 
ATOM      8  C   UNL     1      -0.018   1.492   0.010  0.00  0.00    -0.035 C 
ATOM      9  N   UNL     1       1.388   1.965   0.023  0.00  0.00    +0.386 N 
ATOM     10  H   UNL     1       1.811   1.731   0.929  0.00  0.00    -0.081 HD
ENDROOT
BRANCH   6  11
ATOM     11  N   UNL     1      -0.950  -3.922   0.260  0.00  0.00    -0.278 N 
ATOM     12  C   UNL     1      -2.235  -4.128   0.613  0.00  0.00    +0.236 C 
ATOM     13  O   UNL     1      -2.967  -3.183   0.815  0.00  0.00    -0.274 OA
ATOM     14  H   UNL     1      -0.365  -4.678   0.099  0.00  0.00    +0.155 HD
BRANCH  12  15
ATOM     15  C   UNL     1      -2.761  -5.533   0.756  0.00  0.00    +0.166 C 
ATOM     16  C   UNL     1      -2.676  -6.266  -0.600  0.00  0.00    +0.031 C 
ATOM     17  C   UNL     1      -3.983  -7.101  -0.626  0.00  0.00    +0.019 C 
ATOM     18  C   UNL     1      -4.975  -6.150   0.088  0.00  0.00    +0.110 C 
ATOM     19  N   UNL     1      -4.178  -5.499   1.145  0.00  0.00    -0.164 NA
BRANCH  19  20
ATOM     20  S   UNL     1      -4.781  -4.839   2.539  0.00  0.00    +0.068 S 
ATOM     21  O   UNL     1      -6.023  -5.482   2.789  0.00  0.00    -0.152 OA
ATOM     22  O   UNL     1      -3.718  -4.842   3.482  0.00  0.00    -0.152 OA
BRANCH  20  23
ATOM     23  C   UNL     1      -5.148  -3.149   2.200  0.00  0.00    +0.143 A 
ATOM     24  C   UNL     1      -6.299  -2.602   1.737  0.00  0.00    +0.036 A 
ATOM     25  C   UNL     1      -6.362  -1.235   1.547  0.00  0.00    +0.010 A 
ATOM     26  C   UNL     1      -5.267  -0.482   1.818  0.00  0.00    +0.047 A 
ATOM     27  S   UNL     1      -4.099  -1.715   2.369  0.00  0.00    -0.077 S 
ENDBRANCH  20  23
ENDBRANCH  19  20
ENDBRANCH  12  15
ENDBRANCH   6  11
BRANCH   7  28
ATOM     28  C   UNL     1       1.846  -3.168  -0.506  0.00  0.00    +0.102 C 
ATOM     29  N   UNL     1       2.666  -3.922  -0.732  0.00  0.00    -0.191 NA
ENDBRANCH   7  28
BRANCH   9  30
ATOM     30  C   UNL     1       1.430   3.431  -0.163  0.00  0.00    -0.043 C 
BRANCH  30  34
ATOM     31  C   UNL     1      -0.264   5.310   3.279  0.00  0.00    +0.000 A 
ATOM     32  C   UNL     1       1.088   5.025   3.243  0.00  0.00    +0.000 A 
ATOM     33  C   UNL     1       1.636   4.417   2.129  0.00  0.00    +0.002 A 
ATOM     34  C   UNL     1       0.832   4.094   1.051  0.00  0.00    -0.064 A 
ATOM     35  C   UNL     1      -0.519   4.385   1.085  0.00  0.00    +0.002 A 
ATOM     36  C   UNL     1      -1.068   4.989   2.201  0.00  0.00    +0.000 A 
ENDBRANCH  30  34
ENDBRANCH   9  30
TORSDOF 7
