REMARK  Name = ZINC20830367
REMARK  9 active torsions:
REMARK  status: ('A' for Active; 'I' for Inactive)
REMARK    1  A    between atoms: C_5  and  C_7
REMARK    2  A    between atoms: C_10  and  S_13
REMARK    3  A    between atoms: N_11  and  N_12
REMARK    4  A    between atoms: S_13  and  C_14
REMARK    5  A    between atoms: C_14  and  C_15
REMARK    6  A    between atoms: C_15  and  C_16
REMARK    7  A    between atoms: N_18  and  C_19
REMARK    8  A    between atoms: C_22  and  S_25
REMARK    9  A    between atoms: S_25  and  N_28
REMARK                            x       y       z     vdW  Elec       q    Type
REMARK                         _______ _______ _______ _____ _____    ______ ____
ROOT
ATOM      1  C   UNL     1       0.001  -1.727  -3.708  0.00  0.00    +0.086 C 
ENDROOT
BRANCH   1   2
ATOM      2  S   UNL     1      -0.015  -0.074  -2.971  0.00  0.00    -0.084 S 
BRANCH   2   6
ATOM      3  C   UNL     1       0.979  -0.352   0.798  0.00  0.00    +0.183 A 
ATOM      4  N   UNL     1       1.033  -1.599   0.393  0.00  0.00    -0.127 NA
ATOM      5  N   UNL     1       0.729  -1.669  -0.854  0.00  0.00    -0.121 NA
ATOM      6  C   UNL     1       0.457  -0.471  -1.320  0.00  0.00    +0.209 A 
ATOM      7  N   UNL     1       0.612   0.410  -0.288  0.00  0.00    -0.224 N 
BRANCH   3  12
ATOM      8  C   UNL     1       0.646   1.488   4.055  0.00  0.00    +0.001 A 
ATOM      9  C   UNL     1       1.782   1.066   4.721  0.00  0.00    +0.001 A 
ATOM     10  C   UNL     1       2.659   0.184   4.115  0.00  0.00    +0.016 A 
ATOM     11  C   UNL     1       2.401  -0.285   2.842  0.00  0.00    +0.029 A 
ATOM     12  C   UNL     1       1.259   0.142   2.163  0.00  0.00    +0.035 A 
ATOM     13  C   UNL     1       0.379   1.032   2.780  0.00  0.00    +0.013 A 
ATOM     14 BR   UNL     1       3.597  -1.497   2.018  0.00  0.00    -0.050 Br
ENDBRANCH   3  12
BRANCH   7  15
ATOM     15  N   UNL     1       0.435   1.764  -0.325  0.00  0.00    -0.295 N 
ATOM     16  H   UNL     1       0.139   2.255  -1.263  0.00  0.00    +0.163 HD
ATOM     17  H   UNL     1       0.588   2.363   0.585  0.00  0.00    +0.163 HD
ENDBRANCH   7  15
ENDBRANCH   2   6
ENDBRANCH   1   2
BRANCH   1  18
ATOM     18  C   UNL     1      -0.389  -1.630  -5.185  0.00  0.00    +0.107 C 
BRANCH  18  19
ATOM     19  C   UNL     1      -0.375  -3.006  -5.799  0.00  0.00    +0.218 C 
ATOM     20  O   UNL     1      -0.083  -3.969  -5.123  0.00  0.00    -0.275 OA
ATOM     21  N   UNL     1      -0.689  -3.167  -7.100  0.00  0.00    -0.285 N 
ATOM     22  H   UNL     1      -0.872  -2.287  -7.734  0.00  0.00    +0.155 HD
BRANCH  21  23
ATOM     23  C   UNL     1      -0.782  -4.452  -7.644  0.00  0.00    +0.033 A 
ATOM     24  C   UNL     1      -0.426  -4.675  -8.968  0.00  0.00    +0.025 A 
ATOM     25  C   UNL     1      -0.513  -5.947  -9.500  0.00  0.00    +0.030 A 
ATOM     26  C   UNL     1      -0.965  -6.995  -8.719  0.00  0.00    +0.105 A 
ATOM     27  C   UNL     1      -1.325  -6.776  -7.402  0.00  0.00    +0.030 A 
ATOM     28  C   UNL     1      -1.234  -5.507  -6.863  0.00  0.00    +0.025 A 
BRANCH  26  29
ATOM     29  S   UNL     1      -1.081  -8.615  -9.404  0.00  0.00    +0.056 S 
ATOM     30  O   UNL     1      -0.169  -8.662 -10.493  0.00  0.00    -0.153 OA
ATOM     31  O   UNL     1      -1.012  -9.523  -8.313  0.00  0.00    -0.153 OA
BRANCH  29  32
ATOM     32  N   UNL     1      -2.598  -8.765 -10.051  0.00  0.00    -0.204 NA
ATOM     33  H   UNL     1      -2.711  -9.767 -10.490  0.00  0.00    +0.144 HD
ATOM     34  H   UNL     1      -2.741  -8.004 -10.832  0.00  0.00    +0.144 HD
ENDBRANCH  29  32
ENDBRANCH  26  29
ENDBRANCH  21  23
ENDBRANCH  18  19
ENDBRANCH   1  18
TORSDOF 9
