REMARK  Name = ZINC40372430
REMARK  6 active torsions:
REMARK  status: ('A' for Active; 'I' for Inactive)
REMARK    1  A    between atoms: C_1  and  C_2
REMARK    2  A    between atoms: C_5  and  C_9
REMARK    3  A    between atoms: C_7  and  C_8
REMARK    4  A    between atoms: N_11  and  C_12
REMARK    5  A    between atoms: C_12  and  C_18
REMARK    6  A    between atoms: N_19  and  O_20
REMARK                            x       y       z     vdW  Elec       q    Type
REMARK                         _______ _______ _______ _____ _____    ______ ____
ROOT
ATOM      1  C   UNL     1       0.016  -6.396  -1.292  0.00  0.00    +0.093 C 
ATOM      2  C   UNL     1      -1.258  -7.048  -0.751  0.00  0.00    +0.033 C 
ATOM      3  C   UNL     1      -2.474  -6.471  -1.478  0.00  0.00    +0.002 C 
ATOM      4  C   UNL     1      -2.354  -6.752  -2.977  0.00  0.00    +0.000 C 
ATOM      5  C   UNL     1      -1.079  -6.100  -3.518  0.00  0.00    +0.002 C 
ATOM      6  C   UNL     1       0.137  -6.678  -2.791  0.00  0.00    +0.033 C 
ENDROOT
BRANCH   1   7
ATOM      7  C   UNL     1       1.214  -6.965  -0.576  0.00  0.00    +0.155 C 
ATOM      8  N   UNL     1       2.127  -7.591  -1.242  0.00  0.00    -0.075 NA
ATOM      9  N   UNL     1       1.335  -6.817   0.788  0.00  0.00    -0.342 N 
ATOM     10  H   UNL     1       0.695  -6.276   1.276  0.00  0.00    +0.144 HD
ATOM     11  H   UNL     1       2.061  -7.254   1.260  0.00  0.00    +0.144 HD
BRANCH   8  12
ATOM     12  O   UNL     1       3.253  -8.125  -0.569  0.00  0.00    -0.408 OA
ATOM     13  H   UNL     1       3.881  -8.575  -1.150  0.00  0.00    +0.328 HD
ENDBRANCH   8  12
ENDBRANCH   1   7
BRANCH   1  16
ATOM     14  C   UNL     1       0.994  -4.168  -1.432  0.00  0.00    +0.245 C 
ATOM     15  O   UNL     1       2.014  -4.673  -1.859  0.00  0.00    -0.270 OA
ATOM     16  N   UNL     1      -0.044  -4.949  -1.070  0.00  0.00    -0.299 N 
ATOM     17  H   UNL     1      -0.830  -4.553  -0.663  0.00  0.00    +0.150 HD
BRANCH  14  22
ATOM     18  C   UNL     1       0.593   1.552  -0.956  0.00  0.00    +0.044 C 
ATOM     19  C   UNL     1       0.698   0.054  -1.081  0.00  0.00    -0.047 A 
ATOM     20  C   UNL     1      -0.369  -0.744  -0.709  0.00  0.00    +0.004 A 
ATOM     21  C   UNL     1      -0.280  -2.116  -0.821  0.00  0.00    +0.013 A 
ATOM     22  C   UNL     1       0.891  -2.699  -1.310  0.00  0.00    +0.037 A 
ATOM     23  C   UNL     1       1.963  -1.887  -1.683  0.00  0.00    +0.016 A 
ATOM     24  C   UNL     1       1.859  -0.516  -1.571  0.00  0.00    -0.047 A 
ATOM     25  C   UNL     1       3.014   0.362  -1.979  0.00  0.00    +0.044 C 
ENDBRANCH  14  22
ENDBRANCH   1  16
TORSDOF 4
