REMARK  Name = ZINC09777282
REMARK  7 active torsions:
REMARK  status: ('A' for Active; 'I' for Inactive)
REMARK    1  A    between atoms: C_1  and  C_2
REMARK    2  A    between atoms: C_4  and  C_43
REMARK    3  A    between atoms: C_6  and  N_8
REMARK    4  A    between atoms: C_9  and  C_11
REMARK    5  A    between atoms: N_22  and  C_34
REMARK    6  A    between atoms: C_23  and  C_25
REMARK    7  A    between atoms: N_27  and  C_28
REMARK                            x       y       z     vdW  Elec       q    Type
REMARK                         _______ _______ _______ _____ _____    ______ ____
ROOT
ATOM      1  C   UNL     1       3.266   2.736  -3.474  0.00  0.00    +0.123 C 
ATOM      2  C   UNL     1       3.351   4.184  -2.893  0.00  0.00    +0.155 C 
ATOM      3  C   UNL     1       2.861   5.135  -3.991  0.00  0.00    +0.004 C 
ATOM      4  C   UNL     1       1.534   4.984  -4.085  0.00  0.00    +0.009 C 
ATOM      5  C   UNL     1       1.228   3.927  -3.085  0.00  0.00    +0.127 C 
ATOM      6  C   UNL     1       1.750   2.564  -3.673  0.00  0.00    +0.128 C 
ATOM      7  C   UNL     1       1.097   1.583  -2.741  0.00  0.00    +0.224 C 
ATOM      8  O   UNL     1       1.507   0.468  -2.496  0.00  0.00    -0.275 OA
ATOM      9  N   UNL     1      -0.024   2.140  -2.218  0.00  0.00    -0.283 N 
ATOM     10  C   UNL     1      -0.153   3.557  -2.635  0.00  0.00    +0.199 C 
ATOM     11  O   UNL     1       2.172   4.172  -2.009  0.00  0.00    -0.358 OA
ENDROOT
BRANCH   9  12
ATOM     12  C   UNL     1      -0.981   1.435  -1.361  0.00  0.00    +0.077 C 
ATOM     13  C   UNL     1      -0.270   0.942  -0.100  0.00  0.00    +0.022 C 
ATOM     14  C   UNL     1      -1.031   1.422   1.137  0.00  0.00    +0.002 C 
ATOM     15  C   UNL     1      -2.532   1.216   0.924  0.00  0.00    +0.000 C 
ATOM     16  C   UNL     1      -2.872  -0.266   1.091  0.00  0.00    +0.000 C 
ATOM     17  C   UNL     1      -2.426  -1.036  -0.154  0.00  0.00    +0.000 C 
ATOM     18  C   UNL     1      -2.822  -0.252  -1.407  0.00  0.00    +0.002 C 
ATOM     19  C   UNL     1      -1.562   0.240  -2.120  0.00  0.00    +0.022 C 
ENDBRANCH   9  12
BRANCH   1  21
ATOM     20  N   UNL     1       4.305   0.558  -2.929  0.00  0.00    -0.285 N 
ATOM     21  C   UNL     1       3.799   1.728  -2.489  0.00  0.00    +0.224 C 
ATOM     22  O   UNL     1       3.772   1.968  -1.301  0.00  0.00    -0.275 OA
ATOM     23  H   UNL     1       4.388   0.394  -3.881  0.00  0.00    +0.155 HD
BRANCH  20  29
ATOM     24  C   UNL     1       6.315  -0.604   1.404  0.00  0.00    +0.044 C 
ATOM     25  C   UNL     1       5.687  -1.009   0.096  0.00  0.00    -0.048 A 
ATOM     26  C   UNL     1       5.509  -2.349  -0.199  0.00  0.00    +0.006 A 
ATOM     27  C   UNL     1       4.933  -2.725  -1.398  0.00  0.00    -0.048 A 
ATOM     28  C   UNL     1       4.532  -1.764  -2.305  0.00  0.00    +0.026 A 
ATOM     29  C   UNL     1       4.709  -0.418  -2.012  0.00  0.00    +0.034 A 
ATOM     30  C   UNL     1       5.293  -0.043  -0.809  0.00  0.00    +0.026 A 
ATOM     31  C   UNL     1       4.741  -4.186  -1.715  0.00  0.00    +0.044 C 
ENDBRANCH  20  29
ENDBRANCH   1  21
BRANCH  10  32
ATOM     32  C   UNL     1      -1.135   3.687  -3.770  0.00  0.00    +0.237 C 
ATOM     33  O   UNL     1      -1.433   2.713  -4.428  0.00  0.00    -0.274 OA
ATOM     34  N   UNL     1      -1.683   4.885  -4.054  0.00  0.00    -0.311 N 
ATOM     35  H   UNL     1      -1.445   5.664  -3.528  0.00  0.00    +0.149 HD
BRANCH  34  36
ATOM     36  C   UNL     1      -2.638   5.011  -5.158  0.00  0.00    +0.073 C 
ATOM     37  C   UNL     1      -1.877   5.212  -6.470  0.00  0.00    +0.022 C 
ATOM     38  C   UNL     1      -2.875   5.343  -7.623  0.00  0.00    +0.002 C 
ATOM     39  C   UNL     1      -3.787   6.546  -7.373  0.00  0.00    +0.000 C 
ATOM     40  C   UNL     1      -4.548   6.345  -6.061  0.00  0.00    +0.002 C 
ATOM     41  C   UNL     1      -3.550   6.213  -4.908  0.00  0.00    +0.022 C 
ENDBRANCH  34  36
ENDBRANCH  10  32
TORSDOF 5
