REMARK  Name = ZINC08876554
REMARK  5 active torsions:
REMARK  status: ('A' for Active; 'I' for Inactive)
REMARK    1  A    between atoms: C_1  and  O_2
REMARK    2  A    between atoms: O_2  and  C_3
REMARK    3  A    between atoms: C_7  and  N_9
REMARK    4  A    between atoms: C_14  and  C_30
REMARK    5  A    between atoms: C_30  and  C_31
REMARK                            x       y       z     vdW  Elec       q    Type
REMARK                         _______ _______ _______ _____ _____    ______ ____
ROOT
ATOM      1  N   UNL     1      -2.462   4.107   0.049  0.00  0.00    -0.210 N 
ATOM      2  C   UNL     1      -3.644   3.486  -0.041  0.00  0.00    +0.228 C 
ATOM      3  O   UNL     1      -3.800   2.288  -0.143  0.00  0.00    -0.275 OA
ATOM      4  C   UNL     1      -4.755   4.511   0.005  0.00  0.00    +0.074 C 
ATOM      5  C   UNL     1      -5.436   4.581  -1.378  0.00  0.00    -0.053 C 
ATOM      6  C   UNL     1      -4.305   6.613  -1.156  0.00  0.00    +0.050 C 
ATOM      7  C   UNL     1      -3.993   5.859   0.142  0.00  0.00    +0.088 C 
ATOM      8  C   UNL     1      -2.541   5.438   0.160  0.00  0.00    +0.229 C 
ATOM      9  O   UNL     1      -1.596   6.191   0.257  0.00  0.00    -0.275 OA
ATOM     10  C   UNL     1      -3.189   6.480  -2.152  0.00  0.00    -0.028 A 
ATOM     11  C   UNL     1      -2.591   5.403  -2.769  0.00  0.00    +0.004 A 
ATOM     12  C   UNL     1      -1.557   5.604  -3.665  0.00  0.00    +0.000 A 
ATOM     13  C   UNL     1      -1.126   6.889  -3.941  0.00  0.00    +0.002 A 
ATOM     14  C   UNL     1      -1.721   7.971  -3.326  0.00  0.00    +0.023 A 
ATOM     15  C   UNL     1      -2.763   7.777  -2.422  0.00  0.00    +0.036 A 
ATOM     16  N   UNL     1      -3.514   8.695  -1.684  0.00  0.00    -0.286 N 
ATOM     17  C   UNL     1      -4.440   8.091  -0.914  0.00  0.00    +0.211 C 
ATOM     18  O   UNL     1      -5.230   8.635  -0.172  0.00  0.00    -0.277 OA
ATOM     19  H   UNL     1      -3.383   9.655  -1.721  0.00  0.00    +0.155 HD
ATOM     20  N   UNL     1      -5.532   6.016  -1.653  0.00  0.00    +0.394 N 
ATOM     21  H   UNL     1      -6.344   6.417  -1.168  0.00  0.00    -0.083 HD
ATOM     22  H   UNL     1      -5.622   6.179  -2.663  0.00  0.00    -0.083 HD
ENDROOT
BRANCH   1  27
ATOM     23  C   UNL     1       0.766   2.717   1.147  0.00  0.00    +0.122 A 
ATOM     24  C   UNL     1       1.171   2.058  -0.005  0.00  0.00    +0.046 A 
ATOM     25  C   UNL     1       0.373   2.079  -1.133  0.00  0.00    +0.005 A 
ATOM     26  C   UNL     1      -0.831   2.757  -1.117  0.00  0.00    +0.024 A 
ATOM     27  C   UNL     1      -1.241   3.419   0.033  0.00  0.00    +0.047 A 
ATOM     28  C   UNL     1      -0.444   3.393   1.168  0.00  0.00    +0.069 A 
BRANCH  23  30
ATOM     29  C   UNL     1       2.783   1.974   2.163  0.00  0.00    +0.277 C 
ATOM     30  O   UNL     1       1.552   2.695   2.255  0.00  0.00    -0.495 OA
ENDBRANCH  23  30
ENDBRANCH   1  27
BRANCH   5  31
ATOM     31  C   UNL     1      -6.820   3.929  -1.324  0.00  0.00    +0.022 C 
BRANCH  31  32
ATOM     32  C   UNL     1      -7.415   3.898  -2.708  0.00  0.00    -0.024 A 
ATOM     33  C   UNL     1      -8.254   4.803  -3.237  0.00  0.00    +0.087 A 
ATOM     34  N   UNL     1      -8.582   4.443  -4.516  0.00  0.00    -0.360 N 
ATOM     35  H   UNL     1      -9.175   4.942  -5.100  0.00  0.00    +0.165 HD
ATOM     36  C   UNL     1      -7.946   3.269  -4.850  0.00  0.00    +0.047 A 
ATOM     37  C   UNL     1      -7.183   2.879  -3.734  0.00  0.00    +0.003 A 
ATOM     38  C   UNL     1      -6.428   1.705  -3.783  0.00  0.00    +0.010 A 
ATOM     39  C   UNL     1      -6.425   0.947  -4.920  0.00  0.00    +0.001 A 
ATOM     40  C   UNL     1      -7.173   1.330  -6.024  0.00  0.00    +0.002 A 
ATOM     41  C   UNL     1      -7.929   2.481  -5.996  0.00  0.00    +0.026 A 
ENDBRANCH  31  32
ENDBRANCH   5  31
TORSDOF 4
