REMARK  Name = ZINC12885428
REMARK  12 active torsions:
REMARK  status: ('A' for Active; 'I' for Inactive)
REMARK    1  A    between atoms: C_1  and  C_2
REMARK    2  A    between atoms: C_4  and  C_40
REMARK    3  A    between atoms: C_13  and  C_15
REMARK    4  A    between atoms: C_15  and  C_16
REMARK    5  A    between atoms: C_16  and  C_17
REMARK    6  A    between atoms: N_22  and  C_25
REMARK    7  A    between atoms: C_25  and  C_26
REMARK    8  A    between atoms: C_26  and  C_27
REMARK    9  A    between atoms: C_30  and  O_35
REMARK   10  A    between atoms: C_31  and  O_33
REMARK   11  A    between atoms: O_33  and  C_34
REMARK   12  A    between atoms: O_35  and  C_36
REMARK                            x       y       z     vdW  Elec       q    Type
REMARK                         _______ _______ _______ _____ _____    ______ ____
ROOT
ATOM      1  C   UNL     1       3.246   8.501  -0.245  0.00  0.00    +0.044 C 
ATOM      2  C   UNL     1       2.275   7.702   0.587  0.00  0.00    -0.050 A 
ATOM      3  C   UNL     1       1.425   8.346   1.468  0.00  0.00    +0.008 A 
ATOM      4  C   UNL     1       0.534   7.621   2.232  0.00  0.00    -0.029 A 
ATOM      5  C   UNL     1       0.484   6.233   2.121  0.00  0.00    +0.039 A 
ATOM      6  C   UNL     1       1.345   5.596   1.232  0.00  0.00    -0.027 A 
ATOM      7  C   UNL     1       2.232   6.324   0.471  0.00  0.00    +0.008 A 
ATOM      8  C   UNL     1       1.046   4.129   1.351  0.00  0.00    +0.050 C 
ATOM      9  C   UNL     1       0.607   3.532   0.009  0.00  0.00    +0.088 C 
ATOM     10  C   UNL     1       1.208   2.098   0.002  0.00  0.00    +0.073 C 
ATOM     11  C   UNL     1       1.935   1.968   1.357  0.00  0.00    -0.057 C 
ATOM     12  C   UNL     1      -0.014   1.208   0.009  0.00  0.00    +0.224 C 
ATOM     13  O   UNL     1       0.002  -0.004   0.002  0.00  0.00    -0.275 OA
ATOM     14  N   UNL     1      -1.117   1.966   0.017  0.00  0.00    -0.241 N 
ATOM     15  C   UNL     1      -0.885   3.284   0.024  0.00  0.00    +0.225 C 
ATOM     16  O   UNL     1      -1.738   4.145   0.034  0.00  0.00    -0.275 OA
ATOM     17  C   UNL     1      -0.048   4.035   2.379  0.00  0.00    +0.211 C 
ATOM     18  O   UNL     1      -0.585   3.021   2.775  0.00  0.00    -0.277 OA
ATOM     19  N   UNL     1      -0.316   5.294   2.775  0.00  0.00    -0.286 N 
ATOM     20  C   UNL     1      -0.388   8.332   3.188  0.00  0.00    +0.045 C 
ATOM     21  H   UNL     1      -0.987   5.522   3.438  0.00  0.00    +0.155 HD
ATOM     22  N   UNL     1       2.209   3.353   1.747  0.00  0.00    +0.394 N 
ATOM     23  H   UNL     1       2.348   3.415   2.762  0.00  0.00    -0.083 HD
ATOM     24  H   UNL     1       3.047   3.699   1.264  0.00  0.00    -0.083 HD
ENDROOT
BRANCH  11  25
ATOM     25  C   UNL     1       3.230   1.169   1.192  0.00  0.00    -0.006 C 
BRANCH  25  26
ATOM     26  C   UNL     1       3.870   0.945   2.563  0.00  0.00    +0.094 C 
BRANCH  26  27
ATOM     27  C   UNL     1       5.144   0.158   2.400  0.00  0.00    +0.210 C 
ATOM     28  O   UNL     1       5.506  -0.190   1.296  0.00  0.00    -0.276 OA
ATOM     29  N   UNL     1       5.883  -0.159   3.482  0.00  0.00    -0.329 N 
ATOM     30  H   UNL     1       5.595   0.119   4.365  0.00  0.00    +0.145 HD
ATOM     31  H   UNL     1       6.704  -0.666   3.377  0.00  0.00    +0.145 HD
ENDBRANCH  26  27
ENDBRANCH  25  26
ENDBRANCH  11  25
BRANCH  14  32
ATOM     32  C   UNL     1      -2.468   1.399   0.023  0.00  0.00    +0.121 C 
BRANCH  32  33
ATOM     33  C   UNL     1      -2.930   1.198   1.468  0.00  0.00    +0.054 C 
BRANCH  33  34
ATOM     34  C   UNL     1      -4.320   0.615   1.474  0.00  0.00    -0.042 A 
ATOM     35  C   UNL     1      -5.419   1.454   1.488  0.00  0.00    +0.007 A 
ATOM     36  C   UNL     1      -6.696   0.924   1.488  0.00  0.00    +0.049 A 
ATOM     37  C   UNL     1      -6.876  -0.450   1.485  0.00  0.00    +0.161 A 
ATOM     38  C   UNL     1      -5.769  -1.294   1.477  0.00  0.00    +0.162 A 
ATOM     39  C   UNL     1      -4.492  -0.756   1.471  0.00  0.00    +0.053 A 
BRANCH  38  40
ATOM     40  O   UNL     1      -5.941  -2.643   1.474  0.00  0.00    -0.491 OA
ATOM     41  C   UNL     1      -4.760  -3.447   1.466  0.00  0.00    +0.277 C 
ENDBRANCH  38  40
BRANCH  37  42
ATOM     42  O   UNL     1      -8.132  -0.973   1.491  0.00  0.00    -0.491 OA
ATOM     43  C   UNL     1      -9.220  -0.047   1.500  0.00  0.00    +0.277 C 
ENDBRANCH  37  42
ENDBRANCH  33  34
ENDBRANCH  32  33
ENDBRANCH  14  32
TORSDOF 8
