REMARK  Name = ZINC63900996
REMARK  15 active torsions:
REMARK  status: ('A' for Active; 'I' for Inactive)
REMARK    1  A    between atoms: C_1  and  C_2
REMARK    2  A    between atoms: C_2  and  C_3
REMARK    3  A    between atoms: C_2  and  C_4
REMARK    4  A    between atoms: C_4  and  N_5
REMARK    5  A    between atoms: C_6  and  N_37
REMARK    6  A    between atoms: C_8  and  C_15
REMARK    7  A    between atoms: N_11  and  C_14
REMARK    8  A    between atoms: C_15  and  C_17
REMARK    9  A    between atoms: C_17  and  O_18
REMARK   10  A    between atoms: O_18  and  C_19
REMARK   11  A    between atoms: C_19  and  C_21
REMARK   12  A    between atoms: C_21  and  C_23
REMARK   13  A    between atoms: C_21  and  N_33
REMARK   14  A    between atoms: C_23  and  C_24
REMARK   15  A    between atoms: C_34  and  C_36
REMARK                            x       y       z     vdW  Elec       q    Type
REMARK                         _______ _______ _______ _____ _____    ______ ____
ROOT
ATOM      1  O   UNL     1       0.204   5.242   4.671  0.00  0.00    -0.455 OA
ENDROOT
BRANCH   1   2
ATOM      2  C   UNL     1       0.952   6.267   4.232  0.00  0.00    +0.328 C 
ATOM      3  O   UNL     1       1.574   6.164   3.201  0.00  0.00    -0.249 OA
BRANCH   2   4
ATOM      4  C   UNL     1       1.017   7.547   5.026  0.00  0.00    +0.186 C 
BRANCH   4   5
ATOM      5  N   UNL     1       1.470   8.637   4.159  0.00  0.00    -0.302 N 
ATOM      6  C   UNL     1       2.675   8.565   3.559  0.00  0.00    +0.211 C 
ATOM      7  O   UNL     1       3.384   7.597   3.738  0.00  0.00    -0.276 OA
ATOM      8  C   UNL     1       3.141   9.686   2.667  0.00  0.00    +0.109 C 
ATOM      9  H   UNL     1       0.903   9.411   4.016  0.00  0.00    +0.150 HD
ENDBRANCH   4   5
BRANCH   4  10
ATOM     10  C   UNL     1       1.998   7.378   6.188  0.00  0.00    +0.067 C 
BRANCH  10  11
ATOM     11  C   UNL     1       1.971   8.612   7.052  0.00  0.00    -0.039 C 
ATOM     12  C   UNL     1       1.243   8.802   8.176  0.00  0.00    -0.001 A 
ATOM     13  C   UNL     1       0.293   7.950   8.901  0.00  0.00    +0.010 A 
ATOM     14  C   UNL     1      -0.293   8.428  10.022  0.00  0.00    +0.001 A 
ATOM     15  C   UNL     1      -0.018   9.714  10.507  0.00  0.00    +0.002 A 
ATOM     16  C   UNL     1       0.843  10.555   9.896  0.00  0.00    +0.026 A 
ATOM     17  C   UNL     1       1.517  10.156   8.709  0.00  0.00    +0.043 A 
ATOM     18  N   UNL     1       2.381  10.778   7.944  0.00  0.00    -0.380 N 
ATOM     19  C   UNL     1       2.758   9.886   6.842  0.00  0.00    +0.144 C 
ATOM     20  H   UNL     1       2.718  11.676   8.086  0.00  0.00    +0.160 HD
ENDBRANCH  10  11
ENDBRANCH   4  10
ENDBRANCH   2   4
ENDBRANCH   1   2
BRANCH   1  21
ATOM     21  C   UNL     1       0.190   4.060   3.868  0.00  0.00    +0.311 C 
BRANCH  21  22
ATOM     22  C   UNL     1      -0.696   3.026   4.514  0.00  0.00    +0.204 C 
ATOM     23  O   UNL     1      -1.336   3.309   5.509  0.00  0.00    -0.288 OA
BRANCH  22  26
ATOM     24  N   UNL     1      -0.085  -0.048   2.301  0.00  0.00    -0.265 N 
ATOM     25  C   UNL     1       0.084   1.327   2.800  0.00  0.00    +0.183 C 
ATOM     26  C   UNL     1      -0.783   1.745   3.970  0.00  0.00    +0.095 C 
ATOM     27  C   UNL     1      -1.662   0.810   4.477  0.00  0.00    +0.256 C 
ATOM     28  O   UNL     1      -2.455   1.134   5.518  0.00  0.00    -0.270 OA
ATOM     29  N   UNL     1      -1.736  -0.442   3.934  0.00  0.00    -0.225 N 
ATOM     30  C   UNL     1      -0.991  -0.846   2.898  0.00  0.00    +0.313 C 
ATOM     31  O   UNL     1      -1.133  -1.980   2.483  0.00  0.00    -0.252 OA
ATOM     32  C   UNL     1      -2.687  -1.393   4.514  0.00  0.00    +0.143 C 
BRANCH  25  33
ATOM     33  N   UNL     1      -0.183   2.248   1.687  0.00  0.00    -0.309 NA
ATOM     34  H   UNL     1       0.513   2.151   0.962  0.00  0.00    +0.120 HD
ATOM     35  H   UNL     1      -1.111   2.109   1.318  0.00  0.00    +0.120 HD
ENDBRANCH  25  33
BRANCH  24  36
ATOM     36  C   UNL     1       0.712  -0.537   1.173  0.00  0.00    +0.114 C 
BRANCH  36  38
ATOM     37  C   UNL     1       1.848  -2.243   2.601  0.00  0.00    +0.009 C 
ATOM     38  C   UNL     1       2.064  -1.038   1.684  0.00  0.00    +0.000 C 
ATOM     39  C   UNL     1       2.936  -1.450   0.496  0.00  0.00    +0.009 C 
ENDBRANCH  36  38
ENDBRANCH  24  36
ENDBRANCH  22  26
ENDBRANCH  21  22
ENDBRANCH   1  21
TORSDOF 11
