REMARK  Name = ZINC10149601
REMARK  11 active torsions:
REMARK  status: ('A' for Active; 'I' for Inactive)
REMARK    1  A    between atoms: C_1  and  C_2
REMARK    2  A    between atoms: C_2  and  C_3
REMARK    3  A    between atoms: C_4  and  C_31
REMARK    4  A    between atoms: C_6  and  N_11
REMARK    5  A    between atoms: C_7  and  C_8
REMARK    6  A    between atoms: C_12  and  C_14
REMARK    7  A    between atoms: C_14  and  C_16
REMARK    8  A    between atoms: C_14  and  O_18
REMARK    9  A    between atoms: C_16  and  C_17
REMARK   10  A    between atoms: O_18  and  C_19
REMARK   11  A    between atoms: C_22  and  C_25
REMARK                            x       y       z     vdW  Elec       q    Type
REMARK                         _______ _______ _______ _____ _____    ______ ____
ROOT
ATOM      1  N   UNL     1       7.408  -4.286  -0.688  0.00  0.00    -0.276 N 
ATOM      2  C   UNL     1       7.281  -2.949  -0.579  0.00  0.00    +0.258 C 
ATOM      3  O   UNL     1       8.162  -2.221  -0.984  0.00  0.00    -0.271 OA
ATOM      4  H   UNL     1       6.703  -4.869  -0.364  0.00  0.00    +0.155 HD
ENDROOT
BRANCH   1   8
ATOM      5  C   UNL     1      10.125  -6.456  -2.091  0.00  0.00    -0.024 A 
ATOM      6  C   UNL     1      10.893  -5.405  -2.430  0.00  0.00    -0.008 A 
ATOM      7  S   UNL     1       9.922  -4.004  -1.914  0.00  0.00    -0.078 S 
ATOM      8  C   UNL     1       8.547  -4.830  -1.263  0.00  0.00    +0.084 A 
ATOM      9  C   UNL     1       8.858  -6.170  -1.462  0.00  0.00    +0.068 A 
ATOM     10  C   UNL     1      12.247  -5.411  -3.092  0.00  0.00    +0.052 C 
BRANCH   9  11
ATOM     11  C   UNL     1       7.944  -7.241  -1.052  0.00  0.00    +0.244 C 
ATOM     12  O   UNL     1       7.102  -7.653  -1.828  0.00  0.00    -0.270 OA
ATOM     13  N   UNL     1       8.036  -7.769   0.185  0.00  0.00    -0.325 N 
ATOM     14  H   UNL     1       8.707  -7.441   0.803  0.00  0.00    +0.145 HD
ATOM     15  H   UNL     1       7.432  -8.477   0.456  0.00  0.00    +0.145 HD
ENDBRANCH   9  11
BRANCH   5  17
ATOM     16  C   UNL     1      10.086  -8.306  -3.742  0.00  0.00    +0.009 C 
ATOM     17  C   UNL     1      10.569  -7.871  -2.356  0.00  0.00    +0.033 C 
ENDBRANCH   5  17
ENDBRANCH   1   8
BRANCH   2  18
ATOM     18  C   UNL     1       6.043  -2.358   0.045  0.00  0.00    +0.259 C 
BRANCH  18  19
ATOM     19  C   UNL     1       5.975  -2.760   1.520  0.00  0.00    +0.051 C 
ATOM     20  C   UNL     1       4.658  -2.266   2.123  0.00  0.00    +0.008 C 
ENDBRANCH  18  19
BRANCH  18  21
ATOM     21  O   UNL     1       6.091  -0.934  -0.059  0.00  0.00    -0.480 OA
BRANCH  21  22
ATOM     22  C   UNL     1       4.907  -0.288  -0.230  0.00  0.00    +0.122 A 
ATOM     23  C   UNL     1       3.732  -1.016  -0.352  0.00  0.00    +0.046 A 
ATOM     24  C   UNL     1       2.529  -0.364  -0.525  0.00  0.00    +0.012 A 
ATOM     25  C   UNL     1       2.495   1.028  -0.578  0.00  0.00    -0.018 A 
ATOM     26  C   UNL     1       3.678   1.757  -0.461  0.00  0.00    +0.012 A 
ATOM     27  C   UNL     1       4.876   1.099  -0.283  0.00  0.00    +0.046 A 
BRANCH  25  28
ATOM     28  C   UNL     1       1.203   1.734  -0.764  0.00  0.00    -0.018 A 
ATOM     29  C   UNL     1       1.167   3.126  -0.817  0.00  0.00    +0.008 A 
ATOM     30  C   UNL     1      -0.038   3.777  -0.986  0.00  0.00    +0.001 A 
ATOM     31  C   UNL     1      -1.208   3.049  -1.113  0.00  0.00    +0.000 A 
ATOM     32  C   UNL     1      -1.178   1.667  -1.061  0.00  0.00    +0.001 A 
ATOM     33  C   UNL     1       0.021   1.006  -0.888  0.00  0.00    +0.008 A 
ENDBRANCH  25  28
ENDBRANCH  21  22
ENDBRANCH  18  21
ENDBRANCH   2  18
TORSDOF 8
