REMARK  Name = ZINC03416475
REMARK  9 active torsions:
REMARK  status: ('A' for Active; 'I' for Inactive)
REMARK    1  A    between atoms: C_3  and  S_8
REMARK    2  A    between atoms: S_8  and  N_11
REMARK    3  A    between atoms: N_11  and  C_12
REMARK    4  A    between atoms: C_12  and  C_13
REMARK    5  A    between atoms: N_15  and  C_16
REMARK    6  A    between atoms: C_16  and  C_17
REMARK    7  A    between atoms: C_17  and  C_18
REMARK    8  A    between atoms: C_21  and  S_24
REMARK    9  A    between atoms: S_24  and  N_27
REMARK                            x       y       z     vdW  Elec       q    Type
REMARK                         _______ _______ _______ _____ _____    ______ ____
ROOT
ATOM      1  C   UNL     1       5.372   1.901   3.645  0.00  0.00    +0.229 C 
ATOM      2  O   UNL     1       5.566   3.088   3.805  0.00  0.00    -0.274 OA
ATOM      3  N   UNL     1       5.784   1.020   4.578  0.00  0.00    -0.314 N 
ATOM      4  H   UNL     1       5.629   0.070   4.450  0.00  0.00    +0.149 HD
ENDROOT
BRANCH   1   5
ATOM      5  C   UNL     1       4.671   1.413   2.404  0.00  0.00    +0.201 C 
BRANCH   5   6
ATOM      6  N   UNL     1       4.327   2.556   1.555  0.00  0.00    -0.181 NA
ATOM      7  H   UNL     1       4.355   3.455   1.918  0.00  0.00    +0.149 HD
BRANCH   6   8
ATOM      8  S   UNL     1       3.891   2.314  -0.024  0.00  0.00    +0.059 S 
ATOM      9  O   UNL     1       4.872   1.456  -0.589  0.00  0.00    -0.153 OA
ATOM     10  O   UNL     1       3.596   3.595  -0.565  0.00  0.00    -0.153 OA
BRANCH   8  13
ATOM     11  C   UNL     1      -0.017   1.378   0.010  0.00  0.00    +0.003 A 
ATOM     12  C   UNL     1       1.171   2.086   0.002  0.00  0.00    +0.028 A 
ATOM     13  C   UNL     1       2.378   1.411  -0.013  0.00  0.00    +0.106 A 
ATOM     14  C   UNL     1       2.397   0.029  -0.022  0.00  0.00    +0.043 A 
ATOM     15  C   UNL     1       1.210  -0.679  -0.014  0.00  0.00    +0.020 A 
ATOM     16  C   UNL     1       0.002  -0.004   0.002  0.00  0.00    +0.015 A 
ATOM     17 BR   UNL     1       1.236  -2.570  -0.025  0.00  0.00    -0.050 Br
ENDBRANCH   8  13
ENDBRANCH   6   8
ENDBRANCH   5   6
ENDBRANCH   1   5
BRANCH   3  18
ATOM     18  C   UNL     1       6.466   1.494   5.784  0.00  0.00    +0.109 C 
BRANCH  18  19
ATOM     19  C   UNL     1       6.825   0.300   6.671  0.00  0.00    +0.054 C 
BRANCH  19  20
ATOM     20  C   UNL     1       7.526   0.788   7.912  0.00  0.00    -0.046 A 
ATOM     21  C   UNL     1       8.902   0.921   7.921  0.00  0.00    +0.005 A 
ATOM     22  C   UNL     1       9.546   1.369   9.060  0.00  0.00    +0.029 A 
ATOM     23  C   UNL     1       8.813   1.685  10.188  0.00  0.00    +0.105 A 
ATOM     24  C   UNL     1       7.437   1.554  10.179  0.00  0.00    +0.029 A 
ATOM     25  C   UNL     1       6.793   1.110   9.039  0.00  0.00    +0.005 A 
BRANCH  23  26
ATOM     26  S   UNL     1       9.633   2.255  11.640  0.00  0.00    +0.056 S 
ATOM     27  O   UNL     1       8.774   1.963  12.733  0.00  0.00    -0.153 OA
ATOM     28  O   UNL     1      10.967   1.770  11.569  0.00  0.00    -0.153 OA
BRANCH  26  29
ATOM     29  N   UNL     1       9.723   3.905  11.536  0.00  0.00    -0.204 NA
ATOM     30  H   UNL     1       9.354   4.363  10.764  0.00  0.00    +0.144 HD
ATOM     31  H   UNL     1      10.145   4.414  12.246  0.00  0.00    +0.144 HD
ENDBRANCH  26  29
ENDBRANCH  23  26
ENDBRANCH  19  20
ENDBRANCH  18  19
ENDBRANCH   3  18
TORSDOF 9
