REMARK  Name = ZINC39601981
REMARK  13 active torsions:
REMARK  status: ('A' for Active; 'I' for Inactive)
REMARK    1  A    between atoms: C_1  and  C_2
REMARK    2  A    between atoms: C_2  and  C_3
REMARK    3  A    between atoms: C_2  and  C_4
REMARK    4  A    between atoms: C_4  and  C_6
REMARK    5  A    between atoms: C_4  and  O_28
REMARK    6  A    between atoms: C_10  and  C_19
REMARK    7  A    between atoms: N_21  and  C_22
REMARK    8  A    between atoms: C_22  and  C_23
REMARK    9  A    between atoms: C_23  and  O_24
REMARK   10  A    between atoms: O_24  and  C_25
REMARK   11  A    between atoms: C_25  and  C_26
REMARK   12  A    between atoms: C_26  and  O_27
REMARK   13  A    between atoms: O_28  and  C_29
REMARK                            x       y       z     vdW  Elec       q    Type
REMARK                         _______ _______ _______ _____ _____    ______ ____
ROOT
ATOM      1  C   UNL     1      -2.446  -0.706  -1.617  0.00  0.00    +0.257 C 
ATOM      2  O   UNL     1      -3.462  -0.044  -1.613  0.00  0.00    -0.272 OA
ATOM      3  N   UNL     1      -1.889  -1.079  -2.787  0.00  0.00    -0.297 N 
ATOM      4  C   UNL     1      -0.664  -1.887  -2.993  0.00  0.00    +0.121 C 
ATOM      5  C   UNL     1      -0.999  -2.808  -4.187  0.00  0.00    +0.100 C 
ATOM      6  C   UNL     1      -2.114  -2.072  -4.949  0.00  0.00    -0.004 C 
ATOM      7  C   UNL     1      -2.368  -0.781  -4.157  0.00  0.00    +0.115 C 
ATOM      8  C   UNL     1      -3.381  -2.921  -4.981  0.00  0.00    -0.010 C 
ATOM      9  C   UNL     1      -4.457  -2.193  -5.792  0.00  0.00    -0.082 C 
ATOM     10  N   UNL     1      -3.968  -1.956  -7.156  0.00  0.00    +0.379 N 
ATOM     11  C   UNL     1      -2.804  -1.063  -7.122  0.00  0.00    -0.082 C 
ATOM     12  C   UNL     1      -1.658  -1.743  -6.367  0.00  0.00    -0.010 C 
ATOM     13  H   UNL     1      -3.704  -2.835  -7.574  0.00  0.00    -0.086 HD
ATOM     14  H   UNL     1      -4.700  -1.532  -7.705  0.00  0.00    -0.086 HD
ENDROOT
BRANCH   5  15
ATOM     15  C   UNL     1      -1.490  -4.146  -3.697  0.00  0.00    +0.218 C 
ATOM     16  O   UNL     1      -2.100  -4.222  -2.651  0.00  0.00    -0.275 OA
ATOM     17  N   UNL     1      -1.251  -5.257  -4.421  0.00  0.00    -0.313 N 
ATOM     18  H   UNL     1      -0.764  -5.196  -5.257  0.00  0.00    +0.149 HD
BRANCH  17  19
ATOM     19  C   UNL     1      -1.728  -6.558  -3.944  0.00  0.00    +0.132 C 
BRANCH  19  20
ATOM     20  C   UNL     1      -1.328  -7.645  -4.944  0.00  0.00    +0.178 C 
BRANCH  20  21
ATOM     21  O   UNL     1       0.096  -7.756  -4.982  0.00  0.00    -0.376 OA
BRANCH  21  22
ATOM     22  C   UNL     1       0.577  -8.749  -5.890  0.00  0.00    +0.187 C 
BRANCH  22  23
ATOM     23  C   UNL     1       2.106  -8.780  -5.849  0.00  0.00    +0.184 C 
BRANCH  23  24
ATOM     24  O   UNL     1       2.540  -9.207  -4.556  0.00  0.00    -0.393 OA
ATOM     25  H   UNL     1       3.501  -9.250  -4.458  0.00  0.00    +0.209 HD
ENDBRANCH  23  24
ENDBRANCH  22  23
ENDBRANCH  21  22
ENDBRANCH  20  21
ENDBRANCH  19  20
ENDBRANCH  17  19
ENDBRANCH   5  15
BRANCH   1  26
ATOM     26  C   UNL     1      -1.805  -1.111  -0.315  0.00  0.00    +0.261 C 
BRANCH  26  28
ATOM     27  C   UNL     1      -0.614   1.075  -0.100  0.00  0.00    +0.011 C 
ATOM     28  C   UNL     1      -0.434  -0.442  -0.191  0.00  0.00    +0.033 C 
ATOM     29  C   UNL     1       0.269  -0.949   1.070  0.00  0.00    +0.011 C 
ENDBRANCH  26  28
BRANCH  26  30
ATOM     30  O   UNL     1      -2.636  -0.699   0.773  0.00  0.00    -0.479 OA
BRANCH  30  31
ATOM     31  C   UNL     1      -2.740  -1.551   1.826  0.00  0.00    +0.122 A 
ATOM     32  C   UNL     1      -3.619  -1.271   2.862  0.00  0.00    +0.045 A 
ATOM     33  C   UNL     1      -3.723  -2.139   3.932  0.00  0.00    +0.004 A 
ATOM     34  C   UNL     1      -2.951  -3.286   3.971  0.00  0.00    +0.000 A 
ATOM     35  C   UNL     1      -2.074  -3.567   2.940  0.00  0.00    +0.004 A 
ATOM     36  C   UNL     1      -1.971  -2.706   1.865  0.00  0.00    +0.045 A 
ENDBRANCH  30  31
ENDBRANCH  26  30
ENDBRANCH   1  26
TORSDOF 11
