REMARK  Name = ZINC16685191
REMARK  9 active torsions:
REMARK  status: ('A' for Active; 'I' for Inactive)
REMARK    1  A    between atoms: C_1  and  C_2
REMARK    2  A    between atoms: C_2  and  C_3
REMARK    3  A    between atoms: C_2  and  N_4
REMARK    4  A    between atoms: N_4  and  C_5
REMARK    5  A    between atoms: C_5  and  C_6
REMARK    6  A    between atoms: C_18  and  C_20
REMARK    7  A    between atoms: C_20  and  N_21
REMARK    8  A    between atoms: C_24  and  C_28
REMARK    9  A    between atoms: C_24  and  C_29
REMARK                            x       y       z     vdW  Elec       q    Type
REMARK                         _______ _______ _______ _____ _____    ______ ____
ROOT
ATOM      1  N   UNL     1       2.417   4.950   1.648  0.00  0.00    -0.290 N 
ATOM      2  C   UNL     1       1.958   3.715   1.367  0.00  0.00    +0.234 C 
ATOM      3  O   UNL     1       1.657   2.960   2.268  0.00  0.00    -0.274 OA
ENDROOT
BRANCH   1   5
ATOM      4  C   UNL     1       1.865   7.181   0.813  0.00  0.00    +0.028 C 
ATOM      5  C   UNL     1       2.667   5.903   0.564  0.00  0.00    +0.070 C 
ATOM      6  C   UNL     1       4.159   6.238   0.514  0.00  0.00    +0.028 C 
ENDBRANCH   1   5
BRANCH   1   7
ATOM      7  C   UNL     1       2.667   5.340   3.038  0.00  0.00    +0.182 C 
BRANCH   7   8
ATOM      8  C   UNL     1       4.088   5.002   3.408  0.00  0.00    +0.128 A 
ATOM      9  N   UNL     1       4.513   5.290   4.666  0.00  0.00    -0.309 N 
ATOM     10  H   UNL     1       3.902   5.704   5.296  0.00  0.00    +0.170 HD
ATOM     11  C   UNL     1       5.780   5.005   5.047  0.00  0.00    +0.259 A 
ATOM     12  O   UNL     1       6.173   5.258   6.171  0.00  0.00    -0.267 OA
ATOM     13  C   UNL     1       6.662   4.378   4.051  0.00  0.00    +0.065 A 
ATOM     14  C   UNL     1       7.983   4.045   4.343  0.00  0.00    +0.015 A 
ATOM     15  C   UNL     1       8.765   3.459   3.372  0.00  0.00    +0.001 A 
ATOM     16  C   UNL     1       8.248   3.199   2.110  0.00  0.00    +0.002 A 
ATOM     17  C   UNL     1       6.945   3.521   1.801  0.00  0.00    +0.028 A 
ATOM     18  C   UNL     1       6.132   4.117   2.768  0.00  0.00    +0.078 A 
ATOM     19  N   UNL     1       4.842   4.445   2.510  0.00  0.00    -0.232 NA
ENDBRANCH   7   8
ENDBRANCH   1   7
BRANCH   2  20
ATOM     20  C   UNL     1       1.819   3.270  -0.066  0.00  0.00    +0.213 C 
BRANCH  20  21
ATOM     21  N   UNL     1       1.420   1.861  -0.104  0.00  0.00    -0.215 N 
ATOM     22  C   UNL     1       0.141   1.436  -0.113  0.00  0.00    +0.251 C 
ATOM     23  O   UNL     1      -0.858   2.121  -0.096  0.00  0.00    -0.272 OA
ATOM     24  C   UNL     1       0.213  -0.078  -0.156  0.00  0.00    +0.135 C 
ATOM     25  N   UNL     1       1.659  -0.356  -0.167  0.00  0.00    -0.281 N 
ATOM     26  C   UNL     1       2.281   0.837  -0.135  0.00  0.00    +0.310 C 
ATOM     27  O   UNL     1       3.489   0.970  -0.134  0.00  0.00    -0.252 OA
ATOM     28  C   UNL     1      -0.446  -0.683   1.085  0.00  0.00    +0.047 C 
ATOM     29  H   UNL     1       2.082  -1.229  -0.192  0.00  0.00    +0.152 HD
BRANCH  24  30
ATOM     30  C   UNL     1      -0.438  -0.604  -1.409  0.00  0.00    -0.016 A 
ATOM     31  C   UNL     1      -1.485   0.088  -1.988  0.00  0.00    +0.006 A 
ATOM     32  C   UNL     1      -2.079  -0.392  -3.140  0.00  0.00    +0.000 A 
ATOM     33  C   UNL     1      -1.631  -1.570  -3.708  0.00  0.00    +0.000 A 
ATOM     34  C   UNL     1      -0.588  -2.265  -3.127  0.00  0.00    +0.000 A 
ATOM     35  C   UNL     1       0.009  -1.782  -1.978  0.00  0.00    +0.006 A 
ENDBRANCH  24  30
ENDBRANCH  20  21
ENDBRANCH   2  20
TORSDOF 6
