REMARK  Name = ZINC00973556
REMARK  7 active torsions:
REMARK  status: ('A' for Active; 'I' for Inactive)
REMARK    1  A    between atoms: C_1  and  C_2
REMARK    2  A    between atoms: C_2  and  O_3
REMARK    3  A    between atoms: O_3  and  C_4
REMARK    4  A    between atoms: C_4  and  C_6
REMARK    5  A    between atoms: C_7  and  C_29
REMARK    6  A    between atoms: C_17  and  C_19
REMARK    7  A    between atoms: C_24  and  C_25
REMARK                            x       y       z     vdW  Elec       q    Type
REMARK                         _______ _______ _______ _____ _____    ______ ____
ROOT
ATOM      1  C   UNL     1       1.349  -2.298  -2.500  0.00  0.00    +0.065 C 
ATOM      2  C   UNL     1       1.554  -3.624  -2.532  0.00  0.00    +0.017 C 
ATOM      3  N   UNL     1       2.230  -4.218  -3.561  0.00  0.00    -0.302 N 
ATOM      4  C   UNL     1       2.406  -3.547  -4.755  0.00  0.00    +0.135 A 
ATOM      5  N   UNL     1       2.744  -4.212  -5.854  0.00  0.00    -0.207 NA
ATOM      6  C   UNL     1       2.912  -3.577  -7.011  0.00  0.00    +0.182 A 
ATOM      7  S   UNL     1       3.348  -4.471  -8.404  0.00  0.00    -0.011 S 
ATOM      8  N   UNL     1       2.744  -2.245  -7.105  0.00  0.00    -0.301 N 
ATOM      9  C   UNL     1       2.399  -1.516  -6.002  0.00  0.00    +0.258 A 
ATOM     10  O   UNL     1       2.231  -0.178  -6.090  0.00  0.00    -0.267 OA
ATOM     11  C   UNL     1       2.226  -2.160  -4.809  0.00  0.00    +0.069 A 
ATOM     12  C   UNL     1       1.849  -1.384  -3.581  0.00  0.00    +0.097 C 
ATOM     13  C   UNL     1       1.025  -4.478  -1.409  0.00  0.00    +0.061 C 
ATOM     14  H   UNL     1       2.588  -5.113  -3.452  0.00  0.00    +0.153 HD
ATOM     15  H   UNL     1       2.869  -1.802  -7.958  0.00  0.00    +0.171 HD
ENDROOT
BRANCH  12  16
ATOM     16  C   UNL     1       3.060  -0.641  -3.080  0.00  0.00    -0.023 A 
ATOM     17  C   UNL     1       4.235  -1.324  -2.826  0.00  0.00    +0.005 A 
ATOM     18  C   UNL     1       5.346  -0.642  -2.366  0.00  0.00    +0.000 A 
ATOM     19  C   UNL     1       5.282   0.724  -2.161  0.00  0.00    +0.001 A 
ATOM     20  C   UNL     1       4.108   1.407  -2.415  0.00  0.00    +0.012 A 
ATOM     21  C   UNL     1       2.998   0.726  -2.879  0.00  0.00    +0.059 A 
BRANCH  21  22
ATOM     22  C   UNL     1       1.719   1.471  -3.162  0.00  0.00    +0.418 C 
ATOM     23  F   UNL     1       1.868   2.811  -2.787  0.00  0.00    -0.166 F 
ATOM     24  F   UNL     1       1.429   1.399  -4.529  0.00  0.00    -0.166 F 
ATOM     25  F   UNL     1       0.673   0.896  -2.432  0.00  0.00    -0.166 F 
ENDBRANCH  21  22
ENDBRANCH  12  16
BRANCH   1  26
ATOM     26  C   UNL     1       0.633  -1.744  -1.415  0.00  0.00    +0.338 C 
ATOM     27  O   UNL     1      -0.549  -1.483  -1.535  0.00  0.00    -0.245 OA
BRANCH  26  28
ATOM     28  O   UNL     1       1.261  -1.504  -0.244  0.00  0.00    -0.462 OA
BRANCH  28  30
ATOM     29  C   UNL     1       1.353  -0.744   2.048  0.00  0.00    +0.048 C 
ATOM     30  C   UNL     1       0.477  -0.943   0.810  0.00  0.00    +0.229 C 
ENDBRANCH  28  30
ENDBRANCH  26  28
ENDBRANCH   1  26
TORSDOF 5
