REMARK  Name = ZINC22055021
REMARK  14 active torsions:
REMARK  status: ('A' for Active; 'I' for Inactive)
REMARK    1  A    between atoms: C_1  and  C_2
REMARK    2  A    between atoms: C_2  and  C_3
REMARK    3  A    between atoms: C_3  and  C_4
REMARK    4  A    between atoms: C_7  and  C_12
REMARK    5  A    between atoms: N_9  and  C_11
REMARK    6  A    between atoms: N_14  and  C_15
REMARK    7  A    between atoms: C_15  and  C_17
REMARK    8  A    between atoms: C_15  and  C_33
REMARK    9  A    between atoms: C_19  and  O_32
REMARK   10  A    between atoms: C_21  and  O_31
REMARK   11  A    between atoms: C_23  and  O_30
REMARK   12  A    between atoms: C_25  and  S_28
REMARK   13  A    between atoms: S_28  and  C_29
REMARK   14  A    between atoms: C_33  and  C_35
REMARK                            x       y       z     vdW  Elec       q    Type
REMARK                         _______ _______ _______ _____ _____    ______ ____
ROOT
ATOM      1  C   UNL     1       3.714   1.569   0.736  0.00  0.00    +0.122 C 
ENDROOT
BRANCH   1   2
ATOM      2  C   UNL     1       4.694   0.456   1.111  0.00  0.00    +0.172 C 
ATOM      3  C   UNL     1       4.582  -0.686   0.097  0.00  0.00    +0.176 C 
ATOM      4  C   UNL     1       5.607  -1.770   0.445  0.00  0.00    +0.177 C 
ATOM      5  C   UNL     1       7.006  -1.146   0.465  0.00  0.00    +0.184 C 
ATOM      6  C   UNL     1       7.024   0.013   1.465  0.00  0.00    +0.207 C 
ATOM      7  O   UNL     1       6.027   0.970   1.101  0.00  0.00    -0.356 OA
BRANCH   6   8
ATOM      8  S   UNL     1       8.657   0.804   1.444  0.00  0.00    -0.131 S 
ATOM      9  C   UNL     1       8.617   1.931   2.865  0.00  0.00    +0.087 C 
ENDBRANCH   6   8
BRANCH   5  10
ATOM     10  O   UNL     1       7.963  -2.131   0.858  0.00  0.00    -0.386 OA
ATOM     11  H   UNL     1       9.028  -1.865   0.930  0.00  0.00    +0.210 HD
ENDBRANCH   5  10
BRANCH   4  12
ATOM     12  O   UNL     1       5.559  -2.805  -0.539  0.00  0.00    -0.386 OA
ATOM     13  H   UNL     1       6.229  -3.674  -0.455  0.00  0.00    +0.210 HD
ENDBRANCH   4  12
BRANCH   3  14
ATOM     14  O   UNL     1       3.265  -1.240   0.147  0.00  0.00    -0.387 OA
ATOM     15  H   UNL     1       2.995  -2.076  -0.515  0.00  0.00    +0.210 HD
ENDBRANCH   3  14
ENDBRANCH   1   2
BRANCH   1  18
ATOM     16  C   UNL     1       1.393   1.629  -0.003  0.00  0.00    +0.200 C 
ATOM     17  O   UNL     1       1.665   2.594  -0.685  0.00  0.00    -0.278 OA
ATOM     18  N   UNL     1       2.348   1.042   0.746  0.00  0.00    -0.310 N 
ATOM     19  H   UNL     1       2.101   0.167   1.365  0.00  0.00    +0.149 HD
BRANCH  16  22
ATOM     20  C   UNL     1      -2.257   1.496   0.765  0.00  0.00    -0.029 C 
ATOM     21  C   UNL     1      -0.783   1.608   1.246  0.00  0.00    -0.005 C 
ATOM     22  C   UNL     1      -0.013   1.086   0.008  0.00  0.00    +0.019 C 
ATOM     23  N   UNL     1      -0.770   1.597  -1.154  0.00  0.00    +0.386 N 
ATOM     24  C   UNL     1      -2.162   1.847  -0.734  0.00  0.00    -0.075 C 
ATOM     25  C   UNL     1      -0.721   0.647  -2.274  0.00  0.00    -0.095 C 
ATOM     26  H   UNL     1      -0.318   2.533  -1.512  0.00  0.00    -0.081 HD
BRANCH  20  27
ATOM     27  C   UNL     1      -3.148   2.499   1.500  0.00  0.00    +0.001 C 
BRANCH  27  29
ATOM     28  C   UNL     1      -5.480   3.362   1.742  0.00  0.00    +0.004 C 
ATOM     29  C   UNL     1      -4.589   2.359   1.007  0.00  0.00    -0.003 C 
ENDBRANCH  27  29
ENDBRANCH  20  27
ENDBRANCH  16  22
ENDBRANCH   1  18
BRANCH   1  30
ATOM     30  C   UNL     1       3.828   2.711   1.749  0.00  0.00    +0.100 C 
ATOM     31  C   UNL     1       2.764   3.768   1.447  0.00  0.00    +0.026 C 
ATOM     32 CL   UNL     1       3.579   2.065   3.413  0.00  0.00    -0.120 Cl
ENDBRANCH   1  30
TORSDOF 10
