REMARK  Name = ZINC15023916
REMARK  10 active torsions:
REMARK  status: ('A' for Active; 'I' for Inactive)
REMARK    1  A    between atoms: C_1  and  C_2
REMARK    2  A    between atoms: C_5  and  C_8
REMARK    3  A    between atoms: C_8  and  C_10
REMARK    4  A    between atoms: C_12  and  C_31
REMARK    5  A    between atoms: C_14  and  C_26
REMARK    6  A    between atoms: C_14  and  C_28
REMARK    7  A    between atoms: C_34  and  O_39
REMARK    8  A    between atoms: C_35  and  O_37
REMARK    9  A    between atoms: O_37  and  C_38
REMARK   10  A    between atoms: O_39  and  C_40
REMARK                            x       y       z     vdW  Elec       q    Type
REMARK                         _______ _______ _______ _____ _____    ______ ____
ROOT
ATOM      1  C   UNL     1       4.253   1.498   0.225  0.00  0.00    +0.155 C 
ATOM      2  C   UNL     1       4.126   2.154  -1.173  0.00  0.00    +0.078 C 
ATOM      3  C   UNL     1       5.479   1.852  -1.880  0.00  0.00    +0.163 C 
ATOM      4  C   UNL     1       6.413   1.594  -0.686  0.00  0.00    +0.127 C 
ATOM      5  N   UNL     1       5.541   0.812   0.230  0.00  0.00    -0.310 N 
ATOM      6  C   UNL     1       6.189   0.592   1.419  0.00  0.00    +0.038 A 
ATOM      7  C   UNL     1       5.570   0.744   2.657  0.00  0.00    +0.024 A 
ATOM      8  C   UNL     1       6.294   0.526   3.815  0.00  0.00    +0.002 A 
ATOM      9  C   UNL     1       7.631   0.173   3.752  0.00  0.00    +0.001 A 
ATOM     10  C   UNL     1       8.260   0.030   2.530  0.00  0.00    +0.010 A 
ATOM     11  C   UNL     1       7.545   0.242   1.360  0.00  0.00    -0.004 A 
ATOM     12  C   UNL     1       8.173   0.095   0.026  0.00  0.00    +0.007 C 
ATOM     13  C   UNL     1       7.621   0.762  -1.002  0.00  0.00    -0.002 C 
ENDROOT
BRANCH   2  14
ATOM     14  C   UNL     1       2.985   1.537  -1.939  0.00  0.00    -0.036 A 
ATOM     15  C   UNL     1       2.918   0.164  -2.090  0.00  0.00    +0.008 A 
ATOM     16  C   UNL     1       1.870  -0.407  -2.788  0.00  0.00    +0.049 A 
ATOM     17  C   UNL     1       0.889   0.397  -3.346  0.00  0.00    +0.161 A 
ATOM     18  C   UNL     1       0.960   1.779  -3.199  0.00  0.00    +0.162 A 
ATOM     19  C   UNL     1       2.010   2.345  -2.494  0.00  0.00    +0.053 A 
BRANCH  18  20
ATOM     20  O   UNL     1       0.000   2.572  -3.745  0.00  0.00    -0.491 OA
ATOM     21  C   UNL     1       0.137   3.982  -3.554  0.00  0.00    +0.277 C 
ENDBRANCH  18  20
BRANCH  17  22
ATOM     22  O   UNL     1      -0.139  -0.163  -4.038  0.00  0.00    -0.491 OA
ATOM     23  C   UNL     1      -0.147  -1.587  -4.149  0.00  0.00    +0.277 C 
ENDBRANCH  17  22
ENDBRANCH   2  14
BRANCH   3  24
ATOM     24  C   UNL     1       5.370   0.629  -2.753  0.00  0.00    +0.233 C 
ATOM     25  O   UNL     1       5.830  -0.428  -2.377  0.00  0.00    -0.274 OA
ATOM     26  N   UNL     1       4.762   0.710  -3.954  0.00  0.00    -0.328 N 
ATOM     27  H   UNL     1       4.461   1.569  -4.288  0.00  0.00    +0.145 HD
ATOM     28  H   UNL     1       4.626  -0.091  -4.483  0.00  0.00    +0.145 HD
ENDBRANCH   3  24
BRANCH   1  29
ATOM     29  C   UNL     1       3.137   0.509   0.439  0.00  0.00    +0.184 C 
ATOM     30  O   UNL     1       3.357  -0.681   0.356  0.00  0.00    -0.290 OA
BRANCH  29  35
ATOM     31  C   UNL     1      -2.165   2.374   1.646  0.00  0.00    +0.044 C 
ATOM     32  C   UNL     1      -0.775   1.885   1.330  0.00  0.00    -0.050 A 
ATOM     33  C   UNL     1      -0.529   0.526   1.231  0.00  0.00    +0.004 A 
ATOM     34  C   UNL     1       0.741   0.071   0.947  0.00  0.00    +0.012 A 
ATOM     35  C   UNL     1       1.780   0.986   0.748  0.00  0.00    +0.019 A 
ATOM     36  C   UNL     1       1.522   2.357   0.845  0.00  0.00    +0.012 A 
ATOM     37  C   UNL     1       0.248   2.797   1.135  0.00  0.00    +0.004 A 
ENDBRANCH  29  35
ENDBRANCH   1  29
BRANCH   3  38
ATOM     38  C   UNL     1       5.933   3.014  -2.661  0.00  0.00    +0.082 C 
ATOM     39  N   UNL     1       6.284   3.911  -3.264  0.00  0.00    -0.195 NA
ENDBRANCH   3  38
TORSDOF 7
