REMARK  Name = ZINC35442640
REMARK  12 active torsions:
REMARK  status: ('A' for Active; 'I' for Inactive)
REMARK    1  A    between atoms: C_1  and  C_2
REMARK    2  A    between atoms: C_4  and  C_26
REMARK    3  A    between atoms: C_6  and  C_23
REMARK    4  A    between atoms: C_9  and  C_11
REMARK    5  A    between atoms: C_11  and  C_12
REMARK    6  A    between atoms: C_15  and  C_17
REMARK    7  A    between atoms: C_23  and  C_24
REMARK    8  A    between atoms: C_23  and  C_25
REMARK    9  A    between atoms: C_26  and  N_27
REMARK   10  A    between atoms: N_27  and  C_28
REMARK   11  A    between atoms: C_28  and  C_29
REMARK   12  A    between atoms: C_29  and  C_30
REMARK                            x       y       z     vdW  Elec       q    Type
REMARK                         _______ _______ _______ _____ _____    ______ ____
ROOT
ATOM      1  C   UNL     1      -0.164   1.568  -0.393  0.00  0.00    +0.039 C 
ATOM      2  C   UNL     1      -0.053   0.069  -0.280  0.00  0.00    -0.073 C 
ATOM      3  C   UNL     1       0.164  -0.606  -1.363  0.00  0.00    -0.026 C 
ATOM      4  C   UNL     1       0.287  -2.101  -1.410  0.00  0.00    -0.002 C 
ATOM      5  C   UNL     1       0.547  -2.654  -0.007  0.00  0.00    -0.003 C 
ATOM      6  C   UNL     1      -0.484  -2.045   0.952  0.00  0.00    +0.012 C 
ATOM      7  C   UNL     1      -0.195  -0.546   1.081  0.00  0.00    +0.024 C 
ENDROOT
BRANCH   5   8
ATOM      8  C   UNL     1       0.407  -4.177  -0.020  0.00  0.00    -0.014 C 
ATOM      9  C   UNL     1       0.806  -4.738   1.346  0.00  0.00    +0.007 C 
ATOM     10  C   UNL     1      -1.046  -4.553  -0.321  0.00  0.00    +0.007 C 
ENDBRANCH   5   8
BRANCH   7  11
ATOM     11  C   UNL     1       1.101  -0.341   1.868  0.00  0.00    +0.105 C 
BRANCH  11  12
ATOM     12  C   UNL     1       1.311   1.131   2.115  0.00  0.00    +0.218 A 
ATOM     13  N   UNL     1       0.887   1.807   3.146  0.00  0.00    -0.112 NA
ATOM     14  N   UNL     1       1.245   3.037   3.031  0.00  0.00    -0.107 NA
ATOM     15  C   UNL     1       1.916   3.190   1.913  0.00  0.00    +0.248 A 
ATOM     16  O   UNL     1       1.974   1.983   1.315  0.00  0.00    -0.420 OA
BRANCH  15  17
ATOM     17  C   UNL     1       2.503   4.449   1.407  0.00  0.00    +0.038 A 
ATOM     18  C   UNL     1       3.188   4.464   0.192  0.00  0.00    +0.013 A 
ATOM     19  C   UNL     1       3.733   5.643  -0.274  0.00  0.00    +0.001 A 
ATOM     20  C   UNL     1       3.602   6.808   0.460  0.00  0.00    +0.000 A 
ATOM     21  C   UNL     1       2.923   6.800   1.666  0.00  0.00    +0.001 A 
ATOM     22  C   UNL     1       2.368   5.629   2.141  0.00  0.00    +0.013 A 
ENDBRANCH  15  17
ENDBRANCH  11  12
ENDBRANCH   7  11
BRANCH   4  23
ATOM     23  C   UNL     1       1.450  -2.485  -2.327  0.00  0.00    -0.075 C 
BRANCH  23  24
ATOM     24  N   UNL     1       1.152  -2.060  -3.701  0.00  0.00    +0.380 N 
ATOM     25  H   UNL     1       0.309  -2.515  -4.019  0.00  0.00    -0.086 HD
ATOM     26  H   UNL     1       1.022  -1.059  -3.723  0.00  0.00    -0.086 HD
BRANCH  24  27
ATOM     27  C   UNL     1       2.268  -2.428  -4.581  0.00  0.00    -0.076 C 
BRANCH  27  28
ATOM     28  C   UNL     1       1.958  -1.985  -6.012  0.00  0.00    +0.038 C 
BRANCH  28  29
ATOM     29  C   UNL     1       3.103  -2.364  -6.915  0.00  0.00    +0.057 A 
ATOM     30  C   UNL     1       3.015  -3.099  -8.040  0.00  0.00    +0.107 A 
ATOM     31  N   UNL     1       4.283  -3.201  -8.547  0.00  0.00    -0.351 N 
ATOM     32  C   UNL     1       5.102  -2.525  -7.713  0.00  0.00    +0.196 A 
ATOM     33  N   UNL     1       4.389  -2.022  -6.742  0.00  0.00    -0.241 NA
ATOM     34  H   UNL     1       4.544  -3.672  -9.354  0.00  0.00    +0.166 HD
ENDBRANCH  28  29
ENDBRANCH  27  28
ENDBRANCH  24  27
ENDBRANCH  23  24
ENDBRANCH   4  23
TORSDOF 9
