REMARK  Name = ZINC34945948
REMARK  15 active torsions:
REMARK  status: ('A' for Active; 'I' for Inactive)
REMARK    1  A    between atoms: C_1  and  C_2
REMARK    2  A    between atoms: C_2  and  C_3
REMARK    3  A    between atoms: C_3  and  N_4
REMARK    4  A    between atoms: N_4  and  C_5
REMARK    5  A    between atoms: N_4  and  S_23
REMARK    6  A    between atoms: C_5  and  C_6
REMARK    7  A    between atoms: C_6  and  C_7
REMARK    8  A    between atoms: N_9  and  C_10
REMARK    9  A    between atoms: N_13  and  C_16
REMARK   10  A    between atoms: C_16  and  C_17
REMARK   11  A    between atoms: S_23  and  C_26
REMARK   12  A    between atoms: C_29  and  C_32
REMARK   13  A    between atoms: C_32  and  C_33
REMARK   14  A    between atoms: C_32  and  C_34
REMARK   15  A    between atoms: C_32  and  C_35
REMARK                            x       y       z     vdW  Elec       q    Type
REMARK                         _______ _______ _______ _____ _____    ______ ____
ROOT
ATOM      1  C   UNL     1       3.052  -2.824   1.367  0.00  0.00    +0.113 C 
ENDROOT
BRANCH   1   2
ATOM      2  C   UNL     1       4.124  -3.559   0.604  0.00  0.00    +0.215 C 
ATOM      3  O   UNL     1       3.911  -3.938  -0.528  0.00  0.00    -0.276 OA
ATOM      4  N   UNL     1       5.319  -3.795   1.180  0.00  0.00    -0.313 N 
ATOM      5  H   UNL     1       5.490  -3.491   2.086  0.00  0.00    +0.149 HD
BRANCH   4   6
ATOM      6  C   UNL     1       6.362  -4.509   0.439  0.00  0.00    +0.069 C 
ATOM      7  C   UNL     1       7.148  -3.517  -0.423  0.00  0.00    +0.003 C 
ATOM      8  C   UNL     1       8.284  -4.256  -1.133  0.00  0.00    -0.077 C 
ATOM      9  N   UNL     1       9.179  -4.858  -0.137  0.00  0.00    +0.382 N 
ATOM     10  C   UNL     1       8.449  -5.862   0.646  0.00  0.00    -0.077 C 
ATOM     11  C   UNL     1       7.319  -5.185   1.424  0.00  0.00    +0.003 C 
ATOM     12  H   UNL     1       9.526  -4.139   0.480  0.00  0.00    -0.081 HD
BRANCH   9  13
ATOM     13  C   UNL     1      10.310  -5.500  -0.821  0.00  0.00    -0.043 C 
BRANCH  13  14
ATOM     14  C   UNL     1      11.291  -6.011   0.202  0.00  0.00    -0.064 A 
ATOM     15  C   UNL     1      12.315  -5.194   0.645  0.00  0.00    +0.002 A 
ATOM     16  C   UNL     1      13.215  -5.663   1.584  0.00  0.00    +0.000 A 
ATOM     17  C   UNL     1      13.092  -6.948   2.079  0.00  0.00    +0.000 A 
ATOM     18  C   UNL     1      12.068  -7.764   1.636  0.00  0.00    +0.000 A 
ATOM     19  C   UNL     1      11.165  -7.293   0.701  0.00  0.00    +0.002 A 
ENDBRANCH  13  14
ENDBRANCH   9  13
ENDBRANCH   4   6
ENDBRANCH   1   2
BRANCH   1  20
ATOM     20  C   UNL     1       1.804  -2.690   0.492  0.00  0.00    +0.118 C 
BRANCH  20  21
ATOM     21  N   UNL     1       0.762  -1.976   1.234  0.00  0.00    -0.176 NA
BRANCH  21  22
ATOM     22  S   UNL     1      -0.394  -2.824   2.063  0.00  0.00    +0.061 S 
ATOM     23  O   UNL     1       0.164  -4.100   2.346  0.00  0.00    -0.153 OA
ATOM     24  O   UNL     1      -0.878  -1.961   3.082  0.00  0.00    -0.153 OA
BRANCH  22  25
ATOM     25  C   UNL     1      -1.736  -3.097   0.954  0.00  0.00    +0.105 A 
ATOM     26  C   UNL     1      -2.760  -2.173   0.869  0.00  0.00    +0.029 A 
ATOM     27  C   UNL     1      -3.813  -2.387  -0.001  0.00  0.00    +0.006 A 
ATOM     28  C   UNL     1      -3.841  -3.524  -0.786  0.00  0.00    -0.042 A 
ATOM     29  C   UNL     1      -2.816  -4.448  -0.702  0.00  0.00    +0.006 A 
ATOM     30  C   UNL     1      -1.761  -4.232   0.165  0.00  0.00    +0.029 A 
BRANCH  28  31
ATOM     31  C   UNL     1      -4.989  -3.758  -1.734  0.00  0.00    -0.013 C 
ATOM     32  C   UNL     1      -5.059  -2.610  -2.744  0.00  0.00    +0.015 C 
ATOM     33  C   UNL     1      -4.777  -5.079  -2.476  0.00  0.00    +0.015 C 
ATOM     34  C   UNL     1      -6.298  -3.822  -0.943  0.00  0.00    +0.015 C 
ENDBRANCH  28  31
ENDBRANCH  22  25
ENDBRANCH  21  22
BRANCH  21  35
ATOM     35  C   UNL     1       0.742  -0.511   1.242  0.00  0.00    +0.109 C 
BRANCH  35  37
ATOM     36  C   UNL     1      -0.019   1.526   0.010  0.00  0.00    +0.005 C 
ATOM     37  C   UNL     1       0.002  -0.004   0.002  0.00  0.00    +0.014 C 
ENDBRANCH  35  37
ENDBRANCH  21  35
ENDBRANCH  20  21
ENDBRANCH   1  20
TORSDOF 11
