REMARK  Name = ZINC63820797
REMARK  10 active torsions:
REMARK  status: ('A' for Active; 'I' for Inactive)
REMARK    1  A    between atoms: C_1  and  C_2
REMARK    2  A    between atoms: C_2  and  C_3
REMARK    3  A    between atoms: C_3  and  C_4
REMARK    4  A    between atoms: C_4  and  N_5
REMARK    5  A    between atoms: C_6  and  N_35
REMARK    6  A    between atoms: C_8  and  N_15
REMARK    7  A    between atoms: N_15  and  C_16
REMARK    8  A    between atoms: C_16  and  C_17
REMARK    9  A    between atoms: C_23  and  C_25
REMARK   10  A    between atoms: C_25  and  C_26
REMARK                            x       y       z     vdW  Elec       q    Type
REMARK                         _______ _______ _______ _____ _____    ______ ____
ROOT
ATOM      1  N   UNL     1       3.428  -0.827   3.995  0.00  0.00    -0.285 N 
ATOM      2  C   UNL     1       2.338  -0.063   3.781  0.00  0.00    +0.221 C 
ATOM      3  O   UNL     1       1.230  -0.550   3.859  0.00  0.00    -0.275 OA
ENDROOT
BRANCH   1   6
ATOM      4  N   UNL     1       3.403  -2.202   6.662  0.00  0.00    -0.296 N 
ATOM      5  C   UNL     1       2.519  -2.500   5.532  0.00  0.00    +0.047 C 
ATOM      6  C   UNL     1       3.279  -2.266   4.224  0.00  0.00    +0.167 C 
ATOM      7  C   UNL     1       4.641  -2.905   4.319  0.00  0.00    +0.261 C 
ATOM      8  O   UNL     1       5.214  -3.420   3.219  0.00  0.00    -0.272 OA
ATOM      9  N   UNL     1       5.268  -2.959   5.460  0.00  0.00    -0.126 NA
ATOM     10  C   UNL     1       4.716  -2.483   6.589  0.00  0.00    +0.327 C 
ATOM     11  O   UNL     1       5.418  -2.306   7.567  0.00  0.00    -0.250 OA
BRANCH   5  12
ATOM     12  N   UNL     1       2.084  -3.901   5.605  0.00  0.00    +0.392 N 
ATOM     13  H   UNL     1       1.587  -4.055   6.469  0.00  0.00    -0.087 HD
ATOM     14  H   UNL     1       1.476  -4.106   4.826  0.00  0.00    -0.087 HD
ATOM     15  H   UNL     1       2.891  -4.506   5.568  0.00  0.00    -0.087 HD
ENDBRANCH   5  12
BRANCH   4  16
ATOM     16  C   UNL     1       2.855  -1.590   7.875  0.00  0.00    +0.107 C 
BRANCH  16  17
ATOM     17  C   UNL     1       3.044  -0.073   7.811  0.00  0.00    +0.019 C 
BRANCH  17  19
ATOM     18  C   UNL     1       2.679   2.077   9.030  0.00  0.00    +0.004 C 
ATOM     19  C   UNL     1       2.596   0.553   9.133  0.00  0.00    -0.002 C 
ENDBRANCH  17  19
ENDBRANCH  16  17
ENDBRANCH   4  16
ENDBRANCH   1   6
BRANCH   1  20
ATOM     20  C   UNL     1       4.760  -0.218   3.999  0.00  0.00    +0.143 C 
BRANCH  20  21
ATOM     21  C   UNL     1       5.239  -0.047   2.581  0.00  0.00    -0.030 A 
ATOM     22  C   UNL     1       5.900  -1.081   1.945  0.00  0.00    +0.005 A 
ATOM     23  C   UNL     1       6.339  -0.924   0.644  0.00  0.00    +0.000 A 
ATOM     24  C   UNL     1       6.116   0.267  -0.022  0.00  0.00    +0.000 A 
ATOM     25  C   UNL     1       5.454   1.301   0.613  0.00  0.00    +0.000 A 
ATOM     26  C   UNL     1       5.011   1.142   1.913  0.00  0.00    +0.005 A 
ENDBRANCH  20  21
ENDBRANCH   1  20
BRANCH   2  27
ATOM     27  C   UNL     1       2.497   1.398   3.444  0.00  0.00    +0.129 C 
BRANCH  27  28
ATOM     28  C   UNL     1       1.143   2.059   3.427  0.00  0.00    -0.033 C 
ATOM     29  C   UNL     1       0.546   2.717   4.447  0.00  0.00    -0.001 A 
ATOM     30  C   UNL     1       0.963   3.002   5.825  0.00  0.00    +0.010 A 
ATOM     31  C   UNL     1       0.130   3.700   6.631  0.00  0.00    +0.001 A 
ATOM     32  C   UNL     1      -1.118   4.155   6.184  0.00  0.00    +0.002 A 
ATOM     33  C   UNL     1      -1.570   3.933   4.932  0.00  0.00    +0.026 A 
ATOM     34  C   UNL     1      -0.776   3.210   3.999  0.00  0.00    +0.043 A 
ATOM     35  N   UNL     1      -0.989   2.870   2.751  0.00  0.00    -0.380 N 
ATOM     36  C   UNL     1       0.178   2.127   2.264  0.00  0.00    +0.145 C 
ATOM     37  H   UNL     1      -1.784   3.078   2.235  0.00  0.00    +0.160 HD
ENDBRANCH  27  28
ENDBRANCH   2  27
TORSDOF 9
