REMARK  Name = ZINC39671621
REMARK  8 active torsions:
REMARK  status: ('A' for Active; 'I' for Inactive)
REMARK    1  A    between atoms: C_1  and  C_2
REMARK    2  A    between atoms: C_4  and  C_34
REMARK    3  A    between atoms: N_5  and  C_7
REMARK    4  A    between atoms: C_7  and  C_8
REMARK    5  A    between atoms: C_8  and  C_9
REMARK    6  A    between atoms: C_9  and  N_10
REMARK    7  A    between atoms: C_11  and  C_13
REMARK    8  A    between atoms: C_24  and  C_26
REMARK                            x       y       z     vdW  Elec       q    Type
REMARK                         _______ _______ _______ _____ _____    ______ ____
ROOT
ATOM      1  C   UNL     1       4.606  -6.752   4.018  0.00  0.00    +0.100 C 
ATOM      2  C   UNL     1       5.362  -5.585   4.692  0.00  0.00    +0.121 C 
ATOM      3  N   UNL     1       5.250  -5.856   6.144  0.00  0.00    -0.296 N 
ATOM      4  C   UNL     1       5.409  -7.325   6.258  0.00  0.00    +0.115 C 
ATOM      5  C   UNL     1       4.642  -7.893   5.047  0.00  0.00    -0.004 C 
ATOM      6  C   UNL     1       5.380  -9.099   4.474  0.00  0.00    -0.010 C 
ATOM      7  C   UNL     1       5.352 -10.242   5.493  0.00  0.00    -0.082 C 
ATOM      8  N   UNL     1       3.960 -10.594   5.799  0.00  0.00    +0.379 N 
ATOM      9  C   UNL     1       3.284  -9.457   6.436  0.00  0.00    -0.082 C 
ATOM     10  C   UNL     1       3.224  -8.282   5.456  0.00  0.00    -0.010 C 
ATOM     11  C   UNL     1       5.049  -4.967   7.137  0.00  0.00    +0.248 C 
ATOM     12  O   UNL     1       4.840  -3.799   6.874  0.00  0.00    -0.270 OA
ATOM     13  H   UNL     1       3.480 -10.833   4.944  0.00  0.00    -0.086 HD
ATOM     14  H   UNL     1       3.944 -11.386   6.423  0.00  0.00    -0.086 HD
ENDROOT
BRANCH  11  15
ATOM     15  C   UNL     1       5.083  -5.413   8.545  0.00  0.00    +0.055 A 
ATOM     16  C   UNL     1       5.965  -6.421   8.941  0.00  0.00    +0.016 A 
ATOM     17  C   UNL     1       5.992  -6.833  10.256  0.00  0.00    +0.021 A 
ATOM     18  C   UNL     1       5.147  -6.249  11.186  0.00  0.00    +0.042 A 
ATOM     19  C   UNL     1       4.270  -5.249  10.802  0.00  0.00    +0.040 A 
ATOM     20  C   UNL     1       4.237  -4.823   9.489  0.00  0.00    +0.054 A 
ATOM     21 CL   UNL     1       3.143  -3.564   9.009  0.00  0.00    -0.083 Cl
ATOM     22 CL   UNL     1       5.187  -6.774  12.840  0.00  0.00    -0.083 Cl
ENDBRANCH  11  15
BRANCH   1  24
ATOM     23  N   UNL     1       2.538  -6.887   2.666  0.00  0.00    -0.315 N 
ATOM     24  C   UNL     1       3.182  -6.355   3.724  0.00  0.00    +0.218 C 
ATOM     25  O   UNL     1       2.615  -5.557   4.440  0.00  0.00    -0.275 OA
ATOM     26  H   UNL     1       2.991  -7.526   2.094  0.00  0.00    +0.149 HD
BRANCH  23  27
ATOM     27  C   UNL     1       1.154  -6.501   2.381  0.00  0.00    +0.106 C 
BRANCH  27  28
ATOM     28  C   UNL     1       0.663  -7.244   1.137  0.00  0.00    +0.042 C 
BRANCH  28  29
ATOM     29  C   UNL     1      -0.782  -6.841   0.839  0.00  0.00    +0.145 C 
BRANCH  29  34
ATOM     30  C   UNL     1      -1.773  -7.931  -3.959  0.00  0.00    +0.067 C 
ATOM     31  C   UNL     1      -1.676  -8.009  -2.458  0.00  0.00    +0.060 A 
ATOM     32  C   UNL     1      -2.136  -9.061  -1.659  0.00  0.00    +0.047 A 
ATOM     33  C   UNL     1      -1.864  -8.755  -0.369  0.00  0.00    +0.036 A 
ATOM     34  N   UNL     1      -1.252  -7.552  -0.352  0.00  0.00    -0.268 N 
ATOM     35  N   UNL     1      -1.141  -7.106  -1.676  0.00  0.00    -0.176 NA
ATOM     36  C   UNL     1      -2.186  -9.605   0.832  0.00  0.00    +0.065 C 
ENDBRANCH  29  34
ENDBRANCH  28  29
ENDBRANCH  27  28
ENDBRANCH  23  27
ENDBRANCH   1  24
TORSDOF 6
