REMARK  Name = ZINC39632078
REMARK  13 active torsions:
REMARK  status: ('A' for Active; 'I' for Inactive)
REMARK    1  A    between atoms: C_1  and  C_2
REMARK    2  A    between atoms: C_5  and  C_12
REMARK    3  A    between atoms: N_9  and  C_11
REMARK    4  A    between atoms: C_16  and  C_25
REMARK    5  A    between atoms: N_27  and  C_28
REMARK    6  A    between atoms: C_28  and  C_30
REMARK    7  A    between atoms: C_28  and  C_31
REMARK    8  A    between atoms: C_31  and  C_32
REMARK    9  A    between atoms: C_32  and  C_33
REMARK   10  A    between atoms: C_33  and  C_34
REMARK   11  A    between atoms: C_34  and  C_35
REMARK   12  A    between atoms: C_34  and  C_36
REMARK   13  A    between atoms: C_34  and  O_37
REMARK                            x       y       z     vdW  Elec       q    Type
REMARK                         _______ _______ _______ _____ _____    ______ ____
ROOT
ATOM      1  C   UNL     1      -1.556  -0.939  -3.833  0.00  0.00    +0.250 C 
ATOM      2  O   UNL     1      -1.694   0.175  -4.302  0.00  0.00    -0.270 OA
ATOM      3  N   UNL     1      -1.114  -1.947  -4.610  0.00  0.00    -0.296 N 
ATOM      4  C   UNL     1      -0.947  -3.373  -4.240  0.00  0.00    +0.121 C 
ATOM      5  C   UNL     1      -1.413  -4.157  -5.486  0.00  0.00    +0.100 C 
ATOM      6  C   UNL     1      -1.239  -3.174  -6.656  0.00  0.00    -0.004 C 
ATOM      7  C   UNL     1      -0.693  -1.883  -6.030  0.00  0.00    +0.115 C 
ATOM      8  C   UNL     1      -2.584  -2.902  -7.323  0.00  0.00    -0.010 C 
ATOM      9  C   UNL     1      -2.377  -1.968  -8.518  0.00  0.00    -0.082 C 
ATOM     10  N   UNL     1      -1.451  -2.590  -9.473  0.00  0.00    +0.379 N 
ATOM     11  C   UNL     1      -0.133  -2.764  -8.852  0.00  0.00    -0.082 C 
ATOM     12  C   UNL     1      -0.245  -3.731  -7.671  0.00  0.00    -0.010 C 
ATOM     13  H   UNL     1      -1.812  -3.491  -9.751  0.00  0.00    -0.086 HD
ATOM     14  H   UNL     1      -1.364  -2.001 -10.287  0.00  0.00    -0.086 HD
ENDROOT
BRANCH   1  19
ATOM     15  C   UNL     1      -4.653   1.260   0.487  0.00  0.00    +0.068 C 
ATOM     16  C   UNL     1      -3.813   0.020   0.654  0.00  0.00    +0.071 A 
ATOM     17  C   UNL     1      -2.995  -0.613  -0.376  0.00  0.00    +0.060 A 
ATOM     18  C   UNL     1      -2.732  -0.330  -1.720  0.00  0.00    +0.067 A 
ATOM     19  C   UNL     1      -1.871  -1.185  -2.412  0.00  0.00    +0.074 A 
ATOM     20  C   UNL     1      -1.311  -2.280  -1.740  0.00  0.00    +0.127 A 
ATOM     21  N   UNL     1      -1.579  -2.517  -0.478  0.00  0.00    -0.235 NA
ATOM     22  C   UNL     1      -2.391  -1.735   0.227  0.00  0.00    +0.160 A 
ATOM     23  N   UNL     1      -2.824  -1.761   1.522  0.00  0.00    -0.249 N 
ATOM     24  N   UNL     1      -3.680  -0.678   1.746  0.00  0.00    -0.174 NA
ATOM     25  C   UNL     1      -2.446  -2.763   2.522  0.00  0.00    +0.174 C 
ATOM     26 CL   UNL     1      -3.454   1.041  -2.504  0.00  0.00    -0.082 Cl
ENDBRANCH   1  19
BRANCH   5  27
ATOM     27  C   UNL     1      -2.860  -4.556  -5.344  0.00  0.00    +0.218 C 
ATOM     28  O   UNL     1      -3.604  -3.900  -4.646  0.00  0.00    -0.275 OA
ATOM     29  N   UNL     1      -3.326  -5.641  -5.992  0.00  0.00    -0.312 N 
ATOM     30  H   UNL     1      -2.718  -6.204  -6.497  0.00  0.00    +0.149 HD
BRANCH  29  31
ATOM     31  C   UNL     1      -4.752  -5.972  -5.935  0.00  0.00    +0.070 C 
ATOM     32  C   UNL     1      -5.491  -5.241  -7.058  0.00  0.00    +0.028 C 
BRANCH  31  33
ATOM     33  C   UNL     1      -4.933  -7.482  -6.105  0.00  0.00    +0.022 C 
BRANCH  33  34
ATOM     34  C   UNL     1      -4.278  -8.209  -4.929  0.00  0.00    +0.005 C 
BRANCH  34  35
ATOM     35  C   UNL     1      -4.354  -9.720  -5.157  0.00  0.00    +0.034 C 
BRANCH  35  36
ATOM     36  C   UNL     1      -3.825 -10.450  -3.921  0.00  0.00    +0.061 C 
ATOM     37  C   UNL     1      -3.948 -11.961  -4.129  0.00  0.00    +0.041 C 
ATOM     38  C   UNL     1      -2.355 -10.083  -3.703  0.00  0.00    +0.041 C 
BRANCH  36  39
ATOM     39  O   UNL     1      -4.587 -10.063  -2.776  0.00  0.00    -0.389 OA
ATOM     40  H   UNL     1      -4.306 -10.488  -1.954  0.00  0.00    +0.210 HD
ENDBRANCH  36  39
ENDBRANCH  35  36
ENDBRANCH  34  35
ENDBRANCH  33  34
ENDBRANCH  31  33
ENDBRANCH  29  31
ENDBRANCH   5  27
TORSDOF 8
