REMARK  Name = ZINC06193554
REMARK  10 active torsions:
REMARK  status: ('A' for Active; 'I' for Inactive)
REMARK    1  A    between atoms: C_1  and  C_2
REMARK    2  A    between atoms: C_4  and  C_41
REMARK    3  A    between atoms: C_7  and  C_14
REMARK    4  A    between atoms: C_14  and  C_16
REMARK    5  A    between atoms: C_14  and  N_75
REMARK    6  A    between atoms: N_20  and  C_21
REMARK    7  A    between atoms: C_27  and  C_28
REMARK    8  A    between atoms: C_27  and  N_75
REMARK    9  A    between atoms: C_34  and  C_35
REMARK   10  A    between atoms: C_34  and  N_75
REMARK                            x       y       z     vdW  Elec       q    Type
REMARK                         _______ _______ _______ _____ _____    ______ ____
ROOT
ATOM      1  C   UNL     1      -2.709   6.695  -0.796  0.00  0.00    +0.040 C 
ENDROOT
BRANCH   1   8
ATOM      2  C   UNL     1       3.840   3.561  -4.099  0.00  0.00    +0.044 C 
ATOM      3  C   UNL     1       2.544   3.932  -3.424  0.00  0.00    -0.048 A 
ATOM      4  C   UNL     1       1.735   2.936  -2.895  0.00  0.00    +0.007 A 
ATOM      5  C   UNL     1       0.554   3.251  -2.284  0.00  0.00    -0.041 A 
ATOM      6  C   UNL     1       0.163   4.590  -2.181  0.00  0.00    +0.002 A 
ATOM      7  C   UNL     1      -1.093   4.963  -1.527  0.00  0.00    +0.018 A 
ATOM      8  C   UNL     1      -1.424   6.276  -1.462  0.00  0.00    +0.011 A 
ATOM      9  C   UNL     1      -0.568   7.253  -2.015  0.00  0.00    +0.251 A 
ATOM     10  O   UNL     1      -0.884   8.428  -1.945  0.00  0.00    -0.268 OA
ATOM     11  N   UNL     1       0.587   6.920  -2.617  0.00  0.00    -0.322 N 
ATOM     12  H   UNL     1       1.152   7.617  -2.986  0.00  0.00    +0.169 HD
ATOM     13  C   UNL     1       0.981   5.603  -2.716  0.00  0.00    +0.050 A 
ATOM     14  C   UNL     1       2.176   5.257  -3.339  0.00  0.00    +0.029 A 
ATOM     15  C   UNL     1      -0.319   2.161  -1.719  0.00  0.00    +0.044 C 
ENDBRANCH   1   8
BRANCH   1  16
ATOM     16  C   UNL     1      -2.397   7.519   0.426  0.00  0.00    +0.143 A 
ATOM     17  N   UNL     1      -1.715   8.637   0.463  0.00  0.00    -0.115 NA
ATOM     18  N   UNL     1      -1.666   9.034   1.688  0.00  0.00    -0.023 NA
ATOM     19  N   UNL     1      -2.300   8.197   2.434  0.00  0.00    -0.044 NA
ATOM     20  N   UNL     1      -2.769   7.252   1.692  0.00  0.00    -0.227 N 
BRANCH  20  21
ATOM     21  C   UNL     1      -3.557   6.102   2.143  0.00  0.00    +0.111 C 
ATOM     22  C   UNL     1      -4.894   6.588   2.706  0.00  0.00    +0.027 C 
ATOM     23  C   UNL     1      -5.716   5.387   3.177  0.00  0.00    +0.002 C 
ATOM     24  C   UNL     1      -4.947   4.638   4.267  0.00  0.00    +0.000 C 
ATOM     25  C   UNL     1      -3.610   4.152   3.705  0.00  0.00    +0.002 C 
ATOM     26  C   UNL     1      -2.787   5.353   3.233  0.00  0.00    +0.027 C 
ENDBRANCH  20  21
ENDBRANCH   1  16
BRANCH   1  27
ATOM     27  N   UNL     1      -3.492   7.513  -1.746  0.00  0.00    +0.395 N 
ATOM     28  H   UNL     1      -2.867   8.197  -2.191  0.00  0.00    -0.079 HD
BRANCH  27  29
ATOM     29  C   UNL     1      -4.562   8.236  -1.028  0.00  0.00    -0.041 C 
BRANCH  29  30
ATOM     30  C   UNL     1      -4.082   9.636  -0.739  0.00  0.00    -0.064 A 
ATOM     31  C   UNL     1      -3.820  10.021   0.562  0.00  0.00    +0.002 A 
ATOM     32  C   UNL     1      -3.376  11.303   0.827  0.00  0.00    +0.000 A 
ATOM     33  C   UNL     1      -3.203  12.203  -0.209  0.00  0.00    +0.000 A 
ATOM     34  C   UNL     1      -3.471  11.818  -1.510  0.00  0.00    +0.000 A 
ATOM     35  C   UNL     1      -3.910  10.535  -1.775  0.00  0.00    +0.002 A 
ENDBRANCH  29  30
ENDBRANCH  27  29
BRANCH  27  36
ATOM     36  C   UNL     1      -4.079   6.649  -2.792  0.00  0.00    -0.040 C 
BRANCH  36  37
ATOM     37  C   UNL     1      -3.018   6.343  -3.817  0.00  0.00    -0.046 A 
ATOM     38  C   UNL     1      -2.398   7.368  -4.514  0.00  0.00    +0.005 A 
ATOM     39  C   UNL     1      -1.424   7.039  -5.444  0.00  0.00    +0.020 A 
ATOM     40  C   UNL     1      -1.112   5.708  -5.651  0.00  0.00    +0.111 A 
ATOM     41  N   UNL     1      -1.726   4.759  -4.972  0.00  0.00    -0.263 NA
ATOM     42  C   UNL     1      -2.654   5.035  -4.077  0.00  0.00    +0.112 A 
ENDBRANCH  36  37
ENDBRANCH  27  36
ENDBRANCH   1  27
TORSDOF 8
