REMARK  Name = ZINC20624329
REMARK  10 active torsions:
REMARK  status: ('A' for Active; 'I' for Inactive)
REMARK    1  A    between atoms: C_1  and  C_2
REMARK    2  A    between atoms: C_2  and  C_33
REMARK    3  A    between atoms: C_7  and  O_32
REMARK    4  A    between atoms: C_9  and  O_13
REMARK    5  A    between atoms: O_13  and  C_14
REMARK    6  A    between atoms: C_14  and  C_15
REMARK    7  A    between atoms: N_17  and  C_18
REMARK    8  A    between atoms: C_18  and  C_19
REMARK    9  A    between atoms: C_19  and  N_25
REMARK   10  A    between atoms: N_28  and  C_31
REMARK                            x       y       z     vdW  Elec       q    Type
REMARK                         _______ _______ _______ _____ _____    ______ ____
ROOT
ATOM      1  C   UNL     1       6.462   0.141   5.315  0.00  0.00    +0.251 C 
ATOM      2  O   UNL     1       5.669  -0.076   6.207  0.00  0.00    -0.272 OA
ATOM      3  N   UNL     1       7.764   0.338   5.604  0.00  0.00    -0.311 N 
ATOM      4  H   UNL     1       8.398   0.512   4.891  0.00  0.00    +0.149 HD
ENDROOT
BRANCH   1   5
ATOM      5  C   UNL     1       5.992   0.192   3.884  0.00  0.00    +0.324 C 
BRANCH   5   6
ATOM      6  O   UNL     1       4.584  -0.045   3.837  0.00  0.00    -0.483 OA
BRANCH   6  15
ATOM      7  C   UNL     1      -0.019   1.526   0.010  0.00  0.00    +0.056 C 
ATOM      8  C   UNL     1       0.002  -0.004   0.002  0.00  0.00    +0.112 C 
ATOM      9  C   UNL     1       0.724  -0.500  -1.260  0.00  0.00    +0.127 C 
ATOM     10  C   UNL     1       2.147   0.026  -1.199  0.00  0.00    +0.174 C 
ATOM     11  O   UNL     1       2.715   0.445  -2.186  0.00  0.00    -0.292 OA
ATOM     12  C   UNL     1       2.800   0.001   0.115  0.00  0.00    +0.101 A 
ATOM     13  C   UNL     1       4.182   0.221   0.232  0.00  0.00    +0.134 A 
ATOM     14  C   UNL     1       4.771   0.203   1.483  0.00  0.00    +0.092 A 
ATOM     15  C   UNL     1       3.998  -0.033   2.613  0.00  0.00    +0.128 A 
ATOM     16  C   UNL     1       2.632  -0.257   2.503  0.00  0.00    +0.092 A 
ATOM     17  C   UNL     1       2.022  -0.246   1.261  0.00  0.00    +0.139 A 
ATOM     18  O   UNL     1       0.692  -0.477   1.158  0.00  0.00    -0.485 OA
ATOM     19  C   UNL     1      -1.433  -0.534   0.011  0.00  0.00    +0.056 C 
BRANCH  13  20
ATOM     20  O   UNL     1       4.933   0.449  -0.874  0.00  0.00    -0.506 OA
ATOM     21  H   UNL     1       5.006   1.383  -1.114  0.00  0.00    +0.292 HD
ENDBRANCH  13  20
ENDBRANCH   6  15
ENDBRANCH   5   6
ENDBRANCH   1   5
BRANCH   3  22
ATOM     22  C   UNL     1       8.221   0.288   6.995  0.00  0.00    +0.126 C 
BRANCH  22  23
ATOM     23  C   UNL     1       9.729   0.542   7.046  0.00  0.00    +0.037 C 
ATOM     24  C   UNL     1      10.206   0.490   8.499  0.00  0.00    +0.024 C 
ATOM     25  C   UNL     1       9.901  -0.889   9.087  0.00  0.00    +0.002 C 
ATOM     26  C   UNL     1      10.626  -1.963   8.273  0.00  0.00    +0.000 C 
ATOM     27  C   UNL     1      10.149  -1.911   6.821  0.00  0.00    +0.002 C 
ATOM     28  C   UNL     1      10.454  -0.532   6.232  0.00  0.00    +0.024 C 
BRANCH  23  29
ATOM     29  N   UNL     1      10.022   1.866   6.481  0.00  0.00    -0.299 NA
ATOM     30  C   UNL     1      11.471   2.108   6.432  0.00  0.00    +0.066 C 
ATOM     31  C   UNL     1      11.736   3.469   5.785  0.00  0.00    -0.064 C 
ATOM     32  N   UNL     1      11.071   4.521   6.566  0.00  0.00    +0.379 N 
ATOM     33  C   UNL     1       9.623   4.279   6.584  0.00  0.00    -0.064 C 
ATOM     34  C   UNL     1       9.341   2.924   7.239  0.00  0.00    +0.066 C 
ATOM     35  C   UNL     1      11.341   5.829   5.953  0.00  0.00    -0.096 C 
ATOM     36  H   UNL     1      11.426   4.513   7.510  0.00  0.00    -0.082 HD
ENDBRANCH  23  29
ENDBRANCH  22  23
ENDBRANCH   3  22
TORSDOF 7
