REMARK  Name = ZINC35992878
REMARK  10 active torsions:
REMARK  status: ('A' for Active; 'I' for Inactive)
REMARK    1  A    between atoms: C_1  and  C_2
REMARK    2  A    between atoms: C_2  and  N_3
REMARK    3  A    between atoms: N_10  and  C_13
REMARK    4  A    between atoms: C_13  and  C_14
REMARK    5  A    between atoms: C_15  and  C_30
REMARK    6  A    between atoms: C_16  and  C_23
REMARK    7  A    between atoms: N_21  and  C_22
REMARK    8  A    between atoms: C_30  and  O_32
REMARK    9  A    between atoms: O_32  and  C_33
REMARK   10  A    between atoms: C_33  and  C_34
REMARK                            x       y       z     vdW  Elec       q    Type
REMARK                         _______ _______ _______ _____ _____    ______ ____
ROOT
ATOM      1  C   UNL     1       5.305  -5.715  -1.793  0.00  0.00    +0.010 C 
ATOM      2  C   UNL     1       6.002  -6.001  -2.913  0.00  0.00    +0.076 C 
ATOM      3  C   UNL     1       6.023  -7.442  -3.382  0.00  0.00    +0.145 C 
ATOM      4  N   UNL     1       5.276  -8.418  -2.572  0.00  0.00    -0.288 N 
ATOM      5  C   UNL     1       4.626  -7.979  -1.476  0.00  0.00    +0.307 C 
ATOM      6  O   UNL     1       4.007  -8.777  -0.800  0.00  0.00    -0.252 OA
ATOM      7  N   UNL     1       4.646  -6.693  -1.103  0.00  0.00    -0.264 N 
ATOM      8  C   UNL     1       3.914  -6.312   0.107  0.00  0.00    +0.139 C 
ATOM      9  H   UNL     1       5.251  -9.355  -2.821  0.00  0.00    +0.151 HD
ENDROOT
BRANCH   3  10
ATOM     10  C   UNL     1       5.470  -7.482  -4.784  0.00  0.00    -0.004 A 
ATOM     11  C   UNL     1       4.664  -6.455  -5.239  0.00  0.00    +0.007 A 
ATOM     12  C   UNL     1       4.157  -6.492  -6.524  0.00  0.00    +0.000 A 
ATOM     13  C   UNL     1       4.454  -7.556  -7.355  0.00  0.00    +0.001 A 
ATOM     14  C   UNL     1       5.259  -8.584  -6.901  0.00  0.00    +0.020 A 
ATOM     15  C   UNL     1       5.772  -8.544  -5.616  0.00  0.00    +0.046 A 
ATOM     16 CL   UNL     1       6.788  -9.832  -5.048  0.00  0.00    -0.083 Cl
ENDBRANCH   3  10
BRANCH   2  17
ATOM     17  C   UNL     1       6.689  -4.990  -3.625  0.00  0.00    +0.339 C 
ATOM     18  O   UNL     1       6.580  -3.826  -3.287  0.00  0.00    -0.245 OA
BRANCH  17  19
ATOM     19  O   UNL     1       7.465  -5.316  -4.680  0.00  0.00    -0.462 OA
BRANCH  19  20
ATOM     20  C   UNL     1       8.130  -4.245  -5.352  0.00  0.00    +0.229 C 
ATOM     21  C   UNL     1       8.957  -4.804  -6.511  0.00  0.00    +0.048 C 
ENDBRANCH  19  20
ENDBRANCH  17  19
ENDBRANCH   2  17
BRANCH   1  22
ATOM     22  C   UNL     1       5.258  -4.295  -1.291  0.00  0.00    -0.026 C 
BRANCH  22  30
ATOM     23  N   UNL     1       0.059  -3.035  -0.562  0.00  0.00    -0.300 N 
ATOM     24  C   UNL     1       0.670  -1.972  -1.120  0.00  0.00    +0.302 C 
ATOM     25  O   UNL     1       0.385  -0.847  -0.758  0.00  0.00    -0.253 OA
ATOM     26  N   UNL     1       1.598  -2.156  -2.081  0.00  0.00    -0.287 N 
ATOM     27  C   UNL     1       2.325  -0.981  -2.603  0.00  0.00    +0.107 C 
ATOM     28  C   UNL     1       3.819  -1.296  -2.797  0.00  0.00    +0.000 C 
ATOM     29  C   UNL     1       4.309  -2.144  -1.645  0.00  0.00    -0.077 C 
ATOM     30  N   UNL     1       4.210  -3.556  -2.009  0.00  0.00    +0.384 N 
ATOM     31  C   UNL     1       2.965  -4.159  -1.724  0.00  0.00    -0.059 C 
ATOM     32  C   UNL     1       1.850  -3.499  -2.560  0.00  0.00    +0.091 C 
ATOM     33  H   UNL     1       0.233  -3.928  -0.900  0.00  0.00    +0.150 HD
ATOM     34  H   UNL     1       4.387  -3.642  -2.999  0.00  0.00    -0.081 HD
BRANCH  23  36
ATOM     35  C   UNL     1      -1.418  -4.200   1.001  0.00  0.00    +0.024 C 
ATOM     36  C   UNL     1      -0.867  -2.844   0.557  0.00  0.00    +0.102 C 
ENDBRANCH  23  36
ENDBRANCH  22  30
ENDBRANCH   1  22
TORSDOF 7
