REMARK  Name = ZINC55154832
REMARK  11 active torsions:
REMARK  status: ('A' for Active; 'I' for Inactive)
REMARK    1  A    between atoms: C_1  and  C_2
REMARK    2  A    between atoms: C_5  and  C_7
REMARK    3  A    between atoms: C_11  and  O_13
REMARK    4  A    between atoms: O_13  and  C_14
REMARK    5  A    between atoms: C_14  and  C_15
REMARK    6  A    between atoms: N_20  and  C_22
REMARK    7  A    between atoms: N_26  and  C_28
REMARK    8  A    between atoms: C_28  and  C_29
REMARK    9  A    between atoms: C_31  and  O_36
REMARK   10  A    between atoms: C_34  and  O_35
REMARK   11  A    between atoms: O_36  and  C_37
REMARK                            x       y       z     vdW  Elec       q    Type
REMARK                         _______ _______ _______ _____ _____    ______ ____
ROOT
ATOM      1  C   UNL     1       1.191  -3.247  -1.003  0.00  0.00    -0.007 A 
ATOM      2  C   UNL     1       2.529  -3.599  -0.815  0.00  0.00    +0.017 A 
ATOM      3  C   UNL     1       2.856  -4.905  -0.521  0.00  0.00    +0.012 A 
ATOM      4  C   UNL     1       1.873  -5.871  -0.422  0.00  0.00    +0.166 A 
ATOM      5  C   UNL     1       0.534  -5.526  -0.596  0.00  0.00    +0.163 A 
ATOM      6  C   UNL     1       0.194  -4.216  -0.882  0.00  0.00    +0.058 A 
ATOM      7  O   UNL     1       2.217  -7.167  -0.184  0.00  0.00    -0.487 OA
ATOM      8  C   UNL     1       2.908  -7.825  -1.252  0.00  0.00    +0.244 C 
ATOM      9  C   UNL     1       4.396  -7.556  -1.177  0.00  0.00    +0.126 C 
ATOM     10  N   UNL     1       4.747  -6.154  -1.389  0.00  0.00    -0.291 NA
ATOM     11  C   UNL     1       4.304  -5.291  -0.288  0.00  0.00    +0.123 C 
ENDROOT
BRANCH   1  16
ATOM     12  C   UNL     1       0.793   2.251  -2.185  0.00  0.00    +0.051 C 
ATOM     13  C   UNL     1       0.636   0.781  -1.890  0.00  0.00    -0.013 A 
ATOM     14  C   UNL     1      -0.499   0.040  -1.828  0.00  0.00    +0.011 A 
ATOM     15  C   UNL     1      -0.407  -1.305  -1.540  0.00  0.00    +0.016 A 
ATOM     16  C   UNL     1       0.830  -1.849  -1.325  0.00  0.00    +0.020 A 
ATOM     17  S   UNL     1       1.897  -0.434  -1.541  0.00  0.00    -0.093 S 
ENDBRANCH   1  16
BRANCH   5  18
ATOM     18  O   UNL     1      -0.435  -6.473  -0.479  0.00  0.00    -0.488 OA
BRANCH  18  19
ATOM     19  C   UNL     1      -1.786  -6.046  -0.671  0.00  0.00    +0.231 C 
BRANCH  19  20
ATOM     20  C   UNL     1      -2.727  -7.241  -0.502  0.00  0.00    +0.010 C 
ATOM     21  C   UNL     1      -2.465  -8.259  -1.615  0.00  0.00    +0.003 C 
ATOM     22  C   UNL     1      -3.463  -9.413  -1.483  0.00  0.00    -0.018 C 
ATOM     23  C   UNL     1      -4.888  -8.855  -1.531  0.00  0.00    -0.079 C 
ATOM     24  N   UNL     1      -5.083  -7.908  -0.427  0.00  0.00    +0.378 N 
ATOM     25  C   UNL     1      -4.178  -6.763  -0.585  0.00  0.00    -0.072 C 
ATOM     26  C   UNL     1      -6.474  -7.435  -0.430  0.00  0.00    -0.096 C 
ATOM     27  H   UNL     1      -4.889  -8.369   0.449  0.00  0.00    -0.082 HD
ENDBRANCH  19  20
ENDBRANCH  18  19
ENDBRANCH   5  18
BRANCH  10  28
ATOM     28  C   UNL     1       6.188  -6.003  -1.629  0.00  0.00    +0.123 C 
BRANCH  28  29
ATOM     29  C   UNL     1       6.514  -6.454  -3.029  0.00  0.00    +0.011 A 
ATOM     30  C   UNL     1       7.134  -7.671  -3.236  0.00  0.00    +0.054 A 
ATOM     31  C   UNL     1       7.433  -8.086  -4.525  0.00  0.00    +0.121 A 
ATOM     32  C   UNL     1       7.110  -7.279  -5.606  0.00  0.00    +0.049 A 
ATOM     33  C   UNL     1       6.490  -6.063  -5.399  0.00  0.00    +0.049 A 
ATOM     34  C   UNL     1       6.186  -5.650  -4.111  0.00  0.00    +0.121 A 
BRANCH  34  35
ATOM     35  O   UNL     1       5.570  -4.454  -3.907  0.00  0.00    -0.506 OA
ATOM     36  H   UNL     1       6.176  -3.702  -3.869  0.00  0.00    +0.292 HD
ENDBRANCH  34  35
BRANCH  31  37
ATOM     37  O   UNL     1       8.044  -9.284  -4.729  0.00  0.00    -0.495 OA
ATOM     38  C   UNL     1       8.323  -9.648  -6.082  0.00  0.00    +0.277 C 
ENDBRANCH  31  37
ENDBRANCH  28  29
ENDBRANCH  10  28
TORSDOF 8
