REMARK  Name = ZINC29595257
REMARK  16 active torsions:
REMARK  status: ('A' for Active; 'I' for Inactive)
REMARK    1  A    between atoms: C_1  and  C_2
REMARK    2  A    between atoms: C_2  and  C_3
REMARK    3  A    between atoms: C_3  and  C_4
REMARK    4  A    between atoms: C_4  and  N_5
REMARK    5  A    between atoms: C_6  and  C_28
REMARK    6  A    between atoms: C_9  and  S_10
REMARK    7  A    between atoms: S_10  and  C_11
REMARK    8  A    between atoms: C_11  and  C_12
REMARK    9  A    between atoms: N_14  and  C_15
REMARK   10  A    between atoms: C_15  and  C_17
REMARK   11  A    between atoms: C_15  and  C_18
REMARK   12  A    between atoms: C_28  and  C_30
REMARK   13  A    between atoms: C_28  and  N_32
REMARK   14  A    between atoms: C_30  and  C_31
REMARK   15  A    between atoms: N_32  and  C_33
REMARK   16  A    between atoms: N_32  and  C_34
REMARK                            x       y       z     vdW  Elec       q    Type
REMARK                         _______ _______ _______ _____ _____    ______ ____
ROOT
ATOM      1  S   UNL     1       9.192   4.912  -3.143  0.00  0.00    -0.077 S 
ENDROOT
BRANCH   1   6
ATOM      2  N   UNL     1      11.237   4.141  -4.890  0.00  0.00    -0.307 N 
ATOM      3  C   UNL     1      11.733   2.959  -5.367  0.00  0.00    +0.120 A 
ATOM      4  N   UNL     1      11.031   2.000  -4.832  0.00  0.00    -0.135 NA
ATOM      5  N   UNL     1      10.135   2.491  -4.053  0.00  0.00    -0.123 NA
ATOM      6  C   UNL     1      10.213   3.802  -4.054  0.00  0.00    +0.192 A 
BRANCH   2   7
ATOM      7  C   UNL     1      11.707   5.491  -5.211  0.00  0.00    +0.125 C 
BRANCH   7   8
ATOM      8  C   UNL     1      12.794   5.902  -4.215  0.00  0.00    +0.021 C 
BRANCH   8  10
ATOM      9  C   UNL     1      14.371   7.723  -3.554  0.00  0.00    +0.004 C 
ATOM     10  C   UNL     1      13.285   7.312  -4.549  0.00  0.00    -0.002 C 
ENDBRANCH   8  10
ENDBRANCH   7   8
ENDBRANCH   2   7
BRANCH   3  11
ATOM     11  C   UNL     1      12.879   2.796  -6.332  0.00  0.00    +0.000 C 
BRANCH  11  12
ATOM     12  N   UNL     1      12.425   2.044  -7.509  0.00  0.00    +0.383 N 
ATOM     13  C   UNL     1      11.825   0.762  -7.116  0.00  0.00    -0.096 C 
ATOM     14  C   UNL     1      11.487   2.840  -8.312  0.00  0.00    -0.096 C 
ATOM     15  H   UNL     1      13.305   1.828  -8.133  0.00  0.00    -0.082 HD
ENDBRANCH  11  12
BRANCH  11  16
ATOM     16  C   UNL     1      14.017   2.034  -5.648  0.00  0.00    -0.011 C 
ATOM     17  C   UNL     1      15.218   1.955  -6.593  0.00  0.00    +0.002 C 
ENDBRANCH  11  16
ENDBRANCH   3  11
ENDBRANCH   1   6
BRANCH   1  18
ATOM     18  C   UNL     1       8.110   3.729  -2.304  0.00  0.00    +0.173 C 
BRANCH  18  19
ATOM     19  C   UNL     1       7.124   4.473  -1.441  0.00  0.00    +0.224 C 
ATOM     20  O   UNL     1       7.151   5.685  -1.397  0.00  0.00    -0.275 OA
ATOM     21  N   UNL     1       6.213   3.793  -0.717  0.00  0.00    -0.308 N 
ATOM     22  H   UNL     1       6.189   2.694  -0.757  0.00  0.00    +0.149 HD
BRANCH  21  23
ATOM     23  C   UNL     1       5.255   4.517   0.121  0.00  0.00    +0.100 C 
ATOM     24  C   UNL     1       5.892   4.818   1.479  0.00  0.00    +0.033 C 
BRANCH  23  25
ATOM     25  C   UNL     1       4.023   3.672   0.321  0.00  0.00    -0.027 A 
ATOM     26  C   UNL     1       4.158   2.300   0.528  0.00  0.00    +0.006 A 
ATOM     27  C   UNL     1       3.066   1.508   0.711  0.00  0.00    +0.009 A 
ATOM     28  C   UNL     1       1.782   2.079   0.692  0.00  0.00    -0.018 A 
ATOM     29  C   UNL     1       0.631   1.294   0.877  0.00  0.00    +0.008 A 
ATOM     30  C   UNL     1      -0.596   1.881   0.846  0.00  0.00    +0.001 A 
ATOM     31  C   UNL     1      -0.731   3.253   0.645  0.00  0.00    +0.001 A 
ATOM     32  C   UNL     1       0.361   4.045   0.461  0.00  0.00    +0.008 A 
ATOM     33  C   UNL     1       1.645   3.474   0.481  0.00  0.00    -0.018 A 
ATOM     34  C   UNL     1       2.796   4.259   0.295  0.00  0.00    +0.014 A 
ENDBRANCH  23  25
ENDBRANCH  21  23
ENDBRANCH  18  19
ENDBRANCH   1  18
TORSDOF 11
