REMARK  Name = ZINC14012012
REMARK  4 active torsions:
REMARK  status: ('A' for Active; 'I' for Inactive)
REMARK    1  A    between atoms: C_6  and  N_7
REMARK    2  A    between atoms: C_19  and  C_21
REMARK    3  A    between atoms: C_21  and  C_22
REMARK    4  A    between atoms: N_24  and  C_25
REMARK                            x       y       z     vdW  Elec       q    Type
REMARK                         _______ _______ _______ _____ _____    ______ ____
ROOT
ATOM      1  N   UNL     1       4.881   2.612  -4.814  0.00  0.00    -0.214 N 
ATOM      2  C   UNL     1       4.348   3.153  -3.683  0.00  0.00    +0.171 A 
ATOM      3  C   UNL     1       3.771   2.095  -2.961  0.00  0.00    +0.103 A 
ATOM      4  C   UNL     1       3.986   0.919  -3.712  0.00  0.00    +0.150 A 
ATOM      5  N   UNL     1       4.637   1.234  -4.796  0.00  0.00    -0.172 NA
ATOM      6  C   UNL     1       3.139   2.375  -1.731  0.00  0.00    +0.266 A 
ATOM      7  O   UNL     1       2.632   1.475  -1.086  0.00  0.00    -0.267 OA
ATOM      8  N   UNL     1       3.099   3.664  -1.261  0.00  0.00    -0.283 N 
ATOM      9  C   UNL     1       3.686   4.629  -2.029  0.00  0.00    +0.174 A 
ATOM     10  N   UNL     1       4.278   4.387  -3.177  0.00  0.00    -0.203 NA
ATOM     11  S   UNL     1       3.472   6.172  -1.166  0.00  0.00    -0.085 S 
ATOM     12  C   UNL     1       2.559   5.568   0.301  0.00  0.00    +0.103 C 
ATOM     13  C   UNL     1       2.472   4.066  -0.002  0.00  0.00    +0.112 C 
ENDROOT
BRANCH   1  19
ATOM     14  C   UNL     1       5.157   4.602  -6.158  0.00  0.00    +0.029 A 
ATOM     15  C   UNL     1       5.827   5.294  -7.147  0.00  0.00    +0.022 A 
ATOM     16  C   UNL     1       6.887   4.702  -7.811  0.00  0.00    +0.041 A 
ATOM     17  C   UNL     1       7.282   3.417  -7.482  0.00  0.00    +0.022 A 
ATOM     18  C   UNL     1       6.619   2.723  -6.489  0.00  0.00    +0.029 A 
ATOM     19  C   UNL     1       5.555   3.315  -5.821  0.00  0.00    +0.068 A 
ATOM     20 CL   UNL     1       7.723   5.572  -9.059  0.00  0.00    -0.084 Cl
ENDBRANCH   1  19
BRANCH  13  21
ATOM     21  C   UNL     1       0.997   3.664  -0.046  0.00  0.00    +0.122 C 
BRANCH  21  22
ATOM     22  C   UNL     1       0.365   3.924   1.298  0.00  0.00    +0.219 C 
ATOM     23  O   UNL     1       1.006   4.466   2.174  0.00  0.00    -0.275 OA
ATOM     24  N   UNL     1      -0.911   3.555   1.526  0.00  0.00    -0.284 N 
ATOM     25  H   UNL     1      -1.396   3.048   0.856  0.00  0.00    +0.155 HD
BRANCH  24  26
ATOM     26  C   UNL     1      -1.534   3.898   2.732  0.00  0.00    +0.052 A 
ATOM     27  C   UNL     1      -1.089   4.995   3.458  0.00  0.00    +0.026 A 
ATOM     28  C   UNL     1      -1.708   5.333   4.645  0.00  0.00    +0.022 A 
ATOM     29  C   UNL     1      -2.764   4.575   5.117  0.00  0.00    +0.042 A 
ATOM     30  C   UNL     1      -3.207   3.478   4.399  0.00  0.00    +0.041 A 
ATOM     31  C   UNL     1      -2.595   3.137   3.208  0.00  0.00    +0.064 A 
ATOM     32 CL   UNL     1      -3.151   1.761   2.308  0.00  0.00    -0.082 Cl
ATOM     33 CL   UNL     1      -3.535   5.000   6.614  0.00  0.00    -0.083 Cl
ENDBRANCH  24  26
ENDBRANCH  21  22
ENDBRANCH  13  21
TORSDOF 4
