REMARK  Name = ZINC09090659
REMARK  2 active torsions:
REMARK  status: ('A' for Active; 'I' for Inactive)
REMARK    1  A    between atoms: C_1  and  C_2
REMARK    2  A    between atoms: N_16  and  C_22
REMARK                            x       y       z     vdW  Elec       q    Type
REMARK                         _______ _______ _______ _____ _____    ______ ____
ROOT
ATOM      1  C   UNL     1      -0.197   4.880   6.400  0.00  0.00    +0.044 C 
ATOM      2  C   UNL     1      -0.689   3.786   5.489  0.00  0.00    -0.050 A 
ATOM      3  C   UNL     1      -1.716   2.953   5.907  0.00  0.00    +0.005 A 
ATOM      4  C   UNL     1      -2.186   1.948   5.084  0.00  0.00    +0.024 A 
ATOM      5  C   UNL     1      -1.627   1.776   3.831  0.00  0.00    +0.044 A 
ATOM      6  C   UNL     1      -0.575   2.610   3.407  0.00  0.00    +0.059 A 
ATOM      7  C   UNL     1      -0.114   3.621   4.246  0.00  0.00    +0.018 A 
ATOM      8  C   UNL     1       0.008   2.376   2.072  0.00  0.00    +0.254 C 
ATOM      9  O   UNL     1       1.041   2.921   1.734  0.00  0.00    -0.270 OA
ATOM     10  N   UNL     1      -0.647   1.532   1.234  0.00  0.00    -0.255 N 
ATOM     11  C   UNL     1      -0.013   1.086   0.008  0.00  0.00    +0.115 C 
ATOM     12  C   UNL     1      -0.692   1.560  -1.241  0.00  0.00    +0.026 C 
ATOM     13  C   UNL     1      -1.926   0.775  -1.600  0.00  0.00    +0.059 C 
ATOM     14  C   UNL     1      -3.082   1.115  -0.701  0.00  0.00    +0.073 C 
ATOM     15  N   UNL     1      -4.279   1.482  -1.006  0.00  0.00    -0.177 NA
ATOM     16  N   UNL     1      -5.120   1.431   0.107  0.00  0.00    -0.172 N 
ATOM     17  C   UNL     1      -4.398   1.042   1.210  0.00  0.00    +0.150 C 
ATOM     18  N   UNL     1      -4.865   0.751   2.408  0.00  0.00    -0.283 NA
ATOM     19  C   UNL     1      -2.992   1.018   0.772  0.00  0.00    +0.075 C 
ATOM     20  C   UNL     1      -1.901   1.107   1.602  0.00  0.00    +0.110 C 
ATOM     21  N   UNL     1      -2.074   0.805   2.946  0.00  0.00    -0.301 N 
ATOM     22  H   UNL     1      -4.174   0.451   3.209  0.00  0.00    +0.188 HD
ATOM     23  H   UNL     1      -2.526  -0.121   3.328  0.00  0.00    +0.153 HD
ENDROOT
BRANCH  16  24
ATOM     24  C   UNL     1      -6.489   1.729   0.101  0.00  0.00    +0.095 A 
ATOM     25  C   UNL     1      -7.419   0.727  -0.151  0.00  0.00    +0.067 A 
ATOM     26  C   UNL     1      -8.769   1.023  -0.151  0.00  0.00    +0.042 A 
ATOM     27  C   UNL     1      -9.195   2.318   0.088  0.00  0.00    +0.044 A 
ATOM     28  C   UNL     1      -8.271   3.319   0.333  0.00  0.00    +0.042 A 
ATOM     29  C   UNL     1      -6.920   3.028   0.340  0.00  0.00    +0.067 A 
ATOM     30 CL   UNL     1      -5.762   4.285   0.647  0.00  0.00    -0.081 Cl
ATOM     31 CL   UNL     1     -10.891   2.687   0.080  0.00  0.00    -0.083 Cl
ATOM     32 CL   UNL     1      -6.885  -0.896  -0.458  0.00  0.00    -0.081 Cl
ENDBRANCH  16  24
TORSDOF 1
