REMARK  Name = ZINC08274246
REMARK  10 active torsions:
REMARK  status: ('A' for Active; 'I' for Inactive)
REMARK    1  A    between atoms: C_1  and  C_2
REMARK    2  A    between atoms: C_2  and  O_3
REMARK    3  A    between atoms: O_3  and  C_4
REMARK    4  A    between atoms: C_4  and  C_6
REMARK    5  A    between atoms: C_7  and  C_15
REMARK    6  A    between atoms: C_12  and  C_14
REMARK    7  A    between atoms: C_15  and  N_53
REMARK    8  A    between atoms: C_24  and  C_26
REMARK    9  A    between atoms: C_26  and  O_28
REMARK   10  A    between atoms: O_28  and  C_29
REMARK                            x       y       z     vdW  Elec       q    Type
REMARK                         _______ _______ _______ _____ _____    ______ ____
ROOT
ATOM      1  C   UNL     1      -2.464  -2.738   0.427  0.00  0.00    -0.025 C 
ENDROOT
BRANCH   1  11
ATOM      2  C   UNL     1      -1.224  -0.815  -0.358  0.00  0.00    -0.041 C 
ATOM      3  C   UNL     1      -0.038  -0.359  -1.167  0.00  0.00    -0.061 A 
ATOM      4  C   UNL     1       0.050   0.981  -1.513  0.00  0.00    +0.002 A 
ATOM      5  C   UNL     1       1.124   1.444  -2.245  0.00  0.00    +0.000 A 
ATOM      6  C   UNL     1       2.119   0.568  -2.636  0.00  0.00    +0.000 A 
ATOM      7  C   UNL     1       2.032  -0.767  -2.295  0.00  0.00    +0.004 A 
ATOM      8  C   UNL     1       0.952  -1.233  -1.561  0.00  0.00    -0.047 A 
ATOM      9  C   UNL     1       0.897  -2.699  -1.216  0.00  0.00    +0.031 C 
ATOM     10  C   UNL     1      -0.102  -2.931  -0.082  0.00  0.00    +0.048 C 
ATOM     11  N   UNL     1      -1.373  -2.276  -0.459  0.00  0.00    +0.395 N 
ATOM     12  H   UNL     1      -1.603  -2.524  -1.429  0.00  0.00    -0.080 HD
BRANCH  10  13
ATOM     13  C   UNL     1      -0.329  -4.410   0.099  0.00  0.00    +0.293 C 
ATOM     14  O   UNL     1      -1.155  -4.981  -0.574  0.00  0.00    -0.253 OA
BRANCH  13  15
ATOM     15  O   UNL     1       0.386  -5.093   1.006  0.00  0.00    -0.469 OA
ATOM     16  C   UNL     1       0.114  -6.514   1.126  0.00  0.00    +0.280 C 
ENDBRANCH  13  15
ENDBRANCH  10  13
ENDBRANCH   1  11
BRANCH   1  18
ATOM     17  C   UNL     1      -4.686  -2.479  -0.618  0.00  0.00    +0.072 C 
ATOM     18  C   UNL     1      -3.708  -1.937   0.138  0.00  0.00    +0.007 C 
ATOM     19  N   UNL     1      -3.828  -0.677   0.649  0.00  0.00    -0.274 N 
ATOM     20  C   UNL     1      -4.892   0.110   0.443  0.00  0.00    +0.304 C 
ATOM     21  O   UNL     1      -4.907   1.221   0.936  0.00  0.00    -0.253 OA
ATOM     22  N   UNL     1      -5.949  -0.292  -0.291  0.00  0.00    -0.292 N 
ATOM     23  C   UNL     1      -5.920  -1.640  -0.883  0.00  0.00    +0.110 C 
ATOM     24  C   UNL     1      -6.072  -1.492  -2.398  0.00  0.00    +0.033 C 
ATOM     25  H   UNL     1      -3.101  -0.331   1.190  0.00  0.00    +0.156 HD
ATOM     26  H   UNL     1      -6.711   0.293  -0.425  0.00  0.00    +0.151 HD
BRANCH  17  27
ATOM     27  C   UNL     1      -4.565  -3.787  -1.143  0.00  0.00    +0.338 C 
ATOM     28  O   UNL     1      -5.146  -4.714  -0.610  0.00  0.00    -0.245 OA
BRANCH  27  29
ATOM     29  O   UNL     1      -3.806  -4.007  -2.237  0.00  0.00    -0.462 OA
BRANCH  29  31
ATOM     30  C   UNL     1      -2.829  -5.404  -3.950  0.00  0.00    +0.048 C 
ATOM     31  C   UNL     1      -3.728  -5.352  -2.713  0.00  0.00    +0.229 C 
ENDBRANCH  29  31
ENDBRANCH  27  29
ENDBRANCH  17  27
ENDBRANCH   1  18
TORSDOF 7
