REMARK  Name = ZINC02583467
REMARK  6 active torsions:
REMARK  status: ('A' for Active; 'I' for Inactive)
REMARK    1  A    between atoms: C_13  and  C_14
REMARK    2  A    between atoms: C_14  and  O_15
REMARK    3  A    between atoms: O_15  and  C_16
REMARK    4  A    between atoms: N_18  and  C_19
REMARK    5  A    between atoms: C_19  and  C_26
REMARK    6  A    between atoms: C_22  and  O_25
REMARK                            x       y       z     vdW  Elec       q    Type
REMARK                         _______ _______ _______ _____ _____    ______ ____
ROOT
ATOM      1  O   UNL     1       1.999   5.635  -3.969  0.00  0.00    -0.449 OA
ENDROOT
BRANCH   1   2
ATOM      2  C   UNL     1       2.527   4.941  -2.943  0.00  0.00    +0.401 C 
ATOM      3  O   UNL     1       3.732   4.817  -2.850  0.00  0.00    -0.226 OA
ATOM      4  N   UNL     1       1.718   4.385  -2.019  0.00  0.00    -0.265 N 
ATOM      5  H   UNL     1       0.756   4.484  -2.094  0.00  0.00    +0.153 HD
BRANCH   4   6
ATOM      6  C   UNL     1       2.293   3.631  -0.902  0.00  0.00    +0.141 C 
ATOM      7  C   UNL     1       3.051   2.396  -1.433  0.00  0.00    +0.040 C 
ATOM      8  C   UNL     1       2.021   1.244  -1.328  0.00  0.00    +0.034 C 
ATOM      9  C   UNL     1       1.286   1.562  -0.002  0.00  0.00    +0.117 C 
ATOM     10  C   UNL     1       1.171   3.100   0.007  0.00  0.00    +0.068 C 
BRANCH   6  11
ATOM     11  C   UNL     1       3.227   4.509  -0.111  0.00  0.00    +0.379 C 
ATOM     12  O   UNL     1       3.328   4.362   1.084  0.00  0.00    -0.244 OA
ATOM     13  O   UNL     1       3.947   5.455  -0.734  0.00  0.00    -0.244 OA
ENDBRANCH   6  11
BRANCH   9  14
ATOM     14  O   UNL     1      -0.011   0.963   0.007  0.00  0.00    -0.392 OA
ATOM     15  H   UNL     1       0.002  -0.004   0.002  0.00  0.00    +0.210 HD
ENDBRANCH   9  14
ENDBRANCH   4   6
ENDBRANCH   1   2
BRANCH   1  16
ATOM     16  C   UNL     1       2.929   6.206  -4.927  0.00  0.00    +0.246 C 
BRANCH  16  29
ATOM     17  C   UNL     1       0.238   4.390  -8.820  0.00  0.00    +0.001 A 
ATOM     18  C   UNL     1      -0.207   4.292  -7.513  0.00  0.00    +0.000 A 
ATOM     19  C   UNL     1       0.355   5.085  -6.528  0.00  0.00    +0.005 A 
ATOM     20  C   UNL     1       1.359   5.974  -6.847  0.00  0.00    -0.029 A 
ATOM     21  C   UNL     1       1.815   6.081  -8.160  0.00  0.00    -0.014 A 
ATOM     22  C   UNL     1       1.245   5.278  -9.149  0.00  0.00    +0.009 A 
ATOM     23  C   UNL     1       2.889   7.103  -8.229  0.00  0.00    -0.014 A 
ATOM     24  C   UNL     1       3.650   7.566  -9.304  0.00  0.00    +0.009 A 
ATOM     25  C   UNL     1       4.605   8.541  -9.103  0.00  0.00    +0.001 A 
ATOM     26  C   UNL     1       4.813   9.063  -7.838  0.00  0.00    +0.000 A 
ATOM     27  C   UNL     1       4.062   8.609  -6.769  0.00  0.00    +0.005 A 
ATOM     28  C   UNL     1       3.105   7.635  -6.960  0.00  0.00    -0.029 A 
ATOM     29  C   UNL     1       2.151   6.951  -6.012  0.00  0.00    +0.088 C 
ENDBRANCH  16  29
ENDBRANCH   1  16
TORSDOF 6
