REMARK  Name = ZINC08385089
REMARK  10 active torsions:
REMARK  status: ('A' for Active; 'I' for Inactive)
REMARK    1  A    between atoms: C_1  and  C_2
REMARK    2  A    between atoms: C_3  and  C_31
REMARK    3  A    between atoms: C_5  and  N_23
REMARK    4  A    between atoms: C_6  and  C_7
REMARK    5  A    between atoms: C_7  and  C_9
REMARK    6  A    between atoms: C_7  and  N_17
REMARK    7  A    between atoms: C_14  and  O_15
REMARK    8  A    between atoms: O_15  and  C_16
REMARK    9  A    between atoms: N_17  and  C_18
REMARK   10  A    between atoms: C_24  and  C_26
REMARK                            x       y       z     vdW  Elec       q    Type
REMARK                         _______ _______ _______ _____ _____    ______ ____
ROOT
ATOM      1  C   UNL     1      -0.454   4.353   0.272  0.00  0.00    +0.138 C 
ENDROOT
BRANCH   1   7
ATOM      2  C   UNL     1      -3.310   4.884   0.503  0.00  0.00    +0.045 C 
ATOM      3  C   UNL     1      -2.804   3.472   0.358  0.00  0.00    -0.033 A 
ATOM      4  C   UNL     1      -3.670   2.431   0.332  0.00  0.00    -0.008 A 
ATOM      5  S   UNL     1      -2.573   1.036   0.140  0.00  0.00    -0.078 S 
ATOM      6  C   UNL     1      -1.028   1.931   0.116  0.00  0.00    +0.078 A 
ATOM      7  C   UNL     1      -1.448   3.221   0.247  0.00  0.00    +0.009 A 
ATOM      8  C   UNL     1      -5.174   2.447   0.435  0.00  0.00    +0.052 C 
BRANCH   6   9
ATOM      9  N   UNL     1       0.272   1.438  -0.010  0.00  0.00    -0.273 N 
ATOM     10  C   UNL     1       0.489   0.108  -0.031  0.00  0.00    +0.284 C 
ATOM     11  O   UNL     1      -0.447  -0.663   0.065  0.00  0.00    -0.266 OA
ATOM     12  H   UNL     1       1.018   2.053  -0.086  0.00  0.00    +0.156 HD
BRANCH  10  13
ATOM     13  C   UNL     1       1.854  -0.409  -0.170  0.00  0.00    +0.189 A 
ATOM     14  C   UNL     1       2.213  -1.726  -0.205  0.00  0.00    +0.054 A 
ATOM     15  C   UNL     1       3.609  -1.760  -0.348  0.00  0.00    +0.042 A 
ATOM     16  C   UNL     1       4.036  -0.479  -0.392  0.00  0.00    +0.196 A 
ATOM     17  O   UNL     1       2.975   0.332  -0.290  0.00  0.00    -0.458 OA
ENDBRANCH  10  13
ENDBRANCH   6   9
ENDBRANCH   1   7
BRANCH   1  18
ATOM     18  C   UNL     1       0.316   4.317   1.566  0.00  0.00    +0.019 A 
ATOM     19  C   UNL     1       1.576   3.750   1.606  0.00  0.00    +0.009 A 
ATOM     20  C   UNL     1       2.283   3.717   2.793  0.00  0.00    +0.001 A 
ATOM     21  C   UNL     1       1.732   4.251   3.944  0.00  0.00    +0.004 A 
ATOM     22  C   UNL     1       0.474   4.819   3.909  0.00  0.00    +0.046 A 
ATOM     23  C   UNL     1      -0.236   4.858   2.718  0.00  0.00    +0.125 A 
BRANCH  23  24
ATOM     24  O   UNL     1      -1.472   5.422   2.680  0.00  0.00    -0.495 OA
ATOM     25  C   UNL     1      -1.978   5.959   3.904  0.00  0.00    +0.277 C 
ENDBRANCH  23  24
ENDBRANCH   1  18
BRANCH   1  26
ATOM     26  N   UNL     1       0.474   4.212  -0.853  0.00  0.00    -0.319 N 
ATOM     27  H   UNL     1       0.670   3.333  -1.213  0.00  0.00    +0.148 HD
BRANCH  26  28
ATOM     28  C   UNL     1       1.074   5.338  -1.405  0.00  0.00    +0.097 A 
ATOM     29  C   UNL     1       0.788   6.596  -0.884  0.00  0.00    +0.041 A 
ATOM     30  C   UNL     1       1.391   7.708  -1.442  0.00  0.00    +0.005 A 
ATOM     31  C   UNL     1       2.264   7.524  -2.507  0.00  0.00    +0.018 A 
ATOM     32  C   UNL     1       2.502   6.247  -2.973  0.00  0.00    +0.084 A 
ATOM     33  N   UNL     1       1.931   5.131  -2.445  0.00  0.00    -0.350 N 
ATOM     34  H   UNL     1       2.134   4.192  -2.807  0.00  0.00    +0.166 HD
ENDBRANCH  26  28
ENDBRANCH   1  26
TORSDOF 7
