REMARK  Name = ZINC20025761
REMARK  8 active torsions:
REMARK  status: ('A' for Active; 'I' for Inactive)
REMARK    1  A    between atoms: C_1  and  C_2
REMARK    2  A    between atoms: C_7  and  N_8
REMARK    3  A    between atoms: C_12  and  N_13
REMARK    4  A    between atoms: N_13  and  C_14
REMARK    5  A    between atoms: N_17  and  C_20
REMARK    6  A    between atoms: C_20  and  C_21
REMARK    7  A    between atoms: N_29  and  C_32
REMARK    8  A    between atoms: C_37  and  C_38
REMARK                            x       y       z     vdW  Elec       q    Type
REMARK                         _______ _______ _______ _____ _____    ______ ____
ROOT
ATOM      1  N   UNL     1      -2.263   0.691   0.005  0.00  0.00    -0.217 N 
ATOM      2  C   UNL     1      -2.924   0.550   1.173  0.00  0.00    +0.263 C 
ATOM      3  O   UNL     1      -2.510   1.071   2.192  0.00  0.00    -0.269 OA
ATOM      4  C   UNL     1      -4.161  -0.251   1.180  0.00  0.00    +0.113 C 
ATOM      5  C   UNL     1      -4.891  -0.440   2.339  0.00  0.00    +0.086 C 
ATOM      6  C   UNL     1      -4.585  -0.843  -0.101  0.00  0.00    +0.263 C 
ATOM      7  O   UNL     1      -5.596  -1.517  -0.174  0.00  0.00    -0.269 OA
ATOM      8  N   UNL     1      -3.823  -0.617  -1.191  0.00  0.00    -0.217 N 
ATOM      9  C   UNL     1      -2.710   0.127  -1.126  0.00  0.00    +0.158 C 
ATOM     10  S   UNL     1      -1.809   0.366  -2.562  0.00  0.00    -0.017 S 
ENDROOT
BRANCH   1  17
ATOM     11  C   UNL     1      -2.471   3.480  -0.521  0.00  0.00    +0.045 C 
ATOM     12  C   UNL     1      -1.141   2.812  -0.281  0.00  0.00    -0.029 A 
ATOM     13  C   UNL     1       0.022   3.555  -0.318  0.00  0.00    +0.005 A 
ATOM     14  C   UNL     1       1.242   2.943  -0.097  0.00  0.00    +0.000 A 
ATOM     15  C   UNL     1       1.302   1.586   0.162  0.00  0.00    +0.002 A 
ATOM     16  C   UNL     1       0.141   0.838   0.201  0.00  0.00    +0.024 A 
ATOM     17  C   UNL     1      -1.085   1.448  -0.027  0.00  0.00    +0.046 A 
ENDBRANCH   1  17
BRANCH   8  18
ATOM     18  C   UNL     1      -4.206  -1.169  -2.420  0.00  0.00    +0.046 A 
ATOM     19  C   UNL     1      -5.042  -0.458  -3.272  0.00  0.00    +0.024 A 
ATOM     20  C   UNL     1      -5.413  -1.002  -4.486  0.00  0.00    +0.002 A 
ATOM     21  C   UNL     1      -4.963  -2.259  -4.848  0.00  0.00    +0.000 A 
ATOM     22  C   UNL     1      -4.136  -2.971  -4.000  0.00  0.00    +0.005 A 
ATOM     23  C   UNL     1      -3.756  -2.430  -2.787  0.00  0.00    -0.029 A 
ATOM     24  C   UNL     1      -2.854  -3.207  -1.864  0.00  0.00    +0.045 C 
ENDBRANCH   8  18
BRANCH   5  25
ATOM     25  N   UNL     1      -6.099  -1.037   2.285  0.00  0.00    -0.346 N 
ATOM     26  H   UNL     1      -6.544  -1.292   1.312  0.00  0.00    +0.146 HD
BRANCH  25  27
ATOM     27  C   UNL     1      -6.819  -1.347   3.523  0.00  0.00    +0.066 C 
ATOM     28  C   UNL     1      -6.346  -2.698   4.065  0.00  0.00    +0.003 C 
ATOM     29  C   UNL     1      -7.145  -3.044   5.324  0.00  0.00    -0.077 C 
ATOM     30  N   UNL     1      -8.575  -3.100   4.998  0.00  0.00    +0.382 N 
ATOM     31  C   UNL     1      -9.062  -1.800   4.520  0.00  0.00    -0.077 C 
ATOM     32  C   UNL     1      -8.321  -1.417   3.237  0.00  0.00    +0.003 C 
ATOM     33  H   UNL     1      -8.705  -3.828   4.183  0.00  0.00    -0.081 HD
BRANCH  30  34
ATOM     34  C   UNL     1      -9.360  -3.565   6.149  0.00  0.00    -0.043 C 
BRANCH  34  35
ATOM     35  C   UNL     1      -9.001  -4.996   6.458  0.00  0.00    -0.064 A 
ATOM     36  C   UNL     1      -9.702  -6.028   5.864  0.00  0.00    +0.002 A 
ATOM     37  C   UNL     1      -9.369  -7.341   6.142  0.00  0.00    +0.000 A 
ATOM     38  C   UNL     1      -8.342  -7.621   7.023  0.00  0.00    +0.000 A 
ATOM     39  C   UNL     1      -7.644  -6.589   7.622  0.00  0.00    +0.000 A 
ATOM     40  C   UNL     1      -7.973  -5.276   7.339  0.00  0.00    +0.002 A 
ENDBRANCH  34  35
ENDBRANCH  30  34
ENDBRANCH  25  27
ENDBRANCH   5  25
TORSDOF 6
