REMARK  Name = ZINC39836443
REMARK  8 active torsions:
REMARK  status: ('A' for Active; 'I' for Inactive)
REMARK    1  A    between atoms: C_1  and  C_2
REMARK    2  A    between atoms: C_2  and  C_3
REMARK    3  A    between atoms: C_2  and  C_4
REMARK    4  A    between atoms: C_2  and  C_5
REMARK    5  A    between atoms: C_12  and  N_25
REMARK    6  A    between atoms: C_13  and  C_14
REMARK    7  A    between atoms: N_16  and  C_17
REMARK    8  A    between atoms: C_26  and  C_28
REMARK                            x       y       z     vdW  Elec       q    Type
REMARK                         _______ _______ _______ _____ _____    ______ ____
ROOT
ATOM      1  C   UNL     1       0.718  -0.497  -1.257  0.00  0.00    -0.000 C 
ATOM      2  C   UNL     1       0.746  -2.029  -1.264  0.00  0.00    +0.009 C 
ATOM      3  C   UNL     1       1.234  -2.534  -2.624  0.00  0.00    +0.037 C 
ATOM      4  C   UNL     1       2.546  -1.840  -2.959  0.00  0.00    -0.023 A 
ATOM      5  C   UNL     1       2.920  -0.705  -2.330  0.00  0.00    -0.004 A 
ATOM      6  S   UNL     1       4.484  -0.289  -3.047  0.00  0.00    -0.077 S 
ATOM      7  C   UNL     1       4.646  -1.558  -4.135  0.00  0.00    +0.085 A 
ATOM      8  C   UNL     1       3.496  -2.310  -3.953  0.00  0.00    +0.069 A 
ATOM      9  C   UNL     1       2.161   0.028  -1.267  0.00  0.00    +0.046 C 
ENDROOT
BRANCH   1  11
ATOM     10  C   UNL     1      -0.019   1.526   0.010  0.00  0.00    +0.011 C 
ATOM     11  C   UNL     1       0.002  -0.004   0.002  0.00  0.00    -0.035 C 
ATOM     12  C   UNL     1       0.742  -0.511   1.242  0.00  0.00    +0.011 C 
ATOM     13  C   UNL     1      -1.433  -0.534   0.013  0.00  0.00    +0.011 C 
ENDBRANCH   1  11
BRANCH   8  14
ATOM     14  C   UNL     1       3.248  -3.528  -4.730  0.00  0.00    +0.247 C 
ATOM     15  O   UNL     1       2.655  -3.463  -5.791  0.00  0.00    -0.270 OA
ATOM     16  N   UNL     1       3.678  -4.720  -4.270  0.00  0.00    -0.307 N 
ATOM     17  H   UNL     1       4.151  -4.771  -3.424  0.00  0.00    +0.149 HD
BRANCH  16  18
ATOM     18  C   UNL     1       3.430  -5.937  -5.046  0.00  0.00    +0.096 C 
ATOM     19  C   UNL     1       2.045  -6.505  -4.695  0.00  0.00    +0.046 C 
ATOM     20  C   UNL     1       1.905  -7.940  -5.256  0.00  0.00    +0.168 C 
ATOM     21  S   UNL     1       3.644  -8.538  -5.273  0.00  0.00    -0.029 S 
ATOM     22  O   UNL     1       4.030  -8.801  -6.615  0.00  0.00    -0.174 OA
ATOM     23  O   UNL     1       3.794  -9.554  -4.291  0.00  0.00    -0.174 OA
ATOM     24  C   UNL     1       4.497  -7.012  -4.692  0.00  0.00    +0.188 C 
ENDBRANCH  16  18
ENDBRANCH   8  14
BRANCH   7  25
ATOM     25  N   UNL     1       5.690  -1.797  -5.014  0.00  0.00    -0.275 N 
ATOM     26  C   UNL     1       6.740  -0.954  -5.059  0.00  0.00    +0.250 C 
ATOM     27  O   UNL     1       6.772   0.017  -4.328  0.00  0.00    -0.270 OA
ATOM     28  H   UNL     1       5.665  -2.572  -5.597  0.00  0.00    +0.156 HD
BRANCH  26  29
ATOM     29  C   UNL     1       7.853  -1.210  -5.996  0.00  0.00    +0.055 A 
ATOM     30  C   UNL     1       7.818  -2.321  -6.841  0.00  0.00    +0.014 A 
ATOM     31  C   UNL     1       8.860  -2.554  -7.713  0.00  0.00    +0.001 A 
ATOM     32  C   UNL     1       9.940  -1.689  -7.753  0.00  0.00    +0.001 A 
ATOM     33  C   UNL     1       9.983  -0.587  -6.920  0.00  0.00    +0.021 A 
ATOM     34  C   UNL     1       8.944  -0.338  -6.045  0.00  0.00    +0.053 A 
ATOM     35 CL   UNL     1       8.995   1.051  -5.005  0.00  0.00    -0.083 Cl
ENDBRANCH  26  29
ENDBRANCH   7  25
TORSDOF 5
