REMARK  Name = ZINC33625386
REMARK  12 active torsions:
REMARK  status: ('A' for Active; 'I' for Inactive)
REMARK    1  A    between atoms: C_1  and  C_2
REMARK    2  A    between atoms: C_2  and  C_3
REMARK    3  A    between atoms: C_7  and  C_41
REMARK    4  A    between atoms: C_8  and  N_9
REMARK    5  A    between atoms: C_14  and  C_33
REMARK    6  A    between atoms: C_17  and  C_22
REMARK    7  A    between atoms: C_17  and  C_30
REMARK    8  A    between atoms: C_22  and  C_23
REMARK    9  A    between atoms: C_26  and  O_29
REMARK   10  A    between atoms: C_38  and  O_39
REMARK   11  A    between atoms: O_39  and  C_40
REMARK   12  A    between atoms: C_41  and  C_42
REMARK                            x       y       z     vdW  Elec       q    Type
REMARK                         _______ _______ _______ _____ _____    ______ ____
ROOT
ATOM      1  N   UNL     1       1.709   5.224  -3.152  0.00  0.00    -0.209 N 
ATOM      2  C   UNL     1       2.258   4.383  -2.215  0.00  0.00    +0.229 C 
ATOM      3  O   UNL     1       3.331   3.821  -2.268  0.00  0.00    -0.275 OA
ATOM      4  C   UNL     1       1.282   4.315  -1.156  0.00  0.00    +0.077 C 
ATOM      5  C   UNL     1       1.178   3.971   0.272  0.00  0.00    -0.023 C 
ATOM      6  N   UNL     1      -0.202   4.455   0.621  0.00  0.00    +0.396 N 
ATOM      7  C   UNL     1      -0.582   5.505  -0.373  0.00  0.00    +0.052 C 
ATOM      8  C   UNL     1       0.673   5.768  -1.188  0.00  0.00    +0.086 C 
ATOM      9  C   UNL     1       0.626   5.909  -2.676  0.00  0.00    +0.229 C 
ATOM     10  O   UNL     1      -0.202   6.509  -3.328  0.00  0.00    -0.275 OA
ATOM     11  H   UNL     1      -0.908   3.613   0.576  0.00  0.00    -0.083 HD
ATOM     12  H   UNL     1      -0.197   4.876   1.637  0.00  0.00    -0.083 HD
ENDROOT
BRANCH   1  18
ATOM     13  C   UNL     1       1.733   4.544  -5.472  0.00  0.00    -0.026 A 
ATOM     14  C   UNL     1       2.221   4.688  -6.756  0.00  0.00    +0.005 A 
ATOM     15  C   UNL     1       3.186   5.639  -7.028  0.00  0.00    +0.001 A 
ATOM     16  C   UNL     1       3.662   6.454  -6.018  0.00  0.00    +0.005 A 
ATOM     17  C   UNL     1       3.175   6.319  -4.732  0.00  0.00    -0.026 A 
ATOM     18  C   UNL     1       2.206   5.364  -4.456  0.00  0.00    +0.050 A 
BRANCH  13  20
ATOM     19  C   UNL     1      -0.703   4.141  -5.244  0.00  0.00    +0.009 C 
ATOM     20  C   UNL     1       0.686   3.502  -5.175  0.00  0.00    +0.033 C 
ENDBRANCH  13  20
BRANCH  17  21
ATOM     21  C   UNL     1       3.695   7.206  -3.631  0.00  0.00    +0.033 C 
ATOM     22  C   UNL     1       4.823   6.489  -2.888  0.00  0.00    +0.009 C 
ENDBRANCH  17  21
ENDBRANCH   1  18
BRANCH   5  23
ATOM     23  C   UNL     1       1.291   2.482   0.475  0.00  0.00    -0.019 A 
ATOM     24  C   UNL     1       0.158   1.692   0.440  0.00  0.00    +0.005 A 
ATOM     25  C   UNL     1       0.260   0.326   0.626  0.00  0.00    +0.000 A 
ATOM     26  C   UNL     1       1.496  -0.253   0.847  0.00  0.00    +0.004 A 
ATOM     27  C   UNL     1       2.632   0.532   0.883  0.00  0.00    +0.046 A 
ATOM     28  C   UNL     1       2.532   1.903   0.696  0.00  0.00    +0.122 A 
BRANCH  28  29
ATOM     29  O   UNL     1       3.647   2.678   0.731  0.00  0.00    -0.495 OA
ATOM     30  C   UNL     1       4.891   2.014   0.964  0.00  0.00    +0.277 C 
ENDBRANCH  28  29
ENDBRANCH   5  23
BRANCH   7  31
ATOM     31  C   UNL     1      -1.017   6.761   0.336  0.00  0.00    +0.347 C 
ATOM     32  O   UNL     1      -0.743   7.842  -0.129  0.00  0.00    -0.248 OA
ATOM     33  O   UNL     1      -1.708   6.679   1.484  0.00  0.00    -0.248 OA
ENDBRANCH   7  31
BRANCH   7  34
ATOM     34  C   UNL     1      -1.705   4.994  -1.279  0.00  0.00    +0.035 C 
BRANCH  34  35
ATOM     35  C   UNL     1      -2.936   4.729  -0.451  0.00  0.00    -0.048 A 
ATOM     36  C   UNL     1      -3.172   3.462   0.050  0.00  0.00    +0.007 A 
ATOM     37  C   UNL     1      -4.298   3.219   0.813  0.00  0.00    +0.045 A 
ATOM     38  C   UNL     1      -5.197   4.244   1.067  0.00  0.00    +0.117 A 
ATOM     39  C   UNL     1      -4.961   5.513   0.558  0.00  0.00    +0.045 A 
ATOM     40  C   UNL     1      -3.831   5.753  -0.199  0.00  0.00    +0.007 A 
BRANCH  38  41
ATOM     41  O   UNL     1      -6.308   4.005   1.812  0.00  0.00    -0.507 OA
ATOM     42  H   UNL     1      -7.021   4.819   2.013  0.00  0.00    +0.292 HD
ENDBRANCH  38  41
ENDBRANCH  34  35
ENDBRANCH   7  34
TORSDOF 9
