REMARK  Name = ZINC38681821
REMARK  16 active torsions:
REMARK  status: ('A' for Active; 'I' for Inactive)
REMARK    1  A    between atoms: C_1  and  C_2
REMARK    2  A    between atoms: C_2  and  C_3
REMARK    3  A    between atoms: C_3  and  O_4
REMARK    4  A    between atoms: O_4  and  C_5
REMARK    5  A    between atoms: C_10  and  C_11
REMARK    6  A    between atoms: C_16  and  O_25
REMARK    7  A    between atoms: C_20  and  N_24
REMARK    8  A    between atoms: C_21  and  C_22
REMARK    9  A    between atoms: O_25  and  C_26
REMARK   10  A    between atoms: C_26  and  C_28
REMARK   11  A    between atoms: C_28  and  C_30
REMARK   12  A    between atoms: C_28  and  O_31
REMARK   13  A    between atoms: O_31  and  C_32
REMARK   14  A    between atoms: C_35  and  C_38
REMARK   15  A    between atoms: C_38  and  C_39
REMARK   16  A    between atoms: C_38  and  C_40
REMARK                            x       y       z     vdW  Elec       q    Type
REMARK                         _______ _______ _______ _____ _____    ______ ____
ROOT
ATOM      1  C   UNL     1       0.838  -4.655   1.373  0.00  0.00    +0.101 C 
ATOM      2  C   UNL     1      -0.228  -5.559   1.933  0.00  0.00    +0.008 A 
ATOM      3  C   UNL     1      -1.465  -5.032   2.261  0.00  0.00    +0.012 A 
ATOM      4  C   UNL     1      -2.453  -5.847   2.776  0.00  0.00    +0.047 A 
ATOM      5  C   UNL     1      -2.208  -7.200   2.967  0.00  0.00    +0.135 A 
ATOM      6  C   UNL     1      -0.971  -7.730   2.640  0.00  0.00    +0.093 A 
ATOM      7  C   UNL     1       0.023  -6.909   2.123  0.00  0.00    +0.138 A 
ATOM      8  O   UNL     1       1.228  -7.444   1.807  0.00  0.00    -0.441 OA
ATOM      9  C   UNL     1       2.051  -6.793   0.969  0.00  0.00    +0.199 C 
ATOM     10  C   UNL     1       1.919  -5.471   0.723  0.00  0.00    +0.098 C 
ENDROOT
BRANCH   1  16
ATOM     11  C   UNL     1       1.356  -2.450   2.449  0.00  0.00    +0.125 A 
ATOM     12  C   UNL     1       1.901  -1.698   3.480  0.00  0.00    +0.046 A 
ATOM     13  C   UNL     1       2.524  -2.329   4.539  0.00  0.00    +0.004 A 
ATOM     14  C   UNL     1       2.605  -3.709   4.573  0.00  0.00    +0.001 A 
ATOM     15  C   UNL     1       2.063  -4.461   3.547  0.00  0.00    +0.008 A 
ATOM     16  C   UNL     1       1.434  -3.834   2.488  0.00  0.00    +0.007 A 
BRANCH  11  17
ATOM     17  O   UNL     1       0.742  -1.831   1.406  0.00  0.00    -0.492 OA
BRANCH  17  18
ATOM     18  C   UNL     1       0.700  -0.403   1.433  0.00  0.00    +0.229 C 
BRANCH  18  20
ATOM     19  C   UNL     1      -0.070   1.638   0.215  0.00  0.00    +0.007 C 
ATOM     20  C   UNL     1      -0.025   0.109   0.186  0.00  0.00    +0.038 C 
ENDBRANCH  18  20
ENDBRANCH  17  18
ENDBRANCH  11  17
ENDBRANCH   1  16
BRANCH   9  21
ATOM     21  N   UNL     1       3.057  -7.490   0.347  0.00  0.00    -0.328 N 
ATOM     22  H   UNL     1       3.165  -8.439   0.515  0.00  0.00    +0.145 HD
ATOM     23  H   UNL     1       3.659  -7.034  -0.261  0.00  0.00    +0.145 HD
ENDBRANCH   9  21
BRANCH  10  24
ATOM     24  C   UNL     1       2.830  -4.836  -0.181  0.00  0.00    +0.101 C 
ATOM     25  N   UNL     1       3.553  -4.332  -0.898  0.00  0.00    -0.191 NA
ENDBRANCH  10  24
BRANCH   5  26
ATOM     26  O   UNL     1      -3.181  -8.002   3.475  0.00  0.00    -0.423 OA
BRANCH  26  27
ATOM     27  C   UNL     1      -2.979  -8.550   4.684  0.00  0.00    +0.353 C 
ATOM     28  O   UNL     1      -2.001  -8.250   5.327  0.00  0.00    -0.246 OA
BRANCH  27  29
ATOM     29  C   UNL     1      -3.972  -9.538   5.239  0.00  0.00    +0.279 C 
ATOM     30  C   UNL     1      -5.311  -8.836   5.477  0.00  0.00    +0.064 C 
BRANCH  29  31
ATOM     31  O   UNL     1      -3.483 -10.061   6.476  0.00  0.00    -0.478 OA
BRANCH  31  32
ATOM     32  C   UNL     1      -3.790 -11.354   6.763  0.00  0.00    +0.122 A 
ATOM     33  C   UNL     1      -4.648 -12.064   5.936  0.00  0.00    +0.046 A 
ATOM     34  C   UNL     1      -4.958 -13.378   6.230  0.00  0.00    +0.007 A 
ATOM     35  C   UNL     1      -4.414 -13.985   7.347  0.00  0.00    -0.045 A 
ATOM     36  C   UNL     1      -3.560 -13.278   8.173  0.00  0.00    +0.007 A 
ATOM     37  C   UNL     1      -3.241 -11.966   7.880  0.00  0.00    +0.046 A 
BRANCH  35  38
ATOM     38  C   UNL     1      -4.755 -15.418   7.666  0.00  0.00    +0.013 C 
ATOM     39  C   UNL     1      -3.475 -16.256   7.677  0.00  0.00    +0.012 C 
ATOM     40  C   UNL     1      -5.423 -15.489   9.040  0.00  0.00    +0.012 C 
ENDBRANCH  35  38
ENDBRANCH  31  32
ENDBRANCH  29  31
ENDBRANCH  27  29
ENDBRANCH  26  27
ENDBRANCH   5  26
TORSDOF 12
