REMARK  Name = ZINC09580112
REMARK  8 active torsions:
REMARK  status: ('A' for Active; 'I' for Inactive)
REMARK    1  A    between atoms: C_1  and  C_2
REMARK    2  A    between atoms: C_2  and  C_4
REMARK    3  A    between atoms: C_2  and  S_19
REMARK    4  A    between atoms: N_6  and  C_7
REMARK    5  A    between atoms: C_8  and  C_17
REMARK    6  A    between atoms: S_19  and  C_20
REMARK    7  A    between atoms: N_25  and  C_26
REMARK    8  A    between atoms: C_26  and  C_27
REMARK                            x       y       z     vdW  Elec       q    Type
REMARK                         _______ _______ _______ _____ _____    ______ ____
ROOT
ATOM      1  C   UNL     1       5.195   9.553   1.319  0.00  0.00    +0.029 C 
ATOM      2  C   UNL     1       3.989  10.044   2.122  0.00  0.00    +0.136 C 
ENDROOT
BRANCH   2   3
ATOM      3  C   UNL     1       4.305  11.383   2.736  0.00  0.00    +0.231 C 
ATOM      4  O   UNL     1       4.723  11.446   3.873  0.00  0.00    -0.274 OA
ATOM      5  N   UNL     1       4.125  12.511   2.021  0.00  0.00    -0.278 N 
ATOM      6  H   UNL     1       3.791  12.461   1.111  0.00  0.00    +0.155 HD
BRANCH   5   7
ATOM      7  C   UNL     1       4.416  13.745   2.586  0.00  0.00    +0.090 A 
ATOM      8  C   UNL     1       4.297  15.002   2.017  0.00  0.00    +0.084 A 
ATOM      9  C   UNL     1       4.670  16.152   2.829  0.00  0.00    -0.018 A 
ATOM     10  C   UNL     1       5.108  15.854   4.071  0.00  0.00    -0.004 A 
ATOM     11  S   UNL     1       5.009  14.088   4.177  0.00  0.00    -0.077 S 
ATOM     12  C   UNL     1       5.574  16.803   5.130  0.00  0.00    +0.043 C 
ATOM     13  C   UNL     1       4.550  17.936   5.280  0.00  0.00    +0.005 C 
ATOM     14  C   UNL     1       4.925  19.057   4.316  0.00  0.00    +0.001 C 
ATOM     15  C   UNL     1       5.555  18.475   3.052  0.00  0.00    +0.005 C 
ATOM     16  C   UNL     1       4.558  17.584   2.320  0.00  0.00    +0.037 C 
BRANCH   8  17
ATOM     17  C   UNL     1       3.824  15.166   0.675  0.00  0.00    +0.102 C 
ATOM     18  N   UNL     1       3.448  15.296  -0.389  0.00  0.00    -0.191 NA
ENDBRANCH   8  17
ENDBRANCH   5   7
ENDBRANCH   2   3
BRANCH   2  19
ATOM     19  S   UNL     1       3.612   8.851   3.436  0.00  0.00    -0.084 S 
BRANCH  19  20
ATOM     20  C   UNL     1       3.125   7.398   2.566  0.00  0.00    +0.161 A 
ATOM     21  N   UNL     1       3.042   7.191   1.265  0.00  0.00    -0.133 NA
ATOM     22  N   UNL     1       2.635   5.965   0.793  0.00  0.00    -0.125 NA
ATOM     23  C   UNL     1       2.329   5.003   1.641  0.00  0.00    +0.183 A 
ATOM     24  S   UNL     1       2.605   5.815   3.208  0.00  0.00    -0.025 S 
ATOM     25  N   UNL     1       1.900   3.706   1.385  0.00  0.00    -0.315 N 
ATOM     26  H   UNL     1       1.711   3.103   2.121  0.00  0.00    +0.148 HD
BRANCH  25  27
ATOM     27  C   UNL     1       1.735   3.249   0.003  0.00  0.00    +0.178 C 
BRANCH  27  28
ATOM     28  C   UNL     1       1.265   1.817  -0.000  0.00  0.00    +0.122 A 
ATOM     29  C   UNL     1      -0.017   1.410   0.010  0.00  0.00    +0.046 A 
ATOM     30  C   UNL     1       0.002  -0.004   0.002  0.00  0.00    +0.041 A 
ATOM     31  C   UNL     1       1.295  -0.376  -0.012  0.00  0.00    +0.195 A 
ATOM     32  O   UNL     1       2.055   0.731  -0.014  0.00  0.00    -0.466 OA
ENDBRANCH  27  28
ENDBRANCH  25  27
ENDBRANCH  19  20
ENDBRANCH   2  19
TORSDOF 7
