REMARK  Name = ZINC59170528
REMARK  5 active torsions:
REMARK  status: ('A' for Active; 'I' for Inactive)
REMARK    1  A    between atoms: C_12  and  C_26
REMARK    2  A    between atoms: N_14  and  C_15
REMARK    3  A    between atoms: C_18  and  S_21
REMARK    4  A    between atoms: S_21  and  N_24
REMARK    5  A    between atoms: N_28  and  C_29
REMARK                            x       y       z     vdW  Elec       q    Type
REMARK                         _______ _______ _______ _____ _____    ______ ____
ROOT
ATOM      1  C   UNL     1       0.111   0.783   1.736  0.00  0.00    +0.001 A 
ATOM      2  C   UNL     1       1.330   1.250   2.218  0.00  0.00    +0.001 A 
ATOM      3  C   UNL     1       2.504   0.667   1.835  0.00  0.00    +0.009 A 
ATOM      4  C   UNL     1       2.483  -0.414   0.950  0.00  0.00    -0.007 A 
ATOM      5  C   UNL     1       1.244  -0.893   0.459  0.00  0.00    -0.017 A 
ATOM      6  C   UNL     1       0.056  -0.269   0.871  0.00  0.00    +0.008 A 
ATOM      7  C   UNL     1       1.226  -1.984  -0.431  0.00  0.00    +0.012 A 
ATOM      8  C   UNL     1       2.376  -2.593  -0.819  0.00  0.00    +0.047 A 
ATOM      9  C   UNL     1       3.625  -2.162  -0.365  0.00  0.00    +0.138 A 
ATOM     10  C   UNL     1       3.715  -1.068   0.508  0.00  0.00    +0.026 A 
ATOM     11  C   UNL     1       4.975  -0.615   0.952  0.00  0.00    +0.030 A 
ATOM     12  C   UNL     1       6.112  -1.132   0.340  0.00  0.00    +0.098 A 
ATOM     13  C   UNL     1       5.904  -2.096  -0.758  0.00  0.00    +0.212 A 
ATOM     14  N   UNL     1       6.805  -2.258  -1.704  0.00  0.00    -0.325 N 
ATOM     15  O   UNL     1       4.749  -2.810  -0.756  0.00  0.00    -0.439 OA
ATOM     16  H   UNL     1       7.532  -1.623  -1.795  0.00  0.00    +0.169 HD
ENDROOT
BRANCH  14  17
ATOM     17  C   UNL     1       6.716  -3.322  -2.558  0.00  0.00    +0.042 A 
ATOM     18  C   UNL     1       6.432  -4.598  -2.063  0.00  0.00    +0.027 A 
ATOM     19  C   UNL     1       6.344  -5.666  -2.930  0.00  0.00    +0.030 A 
ATOM     20  C   UNL     1       6.535  -5.478  -4.288  0.00  0.00    +0.105 A 
ATOM     21  C   UNL     1       6.816  -4.217  -4.785  0.00  0.00    +0.030 A 
ATOM     22  C   UNL     1       6.902  -3.138  -3.930  0.00  0.00    +0.027 A 
BRANCH  20  23
ATOM     23  S   UNL     1       6.421  -6.849  -5.388  0.00  0.00    +0.056 S 
ATOM     24  O   UNL     1       7.179  -6.509  -6.541  0.00  0.00    -0.153 OA
ATOM     25  O   UNL     1       6.689  -8.012  -4.617  0.00  0.00    -0.153 OA
BRANCH  23  26
ATOM     26  N   UNL     1       4.842  -6.957  -5.874  0.00  0.00    -0.204 NA
ATOM     27  H   UNL     1       4.189  -6.321  -5.544  0.00  0.00    +0.144 HD
ATOM     28  H   UNL     1       4.571  -7.656  -6.490  0.00  0.00    +0.144 HD
ENDBRANCH  23  26
ENDBRANCH  20  23
ENDBRANCH  14  17
BRANCH  12  29
ATOM     29  C   UNL     1       7.463  -0.735   0.767  0.00  0.00    +0.253 C 
ATOM     30  O   UNL     1       7.604   0.142   1.598  0.00  0.00    -0.270 OA
ATOM     31  N   UNL     1       8.543  -1.343   0.238  0.00  0.00    -0.281 N 
ATOM     32  H   UNL     1       8.431  -2.023  -0.445  0.00  0.00    +0.155 HD
BRANCH  31  33
ATOM     33  C   UNL     1       9.826  -0.993   0.673  0.00  0.00    +0.034 A 
ATOM     34  C   UNL     1      10.082   0.298   1.117  0.00  0.00    +0.025 A 
ATOM     35  C   UNL     1      11.349   0.640   1.546  0.00  0.00    +0.022 A 
ATOM     36  C   UNL     1      12.363  -0.301   1.534  0.00  0.00    +0.041 A 
ATOM     37  C   UNL     1      12.111  -1.588   1.092  0.00  0.00    +0.022 A 
ATOM     38  C   UNL     1      10.844  -1.937   0.667  0.00  0.00    +0.025 A 
ATOM     39 CL   UNL     1      13.955   0.133   2.074  0.00  0.00    -0.084 Cl
ENDBRANCH  31  33
ENDBRANCH  12  29
TORSDOF 5
