REMARK  Name = ZINC00864917
REMARK  14 active torsions:
REMARK  status: ('A' for Active; 'I' for Inactive)
REMARK    1  A    between atoms: C_1  and  C_2
REMARK    2  A    between atoms: C_2  and  N_3
REMARK    3  A    between atoms: C_5  and  C_41
REMARK    4  A    between atoms: C_8  and  O_39
REMARK    5  A    between atoms: C_14  and  O_37
REMARK    6  A    between atoms: C_16  and  O_36
REMARK    7  A    between atoms: C_18  and  O_35
REMARK    8  A    between atoms: C_20  and  O_33
REMARK    9  A    between atoms: C_29  and  O_31
REMARK   10  A    between atoms: O_31  and  C_32
REMARK   11  A    between atoms: O_33  and  C_34
REMARK   12  A    between atoms: O_37  and  C_38
REMARK   13  A    between atoms: O_39  and  C_40
REMARK   14  A    between atoms: C_41  and  O_42
REMARK                            x       y       z     vdW  Elec       q    Type
REMARK                         _______ _______ _______ _____ _____    ______ ____
ROOT
ATOM      1  N   UNL     1      -1.060  -0.198  -0.043  0.00  0.00    +0.380 N 
ATOM      2  C   UNL     1      -1.748   0.279   1.142  0.00  0.00    -0.069 C 
ATOM      3  C   UNL     1      -3.068  -0.412   1.448  0.00  0.00    -0.015 C 
ATOM      4  C   UNL     1      -4.138  -0.023   0.430  0.00  0.00    +0.010 C 
ATOM      5  C   UNL     1      -3.752  -0.477  -0.972  0.00  0.00    +0.032 C 
ATOM      6  C   UNL     1      -3.458  -1.967  -0.959  0.00  0.00    +0.123 C 
ATOM      7  C   UNL     1      -2.361  -2.340   0.067  0.00  0.00    -0.009 C 
ATOM      8  C   UNL     1      -1.081  -1.625  -0.310  0.00  0.00    -0.069 C 
ATOM      9  C   UNL     1      -2.844  -1.934   1.470  0.00  0.00    +0.034 C 
ATOM     10  C   UNL     1      -1.880  -2.279   2.563  0.00  0.00    +0.153 C 
ATOM     11  C   UNL     1      -1.858  -3.631   3.159  0.00  0.00    +0.175 C 
ATOM     12  C   UNL     1      -1.910  -4.825   2.254  0.00  0.00    +0.102 C 
ATOM     13  C   UNL     1      -3.332  -5.368   2.206  0.00  0.00    +0.069 C 
ATOM     14  C   UNL     1      -3.488  -6.556   1.260  0.00  0.00    +0.126 C 
ATOM     15  C   UNL     1      -2.860  -6.169  -0.097  0.00  0.00    +0.047 C 
ATOM     16  C   UNL     1      -3.393  -4.734  -0.403  0.00  0.00    +0.013 C 
ATOM     17  C   UNL     1      -2.249  -3.835  -0.048  0.00  0.00    +0.005 C 
ATOM     18  C   UNL     1      -1.296  -4.588   0.881  0.00  0.00    +0.056 C 
ATOM     19  C   UNL     1      -1.340  -5.992   0.178  0.00  0.00    +0.130 C 
ATOM     20  H   UNL     1      -1.419   0.302  -0.857  0.00  0.00    -0.082 HD
ENDROOT
BRANCH   1  22
ATOM     21  C   UNL     1       0.424   1.751   0.211  0.00  0.00    -0.017 C 
ATOM     22  C   UNL     1       0.359   0.231   0.053  0.00  0.00    -0.082 C 
ENDBRANCH   1  22
BRANCH  19  23
ATOM     23  O   UNL     1      -0.600  -5.973  -1.045  0.00  0.00    -0.379 OA
ATOM     24  C   UNL     1      -0.131  -7.258  -1.461  0.00  0.00    +0.194 C 
ENDBRANCH  19  23
BRANCH  14  25
ATOM     25  O   UNL     1      -2.857  -7.721   1.798  0.00  0.00    -0.379 OA
ATOM     26  C   UNL     1      -3.714  -8.522   2.613  0.00  0.00    +0.194 C 
ENDBRANCH  14  25
BRANCH  12  27
ATOM     27  O   UNL     1      -1.110  -5.827   2.894  0.00  0.00    -0.385 OA
ATOM     28  H   UNL     1      -1.423  -6.079   3.773  0.00  0.00    +0.210 HD
ENDBRANCH  12  27
BRANCH  11  29
ATOM     29  O   UNL     1      -0.665  -3.730   3.939  0.00  0.00    -0.386 OA
ATOM     30  H   UNL     1      -0.657  -3.160   4.720  0.00  0.00    +0.210 HD
ENDBRANCH  11  29
BRANCH  10  31
ATOM     31  O   UNL     1      -0.539  -1.992   2.178  0.00  0.00    -0.377 OA
ATOM     32  C   UNL     1       0.208  -1.276   3.163  0.00  0.00    +0.194 C 
ENDBRANCH  10  31
BRANCH   6  33
ATOM     33  O   UNL     1      -3.033  -2.370  -2.262  0.00  0.00    -0.379 OA
ATOM     34  C   UNL     1      -4.100  -2.782  -3.119  0.00  0.00    +0.194 C 
ENDBRANCH   6  33
BRANCH   3  35
ATOM     35  C   UNL     1      -3.590   0.077   2.812  0.00  0.00    +0.161 C 
BRANCH  35  36
ATOM     36  O   UNL     1      -3.787   1.492   2.767  0.00  0.00    -0.395 OA
ATOM     37  H   UNL     1      -4.115   1.869   3.594  0.00  0.00    +0.209 HD
ENDBRANCH  35  36
ENDBRANCH   3  35
TORSDOF 9
