REMARK  Name = ZINC08904573
REMARK  11 active torsions:
REMARK  status: ('A' for Active; 'I' for Inactive)
REMARK    1  A    between atoms: C_1  and  C_2
REMARK    2  A    between atoms: C_2  and  C_3
REMARK    3  A    between atoms: C_2  and  C_4
REMARK    4  A    between atoms: C_2  and  C_5
REMARK    5  A    between atoms: C_8  and  C_11
REMARK    6  A    between atoms: C_14  and  C_15
REMARK    7  A    between atoms: C_14  and  O_24
REMARK    8  A    between atoms: N_29  and  C_30
REMARK    9  A    between atoms: C_30  and  C_31
REMARK   10  A    between atoms: C_31  and  C_32
REMARK   11  A    between atoms: C_32  and  N_71
REMARK                            x       y       z     vdW  Elec       q    Type
REMARK                         _______ _______ _______ _____ _____    ______ ____
ROOT
ATOM      1  C   UNL     1      -0.124   0.956   0.010  0.00  0.00    +0.145 C 
ATOM      2  C   UNL     1      -0.714   1.627   1.229  0.00  0.00    +0.074 C 
ATOM      3  C   UNL     1      -0.411   1.359   2.554  0.00  0.00    +0.168 C 
ATOM      4  C   UNL     1      -1.630   2.572   0.750  0.00  0.00    +0.249 C 
ATOM      5  O   UNL     1      -2.311   3.317   1.432  0.00  0.00    -0.282 OA
ATOM      6  C   UNL     1      -1.627   2.510  -0.736  0.00  0.00    +0.288 C 
ATOM      7  O   UNL     1      -2.311   3.202  -1.462  0.00  0.00    -0.266 OA
ATOM      8  N   UNL     1      -0.756   1.577  -1.158  0.00  0.00    -0.284 N 
ENDROOT
BRANCH   3   9
ATOM      9  C   UNL     1      -1.169   2.009   3.623  0.00  0.00    +0.171 A 
ATOM     10  C   UNL     1      -0.627   2.619   4.714  0.00  0.00    +0.061 A 
ATOM     11  C   UNL     1      -1.706   3.115   5.487  0.00  0.00    +0.021 A 
ATOM     12  C   UNL     1      -1.790   3.820   6.694  0.00  0.00    +0.011 A 
ATOM     13  C   UNL     1      -3.014   4.157   7.198  0.00  0.00    +0.001 A 
ATOM     14  C   UNL     1      -4.175   3.805   6.523  0.00  0.00    +0.004 A 
ATOM     15  C   UNL     1      -4.115   3.111   5.334  0.00  0.00    +0.047 A 
ATOM     16  C   UNL     1      -2.882   2.756   4.801  0.00  0.00    +0.136 A 
ATOM     17  O   UNL     1      -2.516   2.093   3.685  0.00  0.00    -0.452 OA
ENDBRANCH   3   9
BRANCH   1  21
ATOM     18  C   UNL     1       4.099   1.586  -0.105  0.00  0.00    -0.042 A 
ATOM     19  C   UNL     1       3.593   0.372   0.319  0.00  0.00    +0.004 A 
ATOM     20  C   UNL     1       2.227   0.168   0.356  0.00  0.00    +0.006 A 
ATOM     21  C   UNL     1       1.366   1.179  -0.030  0.00  0.00    -0.022 A 
ATOM     22  C   UNL     1       1.873   2.391  -0.460  0.00  0.00    +0.006 A 
ATOM     23  C   UNL     1       3.239   2.597  -0.493  0.00  0.00    +0.004 A 
BRANCH  18  25
ATOM     24  C   UNL     1       6.231   0.790  -1.090  0.00  0.00    +0.015 C 
ATOM     25  C   UNL     1       5.589   1.809  -0.146  0.00  0.00    -0.013 C 
ATOM     26  C   UNL     1       5.880   3.224  -0.648  0.00  0.00    +0.015 C 
ATOM     27  C   UNL     1       6.169   1.637   1.259  0.00  0.00    +0.015 C 
ENDBRANCH  18  25
ENDBRANCH   1  21
BRANCH   3  28
ATOM     28  O   UNL     1       0.584   0.498   2.860  0.00  0.00    -0.503 OA
ATOM     29  H   UNL     1       0.667   0.423   3.853  0.00  0.00    +0.292 HD
ENDBRANCH   3  28
BRANCH   8  30
ATOM     30  C   UNL     1      -0.483   1.235  -2.556  0.00  0.00    +0.107 C 
BRANCH  30  31
ATOM     31  C   UNL     1      -1.433   0.123  -3.004  0.00  0.00    +0.000 C 
BRANCH  31  32
ATOM     32  C   UNL     1      -1.147  -0.234  -4.465  0.00  0.00    -0.077 C 
BRANCH  32  38
ATOM     33  C   UNL     1      -1.782  -2.553  -4.176  0.00  0.00    -0.050 C 
ATOM     34  C   UNL     1      -2.791  -3.620  -4.610  0.00  0.00    +0.141 C 
ATOM     35  O   UNL     1      -2.722  -3.784  -6.029  0.00  0.00    -0.383 OA
ATOM     36  C   UNL     1      -2.988  -2.585  -6.761  0.00  0.00    +0.141 C 
ATOM     37  C   UNL     1      -1.981  -1.508  -6.349  0.00  0.00    -0.050 C 
ATOM     38  N   UNL     1      -2.086  -1.295  -4.890  0.00  0.00    +0.383 N 
ATOM     39  H   UNL     1      -3.044  -1.004  -4.663  0.00  0.00    -0.082 HD
ENDBRANCH  32  38
ENDBRANCH  31  32
ENDBRANCH  30  31
ENDBRANCH   8  30
TORSDOF 8
