REMARK  Name = ZINC09041504
REMARK  13 active torsions:
REMARK  status: ('A' for Active; 'I' for Inactive)
REMARK    1  A    between atoms: C_1  and  C_2
REMARK    2  A    between atoms: C_2  and  C_3
REMARK    3  A    between atoms: C_2  and  O_4
REMARK    4  A    between atoms: O_4  and  C_5
REMARK    5  A    between atoms: C_8  and  C_11
REMARK    6  A    between atoms: C_14  and  C_15
REMARK    7  A    between atoms: C_14  and  O_25
REMARK    8  A    between atoms: C_18  and  O_21
REMARK    9  A    between atoms: O_21  and  C_22
REMARK   10  A    between atoms: C_22  and  C_23
REMARK   11  A    between atoms: N_30  and  C_31
REMARK   12  A    between atoms: C_31  and  C_32
REMARK   13  A    between atoms: C_32  and  N_71
REMARK                            x       y       z     vdW  Elec       q    Type
REMARK                         _______ _______ _______ _____ _____    ______ ____
ROOT
ATOM      1  C   UNL     1       3.842  -1.740   7.954  0.00  0.00    +0.144 C 
ATOM      2  C   UNL     1       3.381  -0.969   6.738  0.00  0.00    +0.071 C 
ATOM      3  C   UNL     1       2.440   0.042   6.705  0.00  0.00    +0.133 C 
ATOM      4  C   UNL     1       4.106  -1.482   5.653  0.00  0.00    +0.249 C 
ATOM      5  O   UNL     1       4.017  -1.112   4.496  0.00  0.00    -0.282 OA
ATOM      6  C   UNL     1       5.001  -2.558   6.159  0.00  0.00    +0.288 C 
ATOM      7  O   UNL     1       5.764  -3.207   5.474  0.00  0.00    -0.266 OA
ATOM      8  N   UNL     1       4.841  -2.704   7.485  0.00  0.00    -0.285 N 
ENDROOT
BRANCH   1  12
ATOM      9  C   UNL     1       0.541  -3.807   9.712  0.00  0.00    +0.121 A 
ATOM     10  C   UNL     1       0.998  -2.623  10.273  0.00  0.00    +0.046 A 
ATOM     11  C   UNL     1       2.065  -1.957   9.703  0.00  0.00    +0.009 A 
ATOM     12  C   UNL     1       2.678  -2.469   8.574  0.00  0.00    -0.022 A 
ATOM     13  C   UNL     1       2.221  -3.646   8.010  0.00  0.00    +0.009 A 
ATOM     14  C   UNL     1       1.158  -4.319   8.580  0.00  0.00    +0.046 A 
BRANCH   9  15
ATOM     15  O   UNL     1      -0.509  -4.464  10.271  0.00  0.00    -0.489 OA
BRANCH  15  17
ATOM     16  C   UNL     1      -2.612  -4.331  11.456  0.00  0.00    +0.051 C 
ATOM     17  C   UNL     1      -1.173  -3.819  11.360  0.00  0.00    +0.167 C 
ATOM     18  C   UNL     1      -0.434  -4.129  12.664  0.00  0.00    +0.051 C 
ENDBRANCH  15  17
ENDBRANCH   9  15
ENDBRANCH   1  12
BRANCH   3  19
ATOM     19  C   UNL     1       1.995   0.589   5.414  0.00  0.00    +0.017 A 
ATOM     20  C   UNL     1       1.565  -0.272   4.396  0.00  0.00    +0.015 A 
ATOM     21  C   UNL     1       1.149   0.245   3.191  0.00  0.00    +0.046 A 
ATOM     22  C   UNL     1       1.154   1.620   2.982  0.00  0.00    +0.121 A 
ATOM     23  C   UNL     1       1.585   2.479   3.988  0.00  0.00    +0.046 A 
ATOM     24  C   UNL     1       1.998   1.973   5.199  0.00  0.00    +0.015 A 
BRANCH  22  25
ATOM     25  O   UNL     1       0.743   2.125   1.792  0.00  0.00    -0.488 OA
BRANCH  25  26
ATOM     26  C   UNL     1       0.773   3.546   1.644  0.00  0.00    +0.256 C 
BRANCH  26  27
ATOM     27  C   UNL     1       0.285   3.919   0.268  0.00  0.00    +0.006 C 
ATOM     28  C   UNL     1      -0.568   4.902   0.120  0.00  0.00    +0.007 C 
ENDBRANCH  26  27
ENDBRANCH  25  26
ENDBRANCH  22  25
ENDBRANCH   3  19
BRANCH   3  29
ATOM     29  O   UNL     1       1.929   0.528   7.856  0.00  0.00    -0.506 OA
ATOM     30  H   UNL     1       1.268   1.249   7.649  0.00  0.00    +0.292 HD
ENDBRANCH   3  29
BRANCH   8  31
ATOM     31  C   UNL     1       5.557  -3.666   8.327  0.00  0.00    +0.090 C 
BRANCH  31  32
ATOM     32  C   UNL     1       6.844  -3.026   8.852  0.00  0.00    -0.059 C 
BRANCH  32  38
ATOM     33  C   UNL     1       6.801  -4.287  10.920  0.00  0.00    -0.050 C 
ATOM     34  C   UNL     1       7.554  -5.338  11.740  0.00  0.00    +0.141 C 
ATOM     35  O   UNL     1       8.871  -4.861  12.023  0.00  0.00    -0.383 OA
ATOM     36  C   UNL     1       9.640  -4.563  10.854  0.00  0.00    +0.141 C 
ATOM     37  C   UNL     1       8.908  -3.504  10.025  0.00  0.00    -0.050 C 
ATOM     38  N   UNL     1       7.564  -4.015   9.684  0.00  0.00    +0.384 N 
ATOM     39  H   UNL     1       7.664  -4.888   9.153  0.00  0.00    -0.082 HD
ENDBRANCH  32  38
ENDBRANCH  31  32
ENDBRANCH   8  31
TORSDOF 11
