REMARK  Name = ZINC59461710
REMARK  6 active torsions:
REMARK  status: ('A' for Active; 'I' for Inactive)
REMARK    1  A    between atoms: C_6  and  C_7
REMARK    2  A    between atoms: N_12  and  N_13
REMARK    3  A    between atoms: C_15  and  C_23
REMARK    4  A    between atoms: N_17  and  C_20
REMARK    5  A    between atoms: C_20  and  N_22
REMARK    6  A    between atoms: C_26  and  N_29
REMARK                            x       y       z     vdW  Elec       q    Type
REMARK                         _______ _______ _______ _____ _____    ______ ____
ROOT
ATOM      1  N   UNL     1      -3.956  -4.445   0.027  0.00  0.00    -0.140 NA
ATOM      2  C   UNL     1      -4.220  -5.750   0.028  0.00  0.00    +0.177 C 
ATOM      3  C   UNL     1      -5.497  -6.367   0.032  0.00  0.00    +0.122 C 
ATOM      4  N   UNL     1      -5.326  -7.672   0.032  0.00  0.00    -0.168 NA
ATOM      5  N   UNL     1      -3.970  -8.002   0.028  0.00  0.00    -0.134 N 
ATOM      6  C   UNL     1      -3.238  -6.868   0.020  0.00  0.00    +0.294 C 
ATOM      7  O   UNL     1      -2.028  -6.778   0.010  0.00  0.00    -0.266 OA
ENDROOT
BRANCH   1  13
ATOM      8  C   UNL     1      -1.257  -0.760   0.011  0.00  0.00    +0.055 A 
ATOM      9  C   UNL     1      -2.495  -0.096   0.021  0.00  0.00    +0.075 A 
ATOM     10  S   UNL     1      -3.608  -1.357   0.027  0.00  0.00    -0.056 S 
ATOM     11  C   UNL     1      -2.469  -2.728   0.017  0.00  0.00    +0.192 A 
ATOM     12  N   UNL     1      -1.255  -2.099   0.003  0.00  0.00    -0.332 N 
ATOM     13  N   UNL     1      -2.733  -4.034   0.018  0.00  0.00    -0.123 NA
ATOM     14  H   UNL     1      -0.425  -2.603  -0.008  0.00  0.00    +0.168 HD
BRANCH   8  20
ATOM     15  C   UNL     1      -0.017   1.399   0.010  0.00  0.00    +0.011 A 
ATOM     16  C   UNL     1       1.168   2.100   0.002  0.00  0.00    +0.020 A 
ATOM     17  C   UNL     1       2.379   1.422  -0.013  0.00  0.00    +0.041 A 
ATOM     18  C   UNL     1       2.407   0.035  -0.021  0.00  0.00    +0.020 A 
ATOM     19  C   UNL     1       1.231  -0.681  -0.014  0.00  0.00    +0.011 A 
ATOM     20  C   UNL     1       0.002  -0.004   0.002  0.00  0.00    -0.001 A 
ATOM     21 CL   UNL     1       3.868   2.315  -0.022  0.00  0.00    -0.084 Cl
ENDBRANCH   8  20
ENDBRANCH   1  13
BRANCH   3  22
ATOM     22  C   UNL     1      -6.800  -5.662   0.035  0.00  0.00    +0.004 A 
ATOM     23  C   UNL     1      -6.842  -4.268   0.029  0.00  0.00    +0.012 A 
ATOM     24  C   UNL     1      -8.059  -3.618   0.032  0.00  0.00    +0.033 A 
ATOM     25  C   UNL     1      -9.236  -4.346   0.041  0.00  0.00    +0.126 A 
ATOM     26  C   UNL     1      -9.200  -5.729   0.047  0.00  0.00    +0.033 A 
ATOM     27  C   UNL     1      -7.989  -6.391   0.038  0.00  0.00    +0.012 A 
BRANCH  25  28
ATOM     28  N   UNL     1     -10.538  -3.642   0.045  0.00  0.00    +0.056 N 
ATOM     29  O   UNL     1     -10.575  -2.326   0.040  0.00  0.00    -0.126 OA
ATOM     30  O   UNL     1     -11.659  -4.332   0.054  0.00  0.00    -0.126 OA
ENDBRANCH  25  28
ENDBRANCH   3  22
BRANCH   5  31
ATOM     31  C   UNL     1      -3.470  -9.253   0.028  0.00  0.00    +0.158 C 
ATOM     32  S   UNL     1      -1.776  -9.499   0.024  0.00  0.00    -0.017 S 
BRANCH  31  33
ATOM     33  N   UNL     1      -4.304 -10.312   0.029  0.00  0.00    -0.339 N 
ATOM     34  H   UNL     1      -5.264 -10.173   0.032  0.00  0.00    +0.144 HD
ATOM     35  H   UNL     1      -3.945 -11.213   0.029  0.00  0.00    +0.144 HD
ENDBRANCH  31  33
ENDBRANCH   5  31
TORSDOF 6
