REMARK  Name = ZINC40284012
REMARK  10 active torsions:
REMARK  status: ('A' for Active; 'I' for Inactive)
REMARK    1  A    between atoms: C_1  and  C_2
REMARK    2  A    between atoms: C_3  and  N_9
REMARK    3  A    between atoms: C_4  and  C_8
REMARK    4  A    between atoms: N_5  and  C_7
REMARK    5  A    between atoms: C_10  and  C_12
REMARK    6  A    between atoms: N_14  and  C_15
REMARK    7  A    between atoms: C_17  and  C_23
REMARK    8  A    between atoms: C_17  and  C_24
REMARK    9  A    between atoms: C_19  and  C_21
REMARK   10  A    between atoms: C_19  and  C_22
REMARK                            x       y       z     vdW  Elec       q    Type
REMARK                         _______ _______ _______ _____ _____    ______ ____
ROOT
ATOM      1  C   UNL     1      -0.428   1.405  -4.757  0.00  0.00    +0.300 C 
ATOM      2  O   UNL     1      -0.999   0.774  -5.622  0.00  0.00    -0.265 OA
ATOM      3  N   UNL     1      -0.022   2.667  -5.000  0.00  0.00    -0.305 N 
ATOM      4  H   UNL     1       0.434   3.172  -4.309  0.00  0.00    +0.149 HD
ENDROOT
BRANCH   3   5
ATOM      5  C   UNL     1      -0.272   3.279  -6.312  0.00  0.00    +0.071 C 
ATOM      6  C   UNL     1      -1.662   3.918  -6.312  0.00  0.00    +0.009 C 
ATOM      7  C   UNL     1      -1.932   4.570  -7.668  0.00  0.00    -0.072 C 
ATOM      8  N   UNL     1      -0.886   5.510  -8.042  0.00  0.00    +0.386 N 
ATOM      9  C   UNL     1       0.495   5.081  -7.887  0.00  0.00    -0.072 C 
ATOM     10  C   UNL     1       0.761   4.378  -6.560  0.00  0.00    +0.009 C 
ATOM     11  C   UNL     1       0.945   4.191  -9.049  0.00  0.00    -0.010 C 
ATOM     12  C   UNL     1       1.381   6.349  -7.920  0.00  0.00    -0.010 C 
ATOM     13  C   UNL     1      -3.251   5.366  -7.539  0.00  0.00    -0.010 C 
ATOM     14  C   UNL     1      -2.152   3.498  -8.735  0.00  0.00    -0.010 C 
ATOM     15  H   UNL     1      -1.032   5.781  -9.017  0.00  0.00    -0.084 HD
ATOM     16  H   UNL     1      -1.019   6.369  -7.502  0.00  0.00    -0.084 HD
ENDBRANCH   3   5
BRANCH   1  18
ATOM     17  N   UNL     1      -0.579  -0.479  -3.180  0.00  0.00    -0.275 N 
ATOM     18  C   UNL     1      -0.174   0.783  -3.424  0.00  0.00    +0.303 C 
ATOM     19  O   UNL     1       0.398   1.415  -2.558  0.00  0.00    -0.265 OA
ATOM     20  H   UNL     1      -0.986  -1.002  -3.888  0.00  0.00    +0.155 HD
BRANCH  17  23
ATOM     21  C   UNL     1      -0.757   1.127  -0.516  0.00  0.00    +0.069 C 
ATOM     22  C   UNL     1      -0.485  -0.346  -0.682  0.00  0.00    +0.081 A 
ATOM     23  C   UNL     1      -0.412  -1.036  -1.902  0.00  0.00    +0.078 A 
ATOM     24  C   UNL     1      -0.151  -2.341  -1.625  0.00  0.00    +0.057 A 
ATOM     25  N   UNL     1      -0.063  -2.464  -0.281  0.00  0.00    -0.270 N 
ATOM     26  N   UNL     1      -0.271  -1.200   0.285  0.00  0.00    -0.175 NA
ATOM     27  C   UNL     1       0.207  -3.703   0.454  0.00  0.00    +0.172 C 
ATOM     28  C   UNL     1       0.011  -3.449  -2.633  0.00  0.00    +0.067 C 
ENDBRANCH  17  23
ENDBRANCH   1  18
TORSDOF 3
