REMARK  Name = ZINC12570119
REMARK  11 active torsions:
REMARK  status: ('A' for Active; 'I' for Inactive)
REMARK    1  A    between atoms: C_1  and  C_2
REMARK    2  A    between atoms: C_2  and  C_4
REMARK    3  A    between atoms: C_2  and  O_25
REMARK    4  A    between atoms: N_6  and  C_7
REMARK    5  A    between atoms: C_7  and  N_9
REMARK    6  A    between atoms: N_9  and  N_10
REMARK    7  A    between atoms: C_11  and  C_13
REMARK    8  A    between atoms: C_13  and  C_14
REMARK    9  A    between atoms: C_14  and  C_15
REMARK   10  A    between atoms: N_17  and  C_18
REMARK   11  A    between atoms: O_25  and  C_26
REMARK                            x       y       z     vdW  Elec       q    Type
REMARK                         _______ _______ _______ _____ _____    ______ ____
ROOT
ATOM      1  N   UNL     1       4.402  -6.622  -2.131  0.00  0.00    -0.246 N 
ATOM      2  H   UNL     1       4.311  -7.439  -2.647  0.00  0.00    +0.172 HD
ENDROOT
BRANCH   1   3
ATOM      3  N   UNL     1       5.659  -6.232  -1.651  0.00  0.00    -0.235 N 
ATOM      4  C   UNL     1       6.742  -6.993  -1.905  0.00  0.00    +0.230 C 
ATOM      5  O   UNL     1       6.629  -8.014  -2.550  0.00  0.00    -0.274 OA
ATOM      6  H   UNL     1       5.750  -5.416  -1.135  0.00  0.00    +0.173 HD
BRANCH   4   7
ATOM      7  C   UNL     1       8.095  -6.574  -1.389  0.00  0.00    +0.106 C 
BRANCH   7   8
ATOM      8  C   UNL     1       9.144  -7.603  -1.814  0.00  0.00    +0.105 C 
BRANCH   8   9
ATOM      9  C   UNL     1      10.496  -7.184  -1.297  0.00  0.00    +0.218 C 
ATOM     10  O   UNL     1      10.610  -6.163  -0.653  0.00  0.00    -0.275 OA
ATOM     11  N   UNL     1      11.580  -7.944  -1.552  0.00  0.00    -0.284 N 
ATOM     12  H   UNL     1      11.505  -8.715  -2.136  0.00  0.00    +0.155 HD
BRANCH  11  13
ATOM     13  C   UNL     1      12.813  -7.622  -0.972  0.00  0.00    +0.052 A 
ATOM     14  C   UNL     1      12.857  -6.896   0.210  0.00  0.00    +0.025 A 
ATOM     15  C   UNL     1      14.075  -6.584   0.783  0.00  0.00    +0.002 A 
ATOM     16  C   UNL     1      15.250  -6.985   0.173  0.00  0.00    +0.002 A 
ATOM     17  C   UNL     1      15.210  -7.703  -1.007  0.00  0.00    +0.022 A 
ATOM     18  C   UNL     1      13.995  -8.023  -1.582  0.00  0.00    +0.062 A 
ATOM     19 CL   UNL     1      13.945  -8.925  -3.065  0.00  0.00    -0.082 Cl
ENDBRANCH  11  13
ENDBRANCH   8   9
ENDBRANCH   7   8
ENDBRANCH   4   7
ENDBRANCH   1   3
BRANCH   1  20
ATOM     20  C   UNL     1       3.318  -5.862  -1.877  0.00  0.00    +0.153 C 
ATOM     21  S   UNL     1       1.782  -6.337  -2.464  0.00  0.00    -0.017 S 
BRANCH  20  24
ATOM     22  C   UNL     1       2.361  -3.967  -0.906  0.00  0.00    +0.259 C 
ATOM     23  O   UNL     1       1.273  -4.303  -1.322  0.00  0.00    -0.271 OA
ATOM     24  N   UNL     1       3.444  -4.727  -1.161  0.00  0.00    -0.264 N 
ATOM     25  H   UNL     1       4.315  -4.457  -0.828  0.00  0.00    +0.157 HD
BRANCH  22  27
ATOM     26  C   UNL     1       3.055  -3.029   1.282  0.00  0.00    +0.062 C 
ATOM     27  C   UNL     1       2.502  -2.698  -0.105  0.00  0.00    +0.256 C 
BRANCH  27  28
ATOM     28  O   UNL     1       1.223  -2.074   0.028  0.00  0.00    -0.478 OA
BRANCH  28  29
ATOM     29  C   UNL     1       1.197  -0.715   0.039  0.00  0.00    +0.140 A 
ATOM     30  C   UNL     1       2.385   0.002   0.041  0.00  0.00    +0.048 A 
ATOM     31  C   UNL     1       2.357   1.383   0.052  0.00  0.00    +0.023 A 
ATOM     32  C   UNL     1       1.145   2.052   0.061  0.00  0.00    +0.043 A 
ATOM     33  C   UNL     1      -0.041   1.339   0.060  0.00  0.00    +0.043 A 
ATOM     34  C   UNL     1      -0.017  -0.043   0.049  0.00  0.00    +0.084 A 
ATOM     35 CL   UNL     1      -1.505  -0.937   0.046  0.00  0.00    -0.080 Cl
ATOM     36 CL   UNL     1       1.113   3.788   0.075  0.00  0.00    -0.083 Cl
ENDBRANCH  28  29
ENDBRANCH  27  28
ENDBRANCH  22  27
ENDBRANCH  20  24
ENDBRANCH   1  20
TORSDOF 10
