REMARK  Name = ZINC21673330
REMARK  10 active torsions:
REMARK  status: ('A' for Active; 'I' for Inactive)
REMARK    1  A    between atoms: C_1  and  C_2
REMARK    2  A    between atoms: C_2  and  O_3
REMARK    3  A    between atoms: O_3  and  C_4
REMARK    4  A    between atoms: C_11  and  C_18
REMARK    5  A    between atoms: C_13  and  O_14
REMARK    6  A    between atoms: C_18  and  S_19
REMARK    7  A    between atoms: S_19  and  C_20
REMARK    8  A    between atoms: C_23  and  C_28
REMARK    9  A    between atoms: N_24  and  C_25
REMARK   10  A    between atoms: C_25  and  C_26
REMARK                            x       y       z     vdW  Elec       q    Type
REMARK                         _______ _______ _______ _____ _____    ______ ____
ROOT
ATOM      1  C   UNL     1      -4.882  -4.001  -6.609  0.00  0.00    +0.405 C 
ATOM      2  O   UNL     1      -5.636  -4.381  -5.736  0.00  0.00    -0.226 OA
ATOM      3  N   UNL     1      -3.953  -3.063  -6.337  0.00  0.00    -0.251 N 
ATOM      4  C   UNL     1      -3.798  -2.592  -5.033  0.00  0.00    +0.040 A 
ATOM      5  C   UNL     1      -3.438  -1.263  -4.816  0.00  0.00    +0.024 A 
ATOM      6  C   UNL     1      -3.281  -0.788  -3.546  0.00  0.00    +0.013 A 
ATOM      7  C   UNL     1      -3.491  -1.639  -2.454  0.00  0.00    +0.022 A 
ATOM      8  C   UNL     1      -3.324  -1.158  -1.081  0.00  0.00    -0.020 A 
ATOM      9  C   UNL     1      -3.535  -2.034  -0.064  0.00  0.00    +0.092 A 
ATOM     10  C   UNL     1      -3.899  -3.365  -0.350  0.00  0.00    +0.285 A 
ATOM     11  O   UNL     1      -4.045  -3.802  -1.611  0.00  0.00    -0.425 OA
ATOM     12  C   UNL     1      -3.850  -2.983  -2.667  0.00  0.00    +0.141 A 
ATOM     13  C   UNL     1      -4.004  -3.450  -3.963  0.00  0.00    +0.070 A 
ATOM     14  H   UNL     1      -3.317  -2.669  -7.144  0.00  0.00    +0.158 HD
ENDROOT
BRANCH  10  15
ATOM     15  O   UNL     1      -4.085  -4.140   0.571  0.00  0.00    -0.480 OA
ATOM     16  H   UNL     1      -4.369  -5.183   0.364  0.00  0.00    +0.295 HD
ENDBRANCH  10  15
BRANCH   1  17
ATOM     17  O   UNL     1      -4.974  -4.518  -7.849  0.00  0.00    -0.450 OA
BRANCH  17  19
ATOM     18  C   UNL     1      -5.950  -5.989  -9.527  0.00  0.00    +0.048 C 
ATOM     19  C   UNL     1      -5.998  -5.524  -8.070  0.00  0.00    +0.230 C 
ENDBRANCH  17  19
ENDBRANCH   1  17
BRANCH   8  20
ATOM     20  C   UNL     1      -2.935   0.271  -0.804  0.00  0.00    +0.113 C 
BRANCH  20  21
ATOM     21  S   UNL     1      -1.131   0.403  -0.731  0.00  0.00    -0.081 S 
BRANCH  21  22
ATOM     22  C   UNL     1      -0.963   2.126  -0.405  0.00  0.00    +0.192 A 
ATOM     23  N   UNL     1      -1.941   2.994  -0.275  0.00  0.00    -0.122 NA
ATOM     24  N   UNL     1      -1.464   4.164  -0.038  0.00  0.00    -0.128 NA
ATOM     25  C   UNL     1      -0.153   4.116  -0.011  0.00  0.00    +0.165 A 
ATOM     26  N   UNL     1       0.209   2.809  -0.245  0.00  0.00    -0.298 N 
BRANCH  25  27
ATOM     27  C   UNL     1       0.763   5.252   0.225  0.00  0.00    +0.019 A 
ATOM     28  C   UNL     1       2.101   5.166  -0.161  0.00  0.00    +0.013 A 
ATOM     29  C   UNL     1       2.950   6.231   0.058  0.00  0.00    +0.021 A 
ATOM     30  C   UNL     1       2.479   7.380   0.670  0.00  0.00    +0.041 A 
ATOM     31  C   UNL     1       1.153   7.470   1.060  0.00  0.00    +0.021 A 
ATOM     32  C   UNL     1       0.294   6.414   0.842  0.00  0.00    +0.013 A 
ATOM     33 CL   UNL     1       3.555   8.714   0.950  0.00  0.00    -0.084 Cl
ENDBRANCH  25  27
BRANCH  26  34
ATOM     34  C   UNL     1       1.567   2.265  -0.309  0.00  0.00    +0.152 C 
BRANCH  34  35
ATOM     35  C   UNL     1       2.015   2.200  -1.746  0.00  0.00    -0.013 C 
ATOM     36  C   UNL     1       3.143   2.761  -2.107  0.00  0.00    +0.005 C 
ENDBRANCH  34  35
ENDBRANCH  26  34
ENDBRANCH  21  22
ENDBRANCH  20  21
ENDBRANCH   8  20
TORSDOF 9
