REMARK  Name = ZINC09695504
REMARK  5 active torsions:
REMARK  status: ('A' for Active; 'I' for Inactive)
REMARK    1  A    between atoms: C_1  and  C_2
REMARK    2  A    between atoms: C_2  and  O_3
REMARK    3  A    between atoms: O_3  and  C_4
REMARK    4  A    between atoms: C_4  and  C_6
REMARK    5  A    between atoms: C_7  and  N_31
REMARK                            x       y       z     vdW  Elec       q    Type
REMARK                         _______ _______ _______ _____ _____    ______ ____
ROOT
ATOM      1  C   UNL     1      -0.824   1.644  -3.530  0.00  0.00    +0.117 C 
ATOM      2  C   UNL     1      -0.252   1.376  -4.733  0.00  0.00    +0.196 C 
ATOM      3  O   UNL     1      -0.827   1.762  -5.885  0.00  0.00    -0.440 OA
ATOM      4  C   UNL     1      -2.133   2.087  -5.916  0.00  0.00    +0.152 A 
ATOM      5  C   UNL     1      -2.862   2.107  -7.194  0.00  0.00    +0.060 A 
ATOM      6  C   UNL     1      -2.221   1.796  -8.394  0.00  0.00    +0.015 A 
ATOM      7  C   UNL     1      -2.933   1.824  -9.573  0.00  0.00    +0.001 A 
ATOM      8  C   UNL     1      -4.278   2.160  -9.570  0.00  0.00    +0.004 A 
ATOM      9  C   UNL     1      -4.923   2.470  -8.392  0.00  0.00    +0.047 A 
ATOM     10  C   UNL     1      -4.224   2.448  -7.192  0.00  0.00    +0.143 A 
ATOM     11  O   UNL     1      -4.838   2.750  -6.028  0.00  0.00    -0.422 OA
ATOM     12  C   UNL     1      -4.180   2.735  -4.858  0.00  0.00    +0.346 A 
ATOM     13  O   UNL     1      -4.782   3.017  -3.837  0.00  0.00    -0.245 OA
ATOM     14  C   UNL     1      -2.817   2.403  -4.779  0.00  0.00    +0.104 A 
ATOM     15  C   UNL     1      -2.120   2.397  -3.447  0.00  0.00    +0.145 C 
ATOM     16  C   UNL     1      -1.897   3.793  -2.955  0.00  0.00    -0.001 A 
ATOM     17  C   UNL     1      -1.171   4.840  -3.481  0.00  0.00    +0.022 A 
ATOM     18  C   UNL     1      -1.168   6.031  -2.760  0.00  0.00    +0.018 A 
ATOM     19  C   UNL     1      -1.862   6.153  -1.572  0.00  0.00    +0.017 A 
ATOM     20  C   UNL     1      -2.594   5.104  -1.038  0.00  0.00    +0.025 A 
ATOM     21  C   UNL     1      -2.605   3.905  -1.752  0.00  0.00    +0.038 A 
ATOM     22  N   UNL     1      -3.243   2.712  -1.458  0.00  0.00    -0.284 N 
ATOM     23  C   UNL     1      -3.016   1.771  -2.398  0.00  0.00    +0.237 C 
ATOM     24  O   UNL     1      -3.447   0.638  -2.402  0.00  0.00    -0.274 OA
ATOM     25 BR   UNL     1      -0.193   7.511  -3.420  0.00  0.00    -0.050 Br
ATOM     26  H   UNL     1      -3.789   2.570  -0.669  0.00  0.00    +0.155 HD
ENDROOT
BRANCH   2  27
ATOM     27  N   UNL     1       0.934   0.692  -4.774  0.00  0.00    -0.329 N 
ATOM     28  H   UNL     1       1.318   0.339  -3.956  0.00  0.00    +0.145 HD
ATOM     29  H   UNL     1       1.390   0.561  -5.620  0.00  0.00    +0.145 HD
ENDBRANCH   2  27
BRANCH   1  30
ATOM     30  C   UNL     1      -0.193   1.218  -2.352  0.00  0.00    +0.342 C 
ATOM     31  O   UNL     1       0.450   2.009  -1.684  0.00  0.00    -0.245 OA
BRANCH  30  32
ATOM     32  O   UNL     1      -0.297  -0.070  -1.957  0.00  0.00    -0.462 OA
BRANCH  32  34
ATOM     33  C   UNL     1       0.140  -1.920  -0.465  0.00  0.00    +0.048 C 
ATOM     34  C   UNL     1       0.370  -0.434  -0.748  0.00  0.00    +0.229 C 
ENDBRANCH  32  34
ENDBRANCH  30  32
ENDBRANCH   1  30
TORSDOF 4
