REMARK  Name = ZINC12412483
REMARK  11 active torsions:
REMARK  status: ('A' for Active; 'I' for Inactive)
REMARK    1  A    between atoms: C_1  and  C_2
REMARK    2  A    between atoms: C_2  and  O_3
REMARK    3  A    between atoms: O_3  and  C_4
REMARK    4  A    between atoms: C_4  and  C_6
REMARK    5  A    between atoms: C_7  and  C_22
REMARK    6  A    between atoms: C_12  and  C_14
REMARK    7  A    between atoms: C_16  and  C_21
REMARK    8  A    between atoms: C_19  and  C_20
REMARK    9  A    between atoms: C_22  and  N_23
REMARK   10  A    between atoms: C_25  and  C_32
REMARK   11  A    between atoms: C_28  and  C_31
REMARK                            x       y       z     vdW  Elec       q    Type
REMARK                         _______ _______ _______ _____ _____    ______ ____
ROOT
ATOM      1  C   UNL     1      -2.898  -2.104   0.101  0.00  0.00    +0.076 C 
ATOM      2  C   UNL     1      -3.048  -3.445   0.042  0.00  0.00    +0.008 C 
ATOM      3  N   UNL     1      -4.287  -4.013  -0.043  0.00  0.00    -0.274 N 
ATOM      4  C   UNL     1      -5.426  -3.309  -0.075  0.00  0.00    +0.304 C 
ATOM      5  O   UNL     1      -6.483  -3.904  -0.151  0.00  0.00    -0.252 OA
ATOM      6  N   UNL     1      -5.438  -1.962  -0.025  0.00  0.00    -0.288 N 
ATOM      7  C   UNL     1      -4.151  -1.252   0.074  0.00  0.00    +0.144 C 
ATOM      8  H   UNL     1      -4.346  -4.980  -0.082  0.00  0.00    +0.156 HD
ATOM      9  H   UNL     1      -6.274  -1.472  -0.050  0.00  0.00    +0.151 HD
ENDROOT
BRANCH   7  10
ATOM     10  C   UNL     1      -4.171  -0.417   1.328  0.00  0.00    -0.019 A 
ATOM     11  C   UNL     1      -4.790  -0.895   2.468  0.00  0.00    +0.009 A 
ATOM     12  C   UNL     1      -4.808  -0.129   3.618  0.00  0.00    -0.050 A 
ATOM     13  C   UNL     1      -4.207   1.117   3.628  0.00  0.00    +0.003 A 
ATOM     14  C   UNL     1      -3.588   1.595   2.489  0.00  0.00    +0.004 A 
ATOM     15  C   UNL     1      -3.566   0.826   1.340  0.00  0.00    -0.045 A 
ATOM     16  C   UNL     1      -2.886   1.345   0.099  0.00  0.00    +0.044 C 
ATOM     17  C   UNL     1      -5.484  -0.649   4.860  0.00  0.00    +0.044 C 
ENDBRANCH   7  10
BRANCH   1  18
ATOM     18  C   UNL     1      -1.615  -1.515   0.189  0.00  0.00    +0.339 C 
ATOM     19  O   UNL     1      -1.190  -1.140   1.266  0.00  0.00    -0.245 OA
BRANCH  18  20
ATOM     20  O   UNL     1      -0.862  -1.368  -0.921  0.00  0.00    -0.462 OA
BRANCH  20  22
ATOM     21  C   UNL     1       1.121  -0.666  -2.111  0.00  0.00    +0.048 C 
ATOM     22  C   UNL     1       0.466  -0.873  -0.743  0.00  0.00    +0.229 C 
ENDBRANCH  20  22
ENDBRANCH  18  20
ENDBRANCH   1  18
BRANCH   2  23
ATOM     23  C   UNL     1      -1.828  -4.329   0.071  0.00  0.00    -0.026 C 
BRANCH  23  24
ATOM     24  N   UNL     1      -1.843  -5.146   1.292  0.00  0.00    +0.384 N 
ATOM     25  C   UNL     1      -1.727  -4.271   2.465  0.00  0.00    -0.075 C 
ATOM     26  C   UNL     1      -1.825  -5.109   3.742  0.00  0.00    -0.031 C 
ATOM     27  C   UNL     1      -0.692  -6.139   3.757  0.00  0.00    +0.003 C 
ATOM     28  C   UNL     1      -0.779  -6.998   2.492  0.00  0.00    -0.031 C 
ATOM     29  C   UNL     1      -0.720  -6.090   1.262  0.00  0.00    -0.075 C 
ATOM     30  C   UNL     1       0.394  -7.980   2.460  0.00  0.00    +0.005 C 
ATOM     31  C   UNL     1      -1.702  -4.195   4.963  0.00  0.00    +0.005 C 
ATOM     32  H   UNL     1      -2.711  -5.658   1.342  0.00  0.00    -0.081 HD
ENDBRANCH  23  24
ENDBRANCH   2  23
TORSDOF 6
