REMARK  Name = ZINC02127627
REMARK  7 active torsions:
REMARK  status: ('A' for Active; 'I' for Inactive)
REMARK    1  A    between atoms: C_1  and  O_2
REMARK    2  A    between atoms: O_2  and  C_3
REMARK    3  A    between atoms: C_7  and  N_9
REMARK    4  A    between atoms: C_12  and  C_19
REMARK    5  A    between atoms: C_13  and  O_18
REMARK    6  A    between atoms: C_25  and  O_31
REMARK    7  A    between atoms: O_31  and  C_32
REMARK                            x       y       z     vdW  Elec       q    Type
REMARK                         _______ _______ _______ _____ _____    ______ ____
ROOT
ATOM      1  N   UNL     1       2.918   3.441   0.096  0.00  0.00    -0.229 N 
ATOM      2  C   UNL     1       1.774   2.929   0.592  0.00  0.00    +0.267 A 
ATOM      3  O   UNL     1       0.960   3.656   1.134  0.00  0.00    -0.267 OA
ATOM      4  C   UNL     1       1.526   1.550   0.479  0.00  0.00    +0.069 A 
ATOM      5  C   UNL     1       2.454   0.756  -0.127  0.00  0.00    +0.201 A 
ATOM      6  N   UNL     1       3.603   1.320  -0.623  0.00  0.00    -0.278 N 
ATOM      7  H   UNL     1       4.265   0.760  -1.058  0.00  0.00    +0.173 HD
ATOM      8  C   UNL     1       3.820   2.643  -0.503  0.00  0.00    +0.336 A 
ATOM      9  O   UNL     1       4.846   3.123  -0.944  0.00  0.00    -0.246 OA
ENDROOT
BRANCH   4  10
ATOM     10  C   UNL     1       0.254   0.955   1.026  0.00  0.00    +0.018 C 
ATOM     11  C   UNL     1      -0.931   1.504   0.267  0.00  0.00    +0.011 A 
ATOM     12  C   UNL     1      -2.074   1.905   0.879  0.00  0.00    -0.022 A 
ATOM     13  C   UNL     1      -2.971   2.368  -0.155  0.00  0.00    +0.006 A 
ATOM     14  C   UNL     1      -4.268   2.890  -0.124  0.00  0.00    +0.056 A 
ATOM     15  C   UNL     1      -4.832   3.236  -1.343  0.00  0.00    +0.121 A 
ATOM     16  C   UNL     1      -4.146   3.073  -2.540  0.00  0.00    +0.047 A 
ATOM     17  C   UNL     1      -2.864   2.558  -2.590  0.00  0.00    +0.030 A 
ATOM     18  C   UNL     1      -2.273   2.203  -1.380  0.00  0.00    +0.047 A 
ATOM     19  N   UNL     1      -1.046   1.677  -1.081  0.00  0.00    -0.359 N 
ATOM     20  H   UNL     1      -0.359   1.460  -1.731  0.00  0.00    +0.166 HD
ATOM     21  C   UNL     1      -2.284   1.845   2.372  0.00  0.00    +0.018 C 
ATOM     22  C   UNL     1      -1.209   0.926   2.967  0.00  0.00    -0.076 C 
ATOM     23  N   UNL     1       0.119   1.321   2.453  0.00  0.00    +0.388 N 
ATOM     24  H   UNL     1       0.232   2.337   2.554  0.00  0.00    -0.084 HD
ATOM     25  H   UNL     1       0.847   0.841   2.995  0.00  0.00    -0.084 HD
BRANCH  15  26
ATOM     26  O   UNL     1      -6.091   3.749  -1.367  0.00  0.00    -0.495 OA
ATOM     27  C   UNL     1      -6.629   4.090  -2.646  0.00  0.00    +0.277 C 
ENDBRANCH  15  26
ENDBRANCH   4  10
BRANCH   1  32
ATOM     28  C   UNL     1       4.085   6.671   1.423  0.00  0.00    +0.122 A 
ATOM     29  C   UNL     1       3.665   7.532   0.419  0.00  0.00    +0.046 A 
ATOM     30  C   UNL     1       3.001   7.036  -0.686  0.00  0.00    +0.006 A 
ATOM     31  C   UNL     1       2.757   5.680  -0.797  0.00  0.00    +0.026 A 
ATOM     32  C   UNL     1       3.170   4.815   0.207  0.00  0.00    +0.058 A 
ATOM     33  C   UNL     1       3.838   5.311   1.317  0.00  0.00    +0.072 A 
BRANCH  28  35
ATOM     34  C   UNL     1       4.960   8.572   2.552  0.00  0.00    +0.277 C 
ATOM     35  O   UNL     1       4.739   7.160   2.509  0.00  0.00    -0.495 OA
ENDBRANCH  28  35
ENDBRANCH   1  32
BRANCH   5  36
ATOM     36  O   UNL     1       2.243  -0.572  -0.243  0.00  0.00    -0.493 OA
ATOM     37  H   UNL     1       2.959  -1.046  -0.687  0.00  0.00    +0.294 HD
ENDBRANCH   5  36
TORSDOF 5
