REMARK  Name = ZINC08644695
REMARK  7 active torsions:
REMARK  status: ('A' for Active; 'I' for Inactive)
REMARK    1  A    between atoms: C_1  and  C_2
REMARK    2  A    between atoms: C_5  and  N_9
REMARK    3  A    between atoms: C_6  and  C_8
REMARK    4  A    between atoms: C_13  and  C_15
REMARK    5  A    between atoms: C_15  and  N_16
REMARK    6  A    between atoms: C_19  and  C_23
REMARK    7  A    between atoms: C_19  and  C_24
REMARK                            x       y       z     vdW  Elec       q    Type
REMARK                         _______ _______ _______ _____ _____    ______ ____
ROOT
ATOM      1  N   UNL     1       0.468   0.169   0.284  0.00  0.00    -0.215 N 
ATOM      2  C   UNL     1       0.270   1.499   0.358  0.00  0.00    +0.251 C 
ATOM      3  O   UNL     1      -0.790   2.076   0.482  0.00  0.00    -0.272 OA
ATOM      4  C   UNL     1       1.645   2.126   0.246  0.00  0.00    +0.136 C 
ATOM      5  N   UNL     1       2.544   0.967   0.109  0.00  0.00    -0.281 N 
ATOM      6  C   UNL     1       1.765  -0.130   0.142  0.00  0.00    +0.310 C 
ATOM      7  O   UNL     1       2.192  -1.264   0.053  0.00  0.00    -0.252 OA
ATOM      8  C   UNL     1       1.730   3.022  -0.992  0.00  0.00    +0.047 C 
ATOM      9  H   UNL     1       3.509   0.990   0.013  0.00  0.00    +0.152 HD
ENDROOT
BRANCH   4  10
ATOM     10  C   UNL     1       1.975   2.908   1.491  0.00  0.00    -0.008 A 
ATOM     11  C   UNL     1       3.022   2.535   2.276  0.00  0.00    +0.007 A 
ATOM     12  C   UNL     1       3.342   3.246   3.431  0.00  0.00    +0.001 A 
ATOM     13  C   UNL     1       2.616   4.334   3.808  0.00  0.00    +0.008 A 
ATOM     14  C   UNL     1       1.527   4.749   3.023  0.00  0.00    -0.018 A 
ATOM     15  C   UNL     1       1.205   4.029   1.845  0.00  0.00    -0.012 A 
ATOM     16  C   UNL     1       0.113   4.441   1.063  0.00  0.00    +0.009 A 
ATOM     17  C   UNL     1      -0.613   5.529   1.440  0.00  0.00    +0.001 A 
ATOM     18  C   UNL     1      -0.293   6.240   2.595  0.00  0.00    +0.001 A 
ATOM     19  C   UNL     1       0.754   5.867   3.380  0.00  0.00    +0.008 A 
ENDBRANCH   4  10
BRANCH   1  20
ATOM     20  C   UNL     1      -0.603  -0.829   0.351  0.00  0.00    +0.214 C 
BRANCH  20  25
ATOM     21  N   UNL     1      -3.554  -3.152  -2.649  0.00  0.00    -0.269 N 
ATOM     22  C   UNL     1      -2.561  -2.260  -2.465  0.00  0.00    +0.310 C 
ATOM     23  O   UNL     1      -2.076  -1.685  -3.420  0.00  0.00    -0.252 OA
ATOM     24  N   UNL     1      -2.105  -2.005  -1.223  0.00  0.00    -0.239 N 
ATOM     25  C   UNL     1      -1.112  -1.113  -1.039  0.00  0.00    +0.238 C 
ATOM     26  O   UNL     1      -0.628  -0.540  -1.991  0.00  0.00    -0.274 OA
ATOM     27  H   UNL     1      -3.984  -3.564  -1.884  0.00  0.00    +0.156 HD
ATOM     28  H   UNL     1      -2.493  -2.464  -0.461  0.00  0.00    +0.159 HD
BRANCH  21  33
ATOM     29  C   UNL     1      -5.225  -4.495  -7.902  0.00  0.00    +0.044 C 
ATOM     30  C   UNL     1      -4.781  -4.138  -6.507  0.00  0.00    -0.050 A 
ATOM     31  C   UNL     1      -4.351  -2.854  -6.227  0.00  0.00    +0.005 A 
ATOM     32  C   UNL     1      -3.948  -2.522  -4.948  0.00  0.00    +0.024 A 
ATOM     33  C   UNL     1      -3.966  -3.483  -3.945  0.00  0.00    +0.038 A 
ATOM     34  C   UNL     1      -4.399  -4.771  -4.230  0.00  0.00    -0.029 A 
ATOM     35  C   UNL     1      -4.805  -5.095  -5.510  0.00  0.00    +0.008 A 
ATOM     36  C   UNL     1      -4.425  -5.815  -3.143  0.00  0.00    +0.045 C 
ENDBRANCH  21  33
ENDBRANCH  20  25
ENDBRANCH   1  20
TORSDOF 4
