REMARK  Name = ZINC67271364
REMARK  5 active torsions:
REMARK  status: ('A' for Active; 'I' for Inactive)
REMARK    1  A    between atoms: C_4  and  C_7
REMARK    2  A    between atoms: C_7  and  N_8
REMARK    3  A    between atoms: C_13  and  C_15
REMARK    4  A    between atoms: C_15  and  N_16
REMARK    5  A    between atoms: C_17  and  C_19
REMARK                            x       y       z     vdW  Elec       q    Type
REMARK                         _______ _______ _______ _____ _____    ______ ____
ROOT
ATOM      1  N   UNL     1       5.953  -0.209  -0.509  0.00  0.00    -0.317 N 
ATOM      2  C   UNL     1       6.714   0.561  -1.312  0.00  0.00    +0.216 C 
ATOM      3  O   UNL     1       7.840   0.860  -0.975  0.00  0.00    -0.276 OA
ATOM      4  H   UNL     1       5.052  -0.448  -0.778  0.00  0.00    +0.149 HD
ENDROOT
BRANCH   2   5
ATOM      5  C   UNL     1       6.167   1.048  -2.628  0.00  0.00    +0.075 C 
ATOM      6  C   UNL     1       5.800  -0.151  -3.504  0.00  0.00    +0.015 C 
ATOM      7  C   UNL     1       5.233   0.345  -4.836  0.00  0.00    +0.036 C 
ATOM      8  C   UNL     1       6.269   1.213  -5.542  0.00  0.00    +0.112 C 
ATOM      9  C   UNL     1       6.664   2.400  -4.670  0.00  0.00    +0.036 C 
ATOM     10  C   UNL     1       7.225   1.895  -3.338  0.00  0.00    +0.015 C 
ATOM     11  C   UNL     1       7.487   0.393  -5.901  0.00  0.00    +0.244 C 
ATOM     12  O   UNL     1       8.232  -0.187  -5.140  0.00  0.00    -0.273 OA
ATOM     13  N   UNL     1       7.572   0.443  -7.246  0.00  0.00    -0.238 N 
ATOM     14  C   UNL     1       6.583   1.175  -7.775  0.00  0.00    +0.307 C 
ATOM     15  O   UNL     1       6.447   1.366  -8.968  0.00  0.00    -0.252 OA
ATOM     16  N   UNL     1       5.756   1.675  -6.838  0.00  0.00    -0.285 N 
ATOM     17  H   UNL     1       8.263   0.004  -7.766  0.00  0.00    +0.159 HD
ATOM     18  H   UNL     1       4.975   2.231  -6.989  0.00  0.00    +0.151 HD
ENDBRANCH   2   5
BRANCH   1  19
ATOM     19  C   UNL     1       6.485  -0.683   0.771  0.00  0.00    +0.089 C 
BRANCH  19  25
ATOM     20  N   UNL     1       5.141  -2.708   0.487  0.00  0.00    +0.385 N 
ATOM     21  C   UNL     1       4.231  -3.663   1.131  0.00  0.00    -0.078 C 
ATOM     22  C   UNL     1       2.917  -2.964   1.483  0.00  0.00    -0.019 C 
ATOM     23  C   UNL     1       3.202  -1.803   2.440  0.00  0.00    -0.003 C 
ATOM     24  C   UNL     1       4.209  -0.852   1.787  0.00  0.00    -0.014 C 
ATOM     25  C   UNL     1       5.476  -1.630   1.424  0.00  0.00    -0.051 C 
ATOM     26  H   UNL     1       4.692  -2.317  -0.328  0.00  0.00    -0.081 HD
BRANCH  20  27
ATOM     27  C   UNL     1       6.370  -3.402   0.081  0.00  0.00    -0.043 C 
BRANCH  27  31
ATOM     28  C   UNL     1       5.450  -6.293  -2.926  0.00  0.00    +0.000 A 
ATOM     29  C   UNL     1       5.783  -5.001  -3.288  0.00  0.00    +0.000 A 
ATOM     30  C   UNL     1       6.081  -4.066  -2.315  0.00  0.00    +0.002 A 
ATOM     31  C   UNL     1       6.045  -4.422  -0.980  0.00  0.00    -0.064 A 
ATOM     32  C   UNL     1       5.711  -5.713  -0.618  0.00  0.00    +0.002 A 
ATOM     33  C   UNL     1       5.415  -6.649  -1.591  0.00  0.00    +0.000 A 
ENDBRANCH  27  31
ENDBRANCH  20  27
ENDBRANCH  19  25
ENDBRANCH   1  19
TORSDOF 5
