REMARK  Name = ZINC28805077
REMARK  9 active torsions:
REMARK  status: ('A' for Active; 'I' for Inactive)
REMARK    1  A    between atoms: C_1  and  C_2
REMARK    2  A    between atoms: C_2  and  C_4
REMARK    3  A    between atoms: C_2  and  N_23
REMARK    4  A    between atoms: N_6  and  N_7
REMARK    5  A    between atoms: C_10  and  C_14
REMARK    6  A    between atoms: C_10  and  C_15
REMARK    7  A    between atoms: C_15  and  C_16
REMARK    8  A    between atoms: C_16  and  C_17
REMARK    9  A    between atoms: C_24  and  C_26
REMARK                            x       y       z     vdW  Elec       q    Type
REMARK                         _______ _______ _______ _____ _____    ______ ____
ROOT
ATOM      1  N   UNL     1       1.187   2.061   0.002  0.00  0.00    -0.137 N 
ATOM      2  C   UNL     1       1.680   2.702  -1.077  0.00  0.00    +0.263 C 
ATOM      3  O   UNL     1       1.184   2.764  -2.181  0.00  0.00    -0.271 OA
ATOM      4  C   UNL     1       2.983   3.329  -0.621  0.00  0.00    +0.112 C 
ATOM      5  N   UNL     1       3.082   2.931   0.794  0.00  0.00    -0.284 N 
ATOM      6  C   UNL     1       1.987   2.198   1.066  0.00  0.00    +0.326 C 
ATOM      7  O   UNL     1       1.752   1.713   2.155  0.00  0.00    -0.251 OA
ATOM      8  C   UNL     1       2.920   4.852  -0.748  0.00  0.00    +0.041 C 
ATOM      9  H   UNL     1       3.948   3.247   1.395  0.00  0.00    +0.151 HD
ENDROOT
BRANCH   1  12
ATOM     10  C   UNL     1       0.002  -0.004   0.002  0.00  0.00    +0.250 C 
ATOM     11  O   UNL     1       1.060  -0.596  -0.011  0.00  0.00    -0.272 OA
ATOM     12  N   UNL     1      -0.016   1.344   0.009  0.00  0.00    -0.222 N 
ATOM     13  H   UNL     1      -0.976   1.881   0.021  0.00  0.00    +0.174 HD
BRANCH  10  15
ATOM     14  C   UNL     1      -2.112  -0.410  -1.229  0.00  0.00    +0.038 C 
ATOM     15  C   UNL     1      -1.293  -0.775   0.010  0.00  0.00    +0.158 C 
BRANCH  15  16
ATOM     16  N   UNL     1      -1.005  -2.212  -0.000  0.00  0.00    -0.300 N 
ATOM     17  C   UNL     1      -1.906  -3.083   0.497  0.00  0.00    +0.251 C 
ATOM     18  O   UNL     1      -2.958  -2.676   0.955  0.00  0.00    -0.270 OA
ATOM     19  H   UNL     1      -0.055  -2.580  -0.414  0.00  0.00    +0.150 HD
BRANCH  17  20
ATOM     20  C   UNL     1      -1.619  -4.520   0.486  0.00  0.00    +0.074 A 
ATOM     21  C   UNL     1      -2.397  -5.570   0.948  0.00  0.00    +0.021 A 
ATOM     22  C   UNL     1      -1.883  -6.836   0.812  0.00  0.00    +0.008 A 
ATOM     23  C   UNL     1      -0.656  -6.997   0.251  0.00  0.00    +0.046 A 
ATOM     24  S   UNL     1      -0.173  -5.373  -0.117  0.00  0.00    -0.092 S 
ENDBRANCH  17  20
ENDBRANCH  15  16
ENDBRANCH  10  15
ENDBRANCH   1  12
BRANCH   4  25
ATOM     25  C   UNL     1       4.159   2.770  -1.425  0.00  0.00    +0.040 C 
BRANCH  25  26
ATOM     26  C   UNL     1       5.469   3.325  -0.863  0.00  0.00    +0.038 C 
BRANCH  26  27
ATOM     27  C   UNL     1       6.628   2.775  -1.654  0.00  0.00    -0.047 A 
ATOM     28  C   UNL     1       7.234   1.596  -1.263  0.00  0.00    +0.003 A 
ATOM     29  C   UNL     1       8.293   1.089  -1.993  0.00  0.00    +0.000 A 
ATOM     30  C   UNL     1       8.753   1.766  -3.106  0.00  0.00    +0.000 A 
ATOM     31  C   UNL     1       8.151   2.949  -3.494  0.00  0.00    +0.000 A 
ATOM     32  C   UNL     1       7.088   3.453  -2.768  0.00  0.00    +0.003 A 
ENDBRANCH  26  27
ENDBRANCH  25  26
ENDBRANCH   4  25
TORSDOF 7
