REMARK  Name = ZINC35450525
REMARK  13 active torsions:
REMARK  status: ('A' for Active; 'I' for Inactive)
REMARK    1  A    between atoms: C_1  and  C_2
REMARK    2  A    between atoms: C_2  and  C_3
REMARK    3  A    between atoms: C_3  and  C_5
REMARK    4  A    between atoms: C_3  and  S_6
REMARK    5  A    between atoms: S_6  and  C_7
REMARK    6  A    between atoms: C_14  and  C_26
REMARK    7  A    between atoms: C_20  and  C_24
REMARK    8  A    between atoms: C_20  and  C_25
REMARK    9  A    between atoms: C_28  and  O_35
REMARK   10  A    between atoms: C_29  and  O_34
REMARK   11  A    between atoms: C_30  and  O_32
REMARK   12  A    between atoms: O_32  and  C_33
REMARK   13  A    between atoms: O_35  and  C_36
REMARK                            x       y       z     vdW  Elec       q    Type
REMARK                         _______ _______ _______ _____ _____    ______ ____
ROOT
ATOM      1  C   UNL     1       0.774  -0.523  -4.074  0.00  0.00    +0.171 A 
ATOM      2  N   UNL     1       1.933  -1.102  -3.832  0.00  0.00    -0.208 NA
ATOM      3  C   UNL     1       2.729  -1.497  -4.832  0.00  0.00    +0.135 A 
ATOM      4  C   UNL     1       2.337  -1.300  -6.144  0.00  0.00    +0.069 A 
ATOM      5  C   UNL     1       1.106  -0.683  -6.395  0.00  0.00    +0.258 A 
ATOM      6  O   UNL     1       0.729  -0.491  -7.540  0.00  0.00    -0.267 OA
ATOM      7  N   UNL     1       0.342  -0.307  -5.348  0.00  0.00    -0.302 N 
ATOM      8  C   UNL     1       3.208  -1.744  -7.281  0.00  0.00    +0.093 C 
ATOM      9  C   UNL     1       4.626  -1.981  -6.825  0.00  0.00    +0.024 C 
ATOM     10  C   UNL     1       4.923  -2.142  -5.519  0.00  0.00    +0.017 C 
ATOM     11  N   UNL     1       3.944  -2.096  -4.564  0.00  0.00    -0.302 N 
ATOM     12  C   UNL     1       6.346  -2.373  -5.069  0.00  0.00    +0.058 C 
ATOM     13  C   UNL     1       7.115  -3.121  -6.160  0.00  0.00    -0.023 C 
ATOM     14  C   UNL     1       7.067  -2.286  -7.444  0.00  0.00    +0.086 C 
ATOM     15  C   UNL     1       5.631  -2.031  -7.808  0.00  0.00    +0.162 C 
ATOM     16  O   UNL     1       5.332  -1.865  -8.974  0.00  0.00    -0.292 OA
ATOM     17  C   UNL     1       8.569  -3.314  -5.724  0.00  0.00    +0.011 C 
ATOM     18  C   UNL     1       6.465  -4.484  -6.406  0.00  0.00    +0.011 C 
ATOM     19  H   UNL     1       4.105  -2.488  -3.691  0.00  0.00    +0.153 HD
ATOM     20  H   UNL     1      -0.515   0.120  -5.502  0.00  0.00    +0.171 HD
ENDROOT
BRANCH   8  21
ATOM     21  C   UNL     1       2.656  -3.023  -7.855  0.00  0.00    -0.028 A 
ATOM     22  C   UNL     1       2.536  -4.144  -7.054  0.00  0.00    +0.054 A 
ATOM     23  C   UNL     1       2.028  -5.322  -7.579  0.00  0.00    +0.165 A 
ATOM     24  C   UNL     1       1.640  -5.377  -8.912  0.00  0.00    +0.201 A 
ATOM     25  C   UNL     1       1.762  -4.248  -9.714  0.00  0.00    +0.165 A 
ATOM     26  C   UNL     1       2.265  -3.072  -9.180  0.00  0.00    +0.054 A 
BRANCH  25  27
ATOM     27  O   UNL     1       1.383  -4.297 -11.019  0.00  0.00    -0.491 OA
ATOM     28  C   UNL     1       1.536  -3.099 -11.784  0.00  0.00    +0.277 C 
ENDBRANCH  25  27
BRANCH  24  29
ATOM     29  O   UNL     1       1.142  -6.532  -9.431  0.00  0.00    -0.501 OA
ATOM     30  H   UNL     1       0.182  -6.617  -9.353  0.00  0.00    +0.292 HD
ENDBRANCH  24  29
BRANCH  23  31
ATOM     31  O   UNL     1       1.911  -6.424  -6.790  0.00  0.00    -0.491 OA
ATOM     32  C   UNL     1       2.331  -6.296  -5.430  0.00  0.00    +0.277 C 
ENDBRANCH  23  31
ENDBRANCH   8  21
BRANCH   1  33
ATOM     33  S   UNL     1      -0.239  -0.022  -2.723  0.00  0.00    -0.085 S 
BRANCH  33  34
ATOM     34  C   UNL     1       0.718  -0.497  -1.257  0.00  0.00    +0.051 C 
ATOM     35  C   UNL     1       0.849  -2.021  -1.205  0.00  0.00    +0.019 C 
BRANCH  34  37
ATOM     36  C   UNL     1      -0.019   1.526   0.010  0.00  0.00    +0.005 C 
ATOM     37  C   UNL     1       0.002  -0.004   0.002  0.00  0.00    +0.011 C 
ENDBRANCH  34  37
ENDBRANCH  33  34
ENDBRANCH   1  33
TORSDOF 7
