REMARK  Name = ZINC63472946
REMARK  3 active torsions:
REMARK  status: ('A' for Active; 'I' for Inactive)
REMARK    1  A    between atoms: C_7  and  C_10
REMARK    2  A    between atoms: C_10  and  C_11
REMARK    3  A    between atoms: N_19  and  C_22
REMARK                            x       y       z     vdW  Elec       q    Type
REMARK                         _______ _______ _______ _____ _____    ______ ____
ROOT
ATOM      1  C   UNL     1       0.457  -3.653  -1.462  0.00  0.00    +0.072 C 
ATOM      2  C   UNL     1      -0.435  -4.913  -1.478  0.00  0.00    +0.107 C 
ATOM      3  C   UNL     1      -1.353  -4.736  -2.720  0.00  0.00    +0.122 C 
ATOM      4  C   UNL     1      -2.734  -4.612  -2.117  0.00  0.00    +0.228 C 
ATOM      5  O   UNL     1      -3.762  -4.466  -2.744  0.00  0.00    -0.275 OA
ATOM      6  N   UNL     1      -2.646  -4.689  -0.784  0.00  0.00    -0.238 N 
ATOM      7  C   UNL     1      -1.392  -4.863  -0.308  0.00  0.00    +0.227 C 
ATOM      8  O   UNL     1      -1.077  -4.960   0.858  0.00  0.00    -0.275 OA
ATOM      9  C   UNL     1      -0.920  -3.398  -3.331  0.00  0.00    +0.136 C 
ATOM     10  N   UNL     1      -0.310  -2.630  -2.221  0.00  0.00    -0.295 NA
ATOM     11  C   UNL     1       0.031  -3.599  -4.476  0.00  0.00    +0.005 A 
ATOM     12  C   UNL     1       1.267  -4.196  -4.588  0.00  0.00    +0.027 A 
ATOM     13  C   UNL     1       1.914  -4.226  -5.812  0.00  0.00    +0.041 A 
ATOM     14  C   UNL     1       1.316  -3.652  -6.920  0.00  0.00    +0.022 A 
ATOM     15  C   UNL     1       0.079  -3.051  -6.811  0.00  0.00    +0.025 A 
ATOM     16  C   UNL     1      -0.579  -3.017  -5.584  0.00  0.00    +0.039 A 
ATOM     17  N   UNL     1      -1.815  -2.475  -5.225  0.00  0.00    -0.283 N 
ATOM     18  C   UNL     1      -2.090  -2.657  -3.919  0.00  0.00    +0.243 C 
ATOM     19  O   UNL     1      -3.086  -2.294  -3.331  0.00  0.00    -0.273 OA
ATOM     20 CL   UNL     1       3.471  -4.979  -5.955  0.00  0.00    -0.084 Cl
ATOM     21  H   UNL     1      -1.013  -2.199  -1.638  0.00  0.00    +0.124 HD
ATOM     22  H   UNL     1      -2.408  -2.021  -5.845  0.00  0.00    +0.155 HD
ENDROOT
BRANCH   6  23
ATOM     23  C   UNL     1      -3.816  -4.598   0.093  0.00  0.00    +0.084 C 
ATOM     24  C   UNL     1      -3.654  -3.404   1.037  0.00  0.00    +0.023 C 
ATOM     25  C   UNL     1      -4.875  -3.309   1.954  0.00  0.00    +0.002 C 
ATOM     26  C   UNL     1      -4.998  -4.595   2.774  0.00  0.00    +0.000 C 
ATOM     27  C   UNL     1      -5.160  -5.788   1.831  0.00  0.00    +0.002 C 
ATOM     28  C   UNL     1      -3.939  -5.883   0.914  0.00  0.00    +0.023 C 
ENDBRANCH   6  23
BRANCH   1  29
ATOM     29  C   UNL     1       0.691  -3.186  -0.024  0.00  0.00    +0.052 C 
BRANCH  29  36
ATOM     30  C   UNL     1      -0.016   1.348   0.009  0.00  0.00    +0.001 A 
ATOM     31  C   UNL     1       1.166   2.101   0.002  0.00  0.00    +0.002 A 
ATOM     32  C   UNL     1       2.391   1.535  -0.013  0.00  0.00    +0.026 A 
ATOM     33  C   UNL     1       2.529   0.120  -0.022  0.00  0.00    +0.043 A 
ATOM     34  N   UNL     1       3.587  -0.654  -0.037  0.00  0.00    -0.380 N 
ATOM     35  C   UNL     1       3.143  -2.053  -0.041  0.00  0.00    +0.144 C 
ATOM     36  C   UNL     1       1.631  -2.008  -0.025  0.00  0.00    -0.040 C 
ATOM     37  C   UNL     1       1.295  -0.698  -0.014  0.00  0.00    -0.001 A 
ATOM     38  C   UNL     1       0.002  -0.004   0.002  0.00  0.00    +0.010 A 
ATOM     39  H   UNL     1       4.509  -0.353  -0.045  0.00  0.00    +0.160 HD
ENDBRANCH  29  36
ENDBRANCH   1  29
TORSDOF 3
