REMARK  Name = ZINC13019988
REMARK  4 active torsions:
REMARK  status: ('A' for Active; 'I' for Inactive)
REMARK    1  A    between atoms: C_6  and  N_7
REMARK    2  A    between atoms: N_7  and  S_8
REMARK    3  A    between atoms: S_8  and  C_11
REMARK    4  A    between atoms: C_15  and  C_17
REMARK                            x       y       z     vdW  Elec       q    Type
REMARK                         _______ _______ _______ _____ _____    ______ ____
ROOT
ATOM      1  S   UNL     1       0.081  -0.000   0.082  0.00  0.00    +0.092 S 
ATOM      2  O   UNL     1      -1.238  -0.465   0.337  0.00  0.00    -0.148 OA
ATOM      3  O   UNL     1       0.831  -0.421  -1.049  0.00  0.00    -0.148 OA
ENDROOT
BRANCH   1   4
ATOM      4  C   UNL     1       1.041  -0.405   1.502  0.00  0.00    +0.111 A 
ATOM      5  C   UNL     1       2.422  -0.435   1.416  0.00  0.00    +0.030 A 
ATOM      6  C   UNL     1       3.184  -0.747   2.527  0.00  0.00    +0.023 A 
ATOM      7  C   UNL     1       2.570  -1.041   3.729  0.00  0.00    +0.055 A 
ATOM      8  C   UNL     1       1.176  -1.018   3.821  0.00  0.00    +0.083 A 
ATOM      9  C   UNL     1       0.414  -0.697   2.695  0.00  0.00    +0.045 A 
ATOM     10 CL   UNL     1       3.528  -1.439   5.121  0.00  0.00    -0.083 Cl
BRANCH   8  11
ATOM     11  C   UNL     1       0.512  -1.331   5.102  0.00  0.00    +0.388 C 
ATOM     12  O   UNL     1       1.178  -1.610   6.079  0.00  0.00    -0.241 OA
ATOM     13  O   UNL     1      -0.832  -1.307   5.187  0.00  0.00    -0.241 OA
ENDBRANCH   8  11
ENDBRANCH   1   4
BRANCH   1  14
ATOM     14  N   UNL     1      -0.006   1.652   0.004  0.00  0.00    -0.098 NA
BRANCH  14  20
ATOM     15  C   UNL     1      -1.861   1.944   1.522  0.00  0.00    +0.029 A 
ATOM     16  C   UNL     1      -2.477   2.649   2.538  0.00  0.00    +0.043 A 
ATOM     17  C   UNL     1      -1.879   3.783   3.057  0.00  0.00    +0.159 A 
ATOM     18  C   UNL     1      -0.656   4.213   2.562  0.00  0.00    +0.160 A 
ATOM     19  C   UNL     1      -0.034   3.506   1.549  0.00  0.00    +0.068 A 
ATOM     20  C   UNL     1      -0.634   2.368   1.028  0.00  0.00    +0.077 A 
ATOM     21  F   UNL     1      -0.073   5.321   3.069  0.00  0.00    -0.202 F 
ATOM     22  F   UNL     1      -2.486   4.474   4.047  0.00  0.00    -0.202 F 
ENDBRANCH  14  20
ENDBRANCH   1  14
TORSDOF 4
