REMARK  Name = ZINC13120944
REMARK  7 active torsions:
REMARK  status: ('A' for Active; 'I' for Inactive)
REMARK    1  A    between atoms: C_2  and  C_3
REMARK    2  A    between atoms: C_3  and  N_4
REMARK    3  A    between atoms: C_5  and  C_26
REMARK    4  A    between atoms: C_8  and  S_9
REMARK    5  A    between atoms: S_9  and  C_10
REMARK    6  A    between atoms: C_10  and  C_11
REMARK    7  A    between atoms: N_13  and  C_14
REMARK                            x       y       z     vdW  Elec       q    Type
REMARK                         _______ _______ _______ _____ _____    ______ ____
ROOT
ATOM      1  N   UNL     1       7.327  -0.471  -0.650  0.00  0.00    -0.299 N 
ATOM      2  C   UNL     1       6.171  -0.365   0.072  0.00  0.00    +0.179 A 
ATOM      3  N   UNL     1       6.294  -1.135   1.116  0.00  0.00    -0.129 NA
ATOM      4  N   UNL     1       7.442  -1.713   1.106  0.00  0.00    -0.122 NA
ATOM      5  C   UNL     1       8.120  -1.339   0.046  0.00  0.00    +0.192 A 
ENDROOT
BRANCH   2   6
ATOM      6  C   UNL     1       4.974   0.480  -0.278  0.00  0.00    +0.278 C 
ATOM      7  C   UNL     1       4.929   1.716   0.631  0.00  0.00    +0.281 C 
ATOM      8  O   UNL     1       3.776   2.489   0.281  0.00  0.00    -0.484 OA
ATOM      9  C   UNL     1       2.608   1.807   0.126  0.00  0.00    +0.162 A 
ATOM     10  C   UNL     1       1.407   2.501   0.148  0.00  0.00    +0.049 A 
ATOM     11  C   UNL     1       0.213   1.824  -0.014  0.00  0.00    +0.004 A 
ATOM     12  C   UNL     1       0.212   0.453  -0.199  0.00  0.00    +0.004 A 
ATOM     13  C   UNL     1       1.405  -0.244  -0.220  0.00  0.00    +0.049 A 
ATOM     14  C   UNL     1       2.607   0.429  -0.056  0.00  0.00    +0.163 A 
ATOM     15  O   UNL     1       3.773  -0.272  -0.072  0.00  0.00    -0.474 OA
ENDBRANCH   2   6
BRANCH   1  16
ATOM     16  C   UNL     1       7.651   0.208  -1.907  0.00  0.00    +0.152 C 
BRANCH  16  18
ATOM     17  C   UNL     1       9.487   1.802  -2.130  0.00  0.00    +0.005 C 
ATOM     18  C   UNL     1       8.316   1.526  -1.610  0.00  0.00    -0.013 C 
ENDBRANCH  16  18
ENDBRANCH   1  16
BRANCH   5  19
ATOM     19  S   UNL     1       9.742  -1.863  -0.399  0.00  0.00    -0.077 S 
BRANCH  19  20
ATOM     20  C   UNL     1      10.101  -2.979   0.980  0.00  0.00    +0.173 C 
BRANCH  20  21
ATOM     21  C   UNL     1      11.479  -3.564   0.807  0.00  0.00    +0.227 C 
ATOM     22  O   UNL     1      12.152  -3.256  -0.153  0.00  0.00    -0.275 OA
ATOM     23  N   UNL     1      11.963  -4.429   1.721  0.00  0.00    -0.285 N 
ATOM     24  H   UNL     1      11.458  -4.616   2.527  0.00  0.00    +0.155 HD
BRANCH  23  25
ATOM     25  C   UNL     1      13.197  -5.057   1.506  0.00  0.00    +0.035 A 
ATOM     26  C   UNL     1      14.021  -5.356   2.585  0.00  0.00    +0.025 A 
ATOM     27  C   UNL     1      15.237  -5.975   2.380  0.00  0.00    +0.029 A 
ATOM     28  C   UNL     1      15.640  -6.299   1.093  0.00  0.00    +0.067 A 
ATOM     29  C   UNL     1      14.815  -6.000   0.007  0.00  0.00    +0.069 A 
ATOM     30  C   UNL     1      13.591  -5.384   0.217  0.00  0.00    +0.051 A 
ATOM     31  N   UNL     1      15.479  -6.439  -1.136  0.00  0.00    -0.306 N 
ATOM     32  H   UNL     1      15.151  -6.367  -2.046  0.00  0.00    +0.170 HD
ATOM     33  C   UNL     1      16.654  -6.980  -0.764  0.00  0.00    +0.325 A 
ATOM     34  O   UNL     1      17.476  -7.460  -1.522  0.00  0.00    -0.247 OA
ATOM     35  N   UNL     1      16.781  -6.912   0.575  0.00  0.00    -0.306 N 
ATOM     36  H   UNL     1      17.537  -7.233   1.091  0.00  0.00    +0.170 HD
ENDBRANCH  23  25
ENDBRANCH  20  21
ENDBRANCH  19  20
ENDBRANCH   5  19
TORSDOF 7
