REMARK  Name = ZINC38598692
REMARK  6 active torsions:
REMARK  status: ('A' for Active; 'I' for Inactive)
REMARK    1  A    between atoms: C_3  and  C_6
REMARK    2  A    between atoms: C_11  and  C_13
REMARK    3  A    between atoms: C_13  and  S_14
REMARK    4  A    between atoms: S_14  and  C_15
REMARK    5  A    between atoms: N_20  and  C_21
REMARK    6  A    between atoms: C_24  and  C_27
REMARK                            x       y       z     vdW  Elec       q    Type
REMARK                         _______ _______ _______ _____ _____    ______ ____
ROOT
ATOM      1  C   UNL     1       9.717   8.379  -0.032  0.00  0.00    +0.203 C 
ATOM      2  N   UNL     1       9.121   9.039   1.155  0.00  0.00    -0.320 NA
ATOM      3  N   UNL     1       8.675  10.335   0.614  0.00  0.00    +0.411 N 
ATOM      4  N   UNL     1       8.231   9.986  -0.743  0.00  0.00    -0.265 NA
ATOM      5  N   UNL     1       9.127   9.049  -1.203  0.00  0.00    -0.254 N 
ATOM      6  H   UNL     1       8.340   8.508   1.510  0.00  0.00    +0.106 HD
ATOM      7  H   UNL     1       7.909  10.705   1.156  0.00  0.00    -0.031 HD
ATOM      8  H   UNL     1       7.293   9.616  -0.732  0.00  0.00    +0.125 HD
ATOM      9  H   UNL     1       9.441  10.991   0.581  0.00  0.00    -0.031 HD
ENDROOT
BRANCH   5  10
ATOM     10  C   UNL     1       9.422   8.780  -2.534  0.00  0.00    +0.045 A 
ATOM     11  C   UNL     1      10.351   7.793  -2.854  0.00  0.00    +0.025 A 
ATOM     12  C   UNL     1      10.643   7.526  -4.161  0.00  0.00    +0.017 A 
ATOM     13  C   UNL     1      10.008   8.247  -5.180  0.00  0.00    +0.063 A 
ATOM     14  C   UNL     1       9.076   9.239  -4.854  0.00  0.00    +0.017 A 
ATOM     15  C   UNL     1       8.784   9.496  -3.545  0.00  0.00    +0.025 A 
BRANCH  13  16
ATOM     16  C   UNL     1      10.321   7.963  -6.589  0.00  0.00    +0.387 C 
ATOM     17  O   UNL     1      11.137   7.097  -6.872  0.00  0.00    -0.241 OA
ATOM     18  O   UNL     1       9.765   8.594  -7.478  0.00  0.00    -0.241 OA
ENDBRANCH  13  16
ENDBRANCH   5  10
BRANCH   1  19
ATOM     19  S   UNL     1       9.298   6.614  -0.043  0.00  0.00    -0.114 S 
BRANCH  19  20
ATOM     20  C   UNL     1       7.484   6.593  -0.023  0.00  0.00    +0.168 C 
BRANCH  20  26
ATOM     21  C   UNL     1       3.741   1.824  -0.024  0.00  0.00    +0.087 A 
ATOM     22  C   UNL     1       4.789   0.944  -0.044  0.00  0.00    +0.077 A 
ATOM     23  S   UNL     1       6.173   2.075  -0.049  0.00  0.00    -0.060 S 
ATOM     24  C   UNL     1       5.227   3.591  -0.025  0.00  0.00    +0.165 A 
ATOM     25  N   UNL     1       5.676   4.906  -0.018  0.00  0.00    -0.264 N 
ATOM     26  C   UNL     1       6.998   5.167  -0.030  0.00  0.00    +0.229 C 
ATOM     27  O   UNL     1       7.796   4.254  -0.047  0.00  0.00    -0.275 OA
ATOM     28  N   UNL     1       3.990   3.131  -0.021  0.00  0.00    -0.224 NA
ATOM     29  H   UNL     1       5.037   5.636  -0.004  0.00  0.00    +0.157 HD
BRANCH  21  32
ATOM     30  C   UNL     1      -0.016   1.353   0.009  0.00  0.00    +0.008 A 
ATOM     31  C   UNL     1       1.179   2.041   0.002  0.00  0.00    +0.017 A 
ATOM     32  C   UNL     1       2.348   1.328  -0.013  0.00  0.00    +0.038 A 
ATOM     33  S   UNL     1       1.752  -0.355  -0.017  0.00  0.00    -0.095 S 
ATOM     34  C   UNL     1       0.002  -0.004   0.002  0.00  0.00    +0.046 A 
ENDBRANCH  21  32
ENDBRANCH  20  26
ENDBRANCH  19  20
ENDBRANCH   1  19
TORSDOF 6
