REMARK  Name = ZINC36496888
REMARK  16 active torsions:
REMARK  status: ('A' for Active; 'I' for Inactive)
REMARK    1  A    between atoms: C_1  and  C_2
REMARK    2  A    between atoms: C_2  and  C_3
REMARK    3  A    between atoms: C_3  and  C_4
REMARK    4  A    between atoms: C_4  and  N_5
REMARK    5  A    between atoms: C_6  and  C_8
REMARK    6  A    between atoms: C_8  and  C_10
REMARK    7  A    between atoms: C_8  and  N_19
REMARK    8  A    between atoms: C_11  and  O_18
REMARK    9  A    between atoms: C_13  and  O_17
REMARK   10  A    between atoms: C_15  and  O_16
REMARK   11  A    between atoms: N_19  and  C_20
REMARK   12  A    between atoms: C_20  and  C_21
REMARK   13  A    between atoms: C_26  and  C_28
REMARK   14  A    between atoms: C_28  and  C_30
REMARK   15  A    between atoms: C_28  and  C_32
REMARK   16  A    between atoms: C_30  and  C_31
REMARK                            x       y       z     vdW  Elec       q    Type
REMARK                         _______ _______ _______ _____ _____    ______ ____
ROOT
ATOM      1  C   UNL     1       2.376  -4.733  -4.031  0.00  0.00    +0.200 C 
ENDROOT
BRANCH   1   2
ATOM      2  C   UNL     1       3.463  -4.423  -5.028  0.00  0.00    +0.065 A 
ATOM      3  C   UNL     1       4.543  -5.282  -5.167  0.00  0.00    +0.129 A 
ATOM      4  C   UNL     1       5.543  -4.996  -6.084  0.00  0.00    +0.091 A 
ATOM      5  C   UNL     1       5.462  -3.852  -6.864  0.00  0.00    +0.124 A 
ATOM      6  C   UNL     1       4.381  -2.994  -6.726  0.00  0.00    +0.091 A 
ATOM      7  C   UNL     1       3.379  -3.282  -5.812  0.00  0.00    +0.129 A 
BRANCH   7   8
ATOM      8  O   UNL     1       2.318  -2.443  -5.681  0.00  0.00    -0.506 OA
ATOM      9  H   UNL     1       2.447  -1.745  -5.025  0.00  0.00    +0.292 HD
ENDBRANCH   7   8
BRANCH   5  10
ATOM     10  O   UNL     1       6.442  -3.572  -7.762  0.00  0.00    -0.507 OA
ATOM     11  H   UNL     1       6.288  -3.944  -8.642  0.00  0.00    +0.292 HD
ENDBRANCH   5  10
BRANCH   3  12
ATOM     12  O   UNL     1       4.622  -6.403  -4.402  0.00  0.00    -0.506 OA
ATOM     13  H   UNL     1       4.130  -7.156  -4.757  0.00  0.00    +0.292 HD
ENDBRANCH   3  12
ENDBRANCH   1   2
BRANCH   1  15
ATOM     14  N   UNL     1       3.728  -3.694  -2.240  0.00  0.00    -0.313 N 
ATOM     15  C   UNL     1       2.953  -4.722  -2.639  0.00  0.00    +0.238 C 
ATOM     16  O   UNL     1       2.721  -5.637  -1.879  0.00  0.00    -0.273 OA
ATOM     17  H   UNL     1       3.914  -2.961  -2.848  0.00  0.00    +0.149 HD
BRANCH  14  18
ATOM     18  C   UNL     1       4.289  -3.682  -0.886  0.00  0.00    +0.104 C 
BRANCH  18  19
ATOM     19  C   UNL     1       5.123  -2.414  -0.691  0.00  0.00    +0.018 C 
BRANCH  19  21
ATOM     20  C   UNL     1       6.542  -1.134   0.918  0.00  0.00    +0.004 C 
ATOM     21  C   UNL     1       5.709  -2.402   0.722  0.00  0.00    -0.002 C 
ENDBRANCH  19  21
ENDBRANCH  18  19
ENDBRANCH  14  18
ENDBRANCH   1  15
BRANCH   1  22
ATOM     22  N   UNL     1       1.815  -6.056  -4.316  0.00  0.00    -0.278 N 
ATOM     23  C   UNL     1       0.969  -6.221  -5.352  0.00  0.00    +0.224 C 
ATOM     24  O   UNL     1       0.756  -5.301  -6.113  0.00  0.00    -0.275 OA
BRANCH  22  25
ATOM     25  C   UNL     1       2.174  -7.201  -3.475  0.00  0.00    +0.183 C 
BRANCH  25  26
ATOM     26  C   UNL     1       1.082  -7.443  -2.464  0.00  0.00    +0.122 A 
ATOM     27  C   UNL     1       0.189  -8.448  -2.497  0.00  0.00    +0.046 A 
ATOM     28  C   UNL     1      -0.643  -8.294  -1.365  0.00  0.00    +0.041 A 
ATOM     29  C   UNL     1      -0.209  -7.203  -0.708  0.00  0.00    +0.195 A 
ATOM     30  O   UNL     1       0.840  -6.696  -1.375  0.00  0.00    -0.466 OA
ENDBRANCH  25  26
ENDBRANCH  22  25
BRANCH  23  31
ATOM     31  C   UNL     1       0.288  -7.548  -5.566  0.00  0.00    +0.105 C 
BRANCH  31  32
ATOM     32  C   UNL     1      -1.196  -7.333  -5.713  0.00  0.00    -0.036 A 
ATOM     33  C   UNL     1      -1.683  -6.549  -6.742  0.00  0.00    +0.004 A 
ATOM     34  C   UNL     1      -3.044  -6.352  -6.876  0.00  0.00    +0.000 A 
ATOM     35  C   UNL     1      -3.919  -6.940  -5.982  0.00  0.00    +0.000 A 
ATOM     36  C   UNL     1      -3.433  -7.725  -4.954  0.00  0.00    +0.000 A 
ATOM     37  C   UNL     1      -2.072  -7.926  -4.822  0.00  0.00    +0.004 A 
ENDBRANCH  31  32
BRANCH  31  38
ATOM     38  C   UNL     1       0.837  -8.204  -6.835  0.00  0.00    +0.014 C 
ATOM     39  C   UNL     1       2.297  -8.604  -6.612  0.00  0.00    +0.005 C 
ENDBRANCH  31  38
ENDBRANCH  23  31
ENDBRANCH   1  22
TORSDOF 14
