REMARK  Name = ZINC06197884
REMARK  15 active torsions:
REMARK  status: ('A' for Active; 'I' for Inactive)
REMARK    1  A    between atoms: C_1  and  C_2
REMARK    2  A    between atoms: C_2  and  C_3
REMARK    3  A    between atoms: C_10  and  C_15
REMARK    4  A    between atoms: C_15  and  C_17
REMARK    5  A    between atoms: C_15  and  N_77
REMARK    6  A    between atoms: N_21  and  C_22
REMARK    7  A    between atoms: C_22  and  C_23
REMARK    8  A    between atoms: C_22  and  C_24
REMARK    9  A    between atoms: C_22  and  C_25
REMARK   10  A    between atoms: C_26  and  C_27
REMARK   11  A    between atoms: C_26  and  N_77
REMARK   12  A    between atoms: C_30  and  O_33
REMARK   13  A    between atoms: O_33  and  C_34
REMARK   14  A    between atoms: C_35  and  C_36
REMARK   15  A    between atoms: C_35  and  N_77
REMARK                            x       y       z     vdW  Elec       q    Type
REMARK                         _______ _______ _______ _____ _____    ______ ____
ROOT
ATOM      1  C   UNL     1       1.232   6.444   0.361  0.00  0.00    +0.039 C 
ENDROOT
BRANCH   1   9
ATOM      2  C   UNL     1      -1.086   0.746  -0.300  0.00  0.00    -0.047 A 
ATOM      3  C   UNL     1       0.119   0.070  -0.161  0.00  0.00    +0.005 A 
ATOM      4  C   UNL     1       1.294   0.762   0.045  0.00  0.00    +0.026 A 
ATOM      5  C   UNL     1       1.272   2.151   0.121  0.00  0.00    +0.049 A 
ATOM      6  C   UNL     1       0.048   2.832  -0.014  0.00  0.00    -0.001 A 
ATOM      7  C   UNL     1      -1.131   2.109  -0.223  0.00  0.00    +0.013 A 
ATOM      8  C   UNL     1       0.036   4.293   0.068  0.00  0.00    +0.017 A 
ATOM      9  C   UNL     1       1.210   4.940   0.272  0.00  0.00    +0.011 A 
ATOM     10  C   UNL     1       2.411   4.210   0.400  0.00  0.00    +0.251 A 
ATOM     11  O   UNL     1       3.455   4.812   0.582  0.00  0.00    -0.268 OA
ATOM     12  N   UNL     1       2.432   2.868   0.327  0.00  0.00    -0.322 N 
ATOM     13  H   UNL     1       3.301   2.382   0.422  0.00  0.00    +0.169 HD
BRANCH   2  15
ATOM     14  C   UNL     1      -2.995  -0.378   0.815  0.00  0.00    +0.009 C 
ATOM     15  C   UNL     1      -2.355  -0.032  -0.531  0.00  0.00    +0.032 C 
ENDBRANCH   2  15
ENDBRANCH   1   9
BRANCH   1  16
ATOM     16  C   UNL     1       1.654   6.859   1.748  0.00  0.00    +0.143 A 
ATOM     17  N   UNL     1       2.862   6.792   2.251  0.00  0.00    -0.115 NA
ATOM     18  N   UNL     1       2.816   7.240   3.458  0.00  0.00    -0.023 NA
ATOM     19  N   UNL     1       1.608   7.584   3.740  0.00  0.00    -0.043 NA
ATOM     20  N   UNL     1       0.862   7.364   2.711  0.00  0.00    -0.225 N 
BRANCH  20  21
ATOM     21  C   UNL     1      -0.578   7.617   2.610  0.00  0.00    +0.059 C 
ATOM     22  C   UNL     1      -1.299   6.319   2.239  0.00  0.00    +0.036 C 
ATOM     23  C   UNL     1      -1.102   8.125   3.955  0.00  0.00    +0.036 C 
ATOM     24  C   UNL     1      -0.837   8.670   1.531  0.00  0.00    +0.036 C 
ENDBRANCH  20  21
ENDBRANCH   1  16
BRANCH   1  25
ATOM     25  N   UNL     1       2.212   6.971  -0.612  0.00  0.00    +0.394 N 
ATOM     26  H   UNL     1       3.156   6.693  -0.320  0.00  0.00    -0.080 HD
BRANCH  25  27
ATOM     27  C   UNL     1       2.138   8.447  -0.655  0.00  0.00    -0.041 C 
BRANCH  27  28
ATOM     28  C   UNL     1       3.012   9.003   0.440  0.00  0.00    -0.064 A 
ATOM     29  C   UNL     1       2.451   9.381   1.646  0.00  0.00    +0.005 A 
ATOM     30  C   UNL     1       3.251   9.886   2.653  0.00  0.00    +0.046 A 
ATOM     31  C   UNL     1       4.616  10.025   2.449  0.00  0.00    +0.120 A 
ATOM     32  C   UNL     1       5.176   9.650   1.236  0.00  0.00    +0.046 A 
ATOM     33  C   UNL     1       4.372   9.140   0.234  0.00  0.00    +0.005 A 
BRANCH  31  34
ATOM     34  O   UNL     1       5.404  10.527   3.435  0.00  0.00    -0.495 OA
ATOM     35  C   UNL     1       4.760  10.892   4.657  0.00  0.00    +0.277 C 
ENDBRANCH  31  34
ENDBRANCH  27  28
ENDBRANCH  25  27
BRANCH  25  36
ATOM     36  C   UNL     1       1.941   6.414  -1.954  0.00  0.00    -0.045 C 
BRANCH  36  37
ATOM     37  C   UNL     1       3.158   6.666  -2.846  0.00  0.00    +0.102 C 
ATOM     38  C   UNL     1       2.878   6.182  -4.287  0.00  0.00    +0.032 C 
ATOM     39  C   UNL     1       4.229   5.595  -4.754  0.00  0.00    +0.030 C 
ATOM     40  C   UNL     1       5.164   5.794  -3.541  0.00  0.00    +0.160 C 
ATOM     41  O   UNL     1       4.281   5.875  -2.400  0.00  0.00    -0.378 OA
ENDBRANCH  36  37
ENDBRANCH  25  36
ENDBRANCH   1  25
TORSDOF 10
