REMARK  Name = ZINC09242761
REMARK  4 active torsions:
REMARK  status: ('A' for Active; 'I' for Inactive)
REMARK    1  A    between atoms: C_3  and  C_10
REMARK    2  A    between atoms: C_5  and  N_7
REMARK    3  A    between atoms: C_18  and  C_20
REMARK    4  A    between atoms: C_20  and  C_22
REMARK                            x       y       z     vdW  Elec       q    Type
REMARK                         _______ _______ _______ _____ _____    ______ ____
ROOT
ATOM      1  C   UNL     1       4.708  -2.578  -0.839  0.00  0.00    +0.016 C 
ATOM      2  C   UNL     1       4.213  -2.705   0.613  0.00  0.00    -0.047 C 
ATOM      3  C   UNL     1       5.135  -3.637   1.416  0.00  0.00    +0.052 C 
ATOM      4  S   UNL     1       6.244  -2.437   2.262  0.00  0.00    -0.181 S 
ATOM      5  C   UNL     1       5.507  -0.876   1.631  0.00  0.00    -0.005 C 
ATOM      6  C   UNL     1       3.821  -0.463   0.011  0.00  0.00    +0.052 C 
ATOM      7  C   UNL     1       4.170  -1.200  -1.286  0.00  0.00    +0.069 C 
ATOM      8  C   UNL     1       2.357  -0.119   0.062  0.00  0.00    -0.024 A 
ATOM      9  C   UNL     1       1.207  -0.876   0.036  0.00  0.00    +0.043 A 
ATOM     10  C   UNL     1      -0.031  -0.258   0.101  0.00  0.00    +0.124 A 
ATOM     11  C   UNL     1      -0.107   1.122   0.192  0.00  0.00    +0.040 A 
ATOM     12  C   UNL     1       1.044   1.882   0.219  0.00  0.00    +0.026 A 
ATOM     13  C   UNL     1       2.292   1.267   0.155  0.00  0.00    +0.036 A 
ATOM     14  N   UNL     1       3.579   1.811   0.167  0.00  0.00    -0.286 N 
ATOM     15  C   UNL     1       4.532   0.863   0.087  0.00  0.00    +0.212 C 
ATOM     16  O   UNL     1       5.731   1.042   0.079  0.00  0.00    -0.277 OA
ATOM     17  F   UNL     1      -1.161  -0.998   0.075  0.00  0.00    -0.205 F 
ATOM     18  H   UNL     1       3.765   2.761   0.227  0.00  0.00    +0.155 HD
ATOM     19  N   UNL     1       4.185  -1.316   1.117  0.00  0.00    +0.401 N 
ATOM     20  H   UNL     1       3.488  -1.239   1.868  0.00  0.00    -0.078 HD
ENDROOT
BRANCH   1  23
ATOM     21  C   UNL     1       2.232  -4.878  -2.523  0.00  0.00    +0.002 A 
ATOM     22  C   UNL     1       2.763  -3.873  -1.735  0.00  0.00    +0.004 A 
ATOM     23  C   UNL     1       4.130  -3.676  -1.694  0.00  0.00    -0.043 A 
ATOM     24  C   UNL     1       4.968  -4.490  -2.433  0.00  0.00    +0.036 A 
ATOM     25  C   UNL     1       4.438  -5.498  -3.217  0.00  0.00    +0.126 A 
ATOM     26  C   UNL     1       3.070  -5.691  -3.262  0.00  0.00    +0.033 A 
BRANCH  25  27
ATOM     27  N   UNL     1       5.336  -6.369  -4.008  0.00  0.00    +0.056 N 
ATOM     28  O   UNL     1       6.541  -6.199  -3.968  0.00  0.00    -0.126 OA
ATOM     29  O   UNL     1       4.869  -7.257  -4.699  0.00  0.00    -0.126 OA
ENDBRANCH  25  27
ENDBRANCH   1  23
BRANCH   7  30
ATOM     30  C   UNL     1       2.938  -1.371  -2.138  0.00  0.00    +0.173 C 
ATOM     31  O   UNL     1       1.865  -0.958  -1.744  0.00  0.00    -0.291 OA
BRANCH  30  32
ATOM     32  C   UNL     1       3.030  -2.013  -3.393  0.00  0.00    +0.055 A 
ATOM     33  C   UNL     1       2.026  -2.275  -4.320  0.00  0.00    +0.019 A 
ATOM     34  C   UNL     1       2.396  -2.915  -5.473  0.00  0.00    +0.008 A 
ATOM     35  C   UNL     1       3.698  -3.268  -5.650  0.00  0.00    +0.046 A 
ATOM     36  S   UNL     1       4.463  -2.705  -4.199  0.00  0.00    -0.094 S 
ENDBRANCH  30  32
ENDBRANCH   7  30
TORSDOF 4
