REMARK  Name = ZINC39684906
REMARK  8 active torsions:
REMARK  status: ('A' for Active; 'I' for Inactive)
REMARK    1  A    between atoms: C_1  and  O_2
REMARK    2  A    between atoms: O_2  and  C_3
REMARK    3  A    between atoms: C_6  and  C_13
REMARK    4  A    between atoms: C_8  and  C_9
REMARK    5  A    between atoms: C_17  and  C_26
REMARK    6  A    between atoms: N_28  and  C_29
REMARK    7  A    between atoms: C_29  and  C_30
REMARK    8  A    between atoms: C_33  and  C_36
REMARK                            x       y       z     vdW  Elec       q    Type
REMARK                         _______ _______ _______ _____ _____    ______ ____
ROOT
ATOM      1  C   UNL     1       2.497  -2.496  -4.362  0.00  0.00    +0.247 C 
ATOM      2  O   UNL     1       2.638  -3.703  -4.376  0.00  0.00    -0.270 OA
ATOM      3  N   UNL     1       2.956  -1.751  -5.387  0.00  0.00    -0.296 N 
ATOM      4  C   UNL     1       2.993  -0.274  -5.491  0.00  0.00    +0.121 C 
ATOM      5  C   UNL     1       4.342   0.036  -6.178  0.00  0.00    +0.100 C 
ATOM      6  C   UNL     1       4.694  -1.248  -6.948  0.00  0.00    -0.004 C 
ATOM      7  C   UNL     1       3.545  -2.226  -6.662  0.00  0.00    +0.115 C 
ATOM      8  C   UNL     1       6.010  -1.826  -6.437  0.00  0.00    -0.010 C 
ATOM      9  C   UNL     1       6.367  -3.070  -7.256  0.00  0.00    -0.082 C 
ATOM     10  N   UNL     1       6.487  -2.707  -8.674  0.00  0.00    +0.379 N 
ATOM     11  C   UNL     1       5.191  -2.238  -9.181  0.00  0.00    -0.082 C 
ATOM     12  C   UNL     1       4.784  -0.960  -8.444  0.00  0.00    -0.010 C 
ATOM     13  H   UNL     1       7.171  -1.973  -8.775  0.00  0.00    -0.086 HD
ATOM     14  H   UNL     1       6.782  -3.514  -9.202  0.00  0.00    -0.086 HD
ENDROOT
BRANCH   1  18
ATOM     15  C   UNL     1       0.555  -0.625  -1.081  0.00  0.00    +0.132 A 
ATOM     16  C   UNL     1       0.573  -0.001  -2.324  0.00  0.00    +0.047 A 
ATOM     17  C   UNL     1       1.201  -0.605  -3.390  0.00  0.00    +0.016 A 
ATOM     18  C   UNL     1       1.822  -1.845  -3.222  0.00  0.00    +0.038 A 
ATOM     19  C   UNL     1       1.802  -2.469  -1.971  0.00  0.00    +0.029 A 
ATOM     20  C   UNL     1       1.175  -1.857  -0.909  0.00  0.00    +0.097 A 
BRANCH  20  21
ATOM     21  C   UNL     1       1.158  -2.525   0.442  0.00  0.00    +0.421 C 
ATOM     22  F   UNL     1       1.841  -3.744   0.367  0.00  0.00    -0.166 F 
ATOM     23  F   UNL     1       1.782  -1.697   1.380  0.00  0.00    -0.166 F 
ATOM     24  F   UNL     1      -0.166  -2.756   0.831  0.00  0.00    -0.166 F 
ENDBRANCH  20  21
BRANCH  15  26
ATOM     25  C   UNL     1      -0.683   1.238  -0.280  0.00  0.00    +0.277 C 
ATOM     26  O   UNL     1      -0.066  -0.027  -0.033  0.00  0.00    -0.495 OA
ENDBRANCH  15  26
ENDBRANCH   1  18
BRANCH   5  27
ATOM     27  C   UNL     1       5.398   0.339  -5.147  0.00  0.00    +0.218 C 
ATOM     28  O   UNL     1       5.390  -0.242  -4.082  0.00  0.00    -0.275 OA
ATOM     29  N   UNL     1       6.352   1.254  -5.408  0.00  0.00    -0.311 N 
ATOM     30  H   UNL     1       6.358   1.719  -6.260  0.00  0.00    +0.149 HD
BRANCH  29  31
ATOM     31  C   UNL     1       7.379   1.549  -4.406  0.00  0.00    +0.139 C 
BRANCH  31  32
ATOM     32  C   UNL     1       8.317   2.600  -4.941  0.00  0.00    -0.030 A 
ATOM     33  C   UNL     1       9.441   2.221  -5.654  0.00  0.00    +0.006 A 
ATOM     34  C   UNL     1      10.304   3.178  -6.147  0.00  0.00    +0.019 A 
ATOM     35  C   UNL     1      10.041   4.531  -5.926  0.00  0.00    +0.052 A 
ATOM     36  C   UNL     1       8.904   4.906  -5.206  0.00  0.00    +0.019 A 
ATOM     37  C   UNL     1       8.047   3.939  -4.723  0.00  0.00    +0.006 A 
BRANCH  35  38
ATOM     38  C   UNL     1      10.932   5.529  -6.434  0.00  0.00    +0.099 C 
ATOM     39  N   UNL     1      11.639   6.322  -6.838  0.00  0.00    -0.191 NA
ENDBRANCH  35  38
ENDBRANCH  31  32
ENDBRANCH  29  31
ENDBRANCH   5  27
TORSDOF 7
