REMARK  Name = ZINC65260148
REMARK  8 active torsions:
REMARK  status: ('A' for Active; 'I' for Inactive)
REMARK    1  A    between atoms: C_1  and  C_2
REMARK    2  A    between atoms: C_2  and  C_3
REMARK    3  A    between atoms: C_2  and  C_4
REMARK    4  A    between atoms: C_2  and  N_5
REMARK    5  A    between atoms: N_23  and  C_24
REMARK    6  A    between atoms: C_24  and  C_25
REMARK    7  A    between atoms: C_28  and  O_31
REMARK    8  A    between atoms: O_31  and  C_32
REMARK                            x       y       z     vdW  Elec       q    Type
REMARK                         _______ _______ _______ _____ _____    ______ ____
ROOT
ATOM      1  N   UNL     1       0.870  -0.553  -1.446  0.00  0.00    -0.370 N 
ATOM      2  C   UNL     1       2.104  -0.234  -1.666  0.00  0.00    +0.098 C 
ATOM      3  N   UNL     1       2.865   0.424  -0.718  0.00  0.00    -0.301 N 
ATOM      4  C   UNL     1       3.771   1.399  -1.169  0.00  0.00    +0.053 A 
ATOM      5  C   UNL     1       4.376   2.254  -0.261  0.00  0.00    +0.025 A 
ATOM      6  C   UNL     1       5.273   3.208  -0.704  0.00  0.00    +0.002 A 
ATOM      7  C   UNL     1       5.570   3.312  -2.050  0.00  0.00    +0.002 A 
ATOM      8  C   UNL     1       4.968   2.466  -2.963  0.00  0.00    +0.025 A 
ATOM      9  C   UNL     1       4.064   1.508  -2.528  0.00  0.00    +0.049 A 
ATOM     10  N   UNL     1       3.442   0.663  -3.458  0.00  0.00    -0.329 N 
ATOM     11  C   UNL     1       2.792  -0.567  -2.973  0.00  0.00    +0.102 C 
ATOM     12  C   UNL     1       3.837  -1.655  -2.743  0.00  0.00    +0.036 C 
ATOM     13  C   UNL     1       4.555  -1.963  -4.059  0.00  0.00    +0.022 C 
ATOM     14  C   UNL     1       3.536  -2.469  -5.085  0.00  0.00    +0.109 C 
ATOM     15  N   UNL     1       2.456  -1.480  -5.208  0.00  0.00    -0.283 N 
ATOM     16  C   UNL     1       1.757  -1.044  -3.991  0.00  0.00    +0.142 C 
ATOM     17  C   UNL     1       2.114  -0.983  -6.413  0.00  0.00    +0.303 C 
ATOM     18  O   UNL     1       2.765  -1.273  -7.398  0.00  0.00    -0.253 OA
ATOM     19  N   UNL     1       1.050  -0.164  -6.527  0.00  0.00    -0.295 N 
ATOM     20  H   UNL     1       0.332  -0.932  -2.159  0.00  0.00    +0.161 HD
ATOM     21  H   UNL     1       3.441   0.883  -4.403  0.00  0.00    +0.147 HD
ATOM     22  H   UNL     1       0.575   0.127  -5.732  0.00  0.00    +0.151 HD
ATOM     23  H   UNL     1       2.778   0.220   0.227  0.00  0.00    +0.153 HD
ENDROOT
BRANCH   1  25
ATOM     24  C   UNL     1       0.455   1.123   0.285  0.00  0.00    +0.033 C 
ATOM     25  C   UNL     1       0.283  -0.342  -0.120  0.00  0.00    +0.031 C 
ATOM     26  C   UNL     1       0.990  -1.239   0.898  0.00  0.00    +0.033 C 
ATOM     27  C   UNL     1      -1.206  -0.689  -0.160  0.00  0.00    +0.033 C 
ENDBRANCH   1  25
BRANCH  19  28
ATOM     28  C   UNL     1       0.610   0.286  -7.849  0.00  0.00    +0.141 C 
BRANCH  28  29
ATOM     29  C   UNL     1      -0.591   1.185  -7.700  0.00  0.00    -0.030 A 
ATOM     30  C   UNL     1      -1.863   0.645  -7.710  0.00  0.00    +0.009 A 
ATOM     31  C   UNL     1      -2.965   1.467  -7.574  0.00  0.00    +0.046 A 
ATOM     32  C   UNL     1      -2.794   2.836  -7.427  0.00  0.00    +0.120 A 
ATOM     33  C   UNL     1      -1.516   3.376  -7.418  0.00  0.00    +0.046 A 
ATOM     34  C   UNL     1      -0.417   2.549  -7.549  0.00  0.00    +0.009 A 
BRANCH  32  35
ATOM     35  O   UNL     1      -3.876   3.647  -7.294  0.00  0.00    -0.495 OA
ATOM     36  C   UNL     1      -3.624   5.046  -7.147  0.00  0.00    +0.277 C 
ENDBRANCH  32  35
ENDBRANCH  28  29
ENDBRANCH  19  28
TORSDOF 4
