REMARK  Name = ZINC41584900
REMARK  6 active torsions:
REMARK  status: ('A' for Active; 'I' for Inactive)
REMARK    1  A    between atoms: C_4  and  C_7
REMARK    2  A    between atoms: C_7  and  N_8
REMARK    3  A    between atoms: N_11  and  C_14
REMARK    4  A    between atoms: C_14  and  C_15
REMARK    5  A    between atoms: C_16  and  O_33
REMARK    6  A    between atoms: C_23  and  C_24
REMARK                            x       y       z     vdW  Elec       q    Type
REMARK                         _______ _______ _______ _____ _____    ______ ____
ROOT
ATOM      1  C   UNL     1       6.833  -3.781   3.773  0.00  0.00    +0.051 A 
ATOM      2  C   UNL     1       6.800  -5.151   3.564  0.00  0.00    +0.125 A 
ATOM      3  C   UNL     1       7.968  -5.905   3.627  0.00  0.00    +0.046 A 
ATOM      4  C   UNL     1       9.163  -5.300   3.896  0.00  0.00    +0.019 A 
ATOM      5  C   UNL     1       9.211  -3.921   4.108  0.00  0.00    +0.068 A 
ATOM      6  C   UNL     1       8.040  -3.149   4.043  0.00  0.00    +0.147 A 
ATOM      7  O   UNL     1       8.336  -1.852   4.274  0.00  0.00    -0.451 OA
ATOM      8  C   UNL     1       9.659  -1.669   4.495  0.00  0.00    +0.176 C 
ATOM      9  C   UNL     1      10.272  -0.487   4.756  0.00  0.00    +0.059 C 
ATOM     10  C   UNL     1      10.310  -2.986   4.412  0.00  0.00    +0.231 C 
ATOM     11  O   UNL     1      11.492  -3.244   4.551  0.00  0.00    -0.283 OA
ENDROOT
BRANCH   9  12
ATOM     12  C   UNL     1       9.508   0.766   4.696  0.00  0.00    -0.007 A 
ATOM     13  C   UNL     1       8.109   0.740   4.729  0.00  0.00    +0.009 A 
ATOM     14  C   UNL     1       7.400   1.920   4.672  0.00  0.00    +0.001 A 
ATOM     15  C   UNL     1       8.067   3.130   4.583  0.00  0.00    +0.001 A 
ATOM     16  C   UNL     1       9.449   3.167   4.549  0.00  0.00    +0.016 A 
ATOM     17  C   UNL     1      10.175   1.994   4.611  0.00  0.00    +0.025 A 
ATOM     18 BR   UNL     1      12.065   2.046   4.572  0.00  0.00    -0.050 Br
ENDBRANCH   9  12
BRANCH   2  19
ATOM     19  O   UNL     1       5.618  -5.762   3.296  0.00  0.00    -0.506 OA
ATOM     20  H   UNL     1       5.405  -5.810   2.354  0.00  0.00    +0.292 HD
ENDBRANCH   2  19
BRANCH   1  21
ATOM     21  C   UNL     1       5.561  -2.977   3.703  0.00  0.00    +0.126 C 
BRANCH  21  25
ATOM     22  N   UNL     1       4.828  -0.550   0.320  0.00  0.00    +0.384 N 
ATOM     23  C   UNL     1       3.802  -1.529   0.703  0.00  0.00    -0.063 C 
ATOM     24  C   UNL     1       4.006  -1.938   2.163  0.00  0.00    +0.066 C 
ATOM     25  N   UNL     1       5.347  -2.520   2.323  0.00  0.00    -0.301 NA
ATOM     26  C   UNL     1       6.384  -1.559   1.920  0.00  0.00    +0.066 C 
ATOM     27  C   UNL     1       6.160  -1.153   0.462  0.00  0.00    -0.063 C 
ATOM     28  H   UNL     1       4.760   0.259   0.919  0.00  0.00    -0.081 HD
BRANCH  22  29
ATOM     29  C   UNL     1       4.621  -0.145  -1.077  0.00  0.00    -0.043 C 
BRANCH  29  33
ATOM     30  C   UNL     1       0.898   1.921  -1.424  0.00  0.00    +0.000 A 
ATOM     31  C   UNL     1       2.055   2.624  -1.147  0.00  0.00    +0.000 A 
ATOM     32  C   UNL     1       3.260   1.956  -1.035  0.00  0.00    +0.002 A 
ATOM     33  C   UNL     1       3.307   0.584  -1.198  0.00  0.00    -0.064 A 
ATOM     34  C   UNL     1       2.150  -0.120  -1.474  0.00  0.00    +0.002 A 
ATOM     35  C   UNL     1       0.945   0.549  -1.587  0.00  0.00    +0.000 A 
ENDBRANCH  29  33
ENDBRANCH  22  29
ENDBRANCH  21  25
ENDBRANCH   1  21
TORSDOF 6
