REMARK  Name = ZINC39972866
REMARK  8 active torsions:
REMARK  status: ('A' for Active; 'I' for Inactive)
REMARK    1  A    between atoms: C_1  and  O_2
REMARK    2  A    between atoms: O_2  and  C_3
REMARK    3  A    between atoms: C_3  and  C_5
REMARK    4  A    between atoms: C_8  and  N_11
REMARK    5  A    between atoms: N_14  and  C_15
REMARK    6  A    between atoms: C_18  and  S_21
REMARK    7  A    between atoms: S_21  and  N_24
REMARK    8  A    between atoms: N_24  and  C_25
REMARK                            x       y       z     vdW  Elec       q    Type
REMARK                         _______ _______ _______ _____ _____    ______ ____
ROOT
ATOM      1  C   UNL     1      -3.592  -9.273  -0.555  0.00  0.00    +0.035 A 
ATOM      2  C   UNL     1      -4.669  -8.400  -0.480  0.00  0.00    +0.025 A 
ATOM      3  C   UNL     1      -5.953  -8.898  -0.372  0.00  0.00    +0.030 A 
ATOM      4  C   UNL     1      -6.166 -10.264  -0.340  0.00  0.00    +0.109 A 
ATOM      5  C   UNL     1      -5.096 -11.136  -0.415  0.00  0.00    +0.030 A 
ATOM      6  C   UNL     1      -3.810 -10.644  -0.528  0.00  0.00    +0.025 A 
ENDROOT
BRANCH   1  10
ATOM      7  N   UNL     1      -0.085  -9.026  -1.387  0.00  0.00    -0.269 N 
ATOM      8  C   UNL     1      -1.364  -9.450  -1.372  0.00  0.00    +0.308 C 
ATOM      9  O   UNL     1      -1.683 -10.443  -1.996  0.00  0.00    -0.252 OA
ATOM     10  N   UNL     1      -2.290  -8.772  -0.664  0.00  0.00    -0.269 N 
ATOM     11  H   UNL     1       0.185  -8.278  -0.831  0.00  0.00    +0.156 HD
ATOM     12  H   UNL     1      -2.054  -7.937  -0.231  0.00  0.00    +0.156 HD
BRANCH   7  16
ATOM     13  C   UNL     1       2.709 -10.927  -3.822  0.00  0.00    +0.059 A 
ATOM     14  C   UNL     1       1.378 -10.818  -4.236  0.00  0.00    +0.017 A 
ATOM     15  C   UNL     1       0.458 -10.189  -3.429  0.00  0.00    +0.024 A 
ATOM     16  C   UNL     1       0.850  -9.662  -2.202  0.00  0.00    +0.035 A 
ATOM     17  C   UNL     1       2.174  -9.768  -1.787  0.00  0.00    +0.024 A 
ATOM     18  C   UNL     1       3.099 -10.401  -2.587  0.00  0.00    +0.017 A 
BRANCH  13  19
ATOM     19  C   UNL     1       3.698 -11.600  -4.684  0.00  0.00    +0.339 C 
ATOM     20  O   UNL     1       4.853 -11.699  -4.320  0.00  0.00    -0.245 OA
BRANCH  19  22
ATOM     21  C   UNL     1       4.331 -12.745  -6.657  0.00  0.00    +0.280 C 
ATOM     22  O   UNL     1       3.321 -12.107  -5.874  0.00  0.00    -0.464 OA
ENDBRANCH  19  22
ENDBRANCH  13  19
ENDBRANCH   7  16
ENDBRANCH   1  10
BRANCH   4  23
ATOM     23  S   UNL     1      -7.806 -10.895  -0.204  0.00  0.00    +0.072 S 
ATOM     24  O   UNL     1      -7.706 -12.143   0.469  0.00  0.00    -0.150 OA
ATOM     25  O   UNL     1      -8.612  -9.830   0.282  0.00  0.00    -0.150 OA
BRANCH  23  26
ATOM     26  N   UNL     1      -8.333 -11.226  -1.738  0.00  0.00    -0.216 N 
ATOM     27  H   UNL     1      -8.556 -12.136  -1.989  0.00  0.00    +0.174 HD
BRANCH  26  28
ATOM     28  C   UNL     1      -8.455 -10.194  -2.672  0.00  0.00    +0.050 A 
ATOM     29  C   UNL     1      -9.066  -8.999  -2.313  0.00  0.00    +0.026 A 
ATOM     30  C   UNL     1      -9.187  -7.980  -3.238  0.00  0.00    +0.023 A 
ATOM     31  C   UNL     1      -8.700  -8.149  -4.522  0.00  0.00    +0.059 A 
ATOM     32  C   UNL     1      -8.091  -9.338  -4.884  0.00  0.00    +0.061 A 
ATOM     33  C   UNL     1      -7.962 -10.359  -3.960  0.00  0.00    +0.046 A 
ATOM     34 CL   UNL     1      -7.482  -9.546  -6.496  0.00  0.00    -0.082 Cl
ATOM     35 CL   UNL     1      -8.853  -6.866  -5.682  0.00  0.00    -0.082 Cl
ENDBRANCH  26  28
ENDBRANCH  23  26
ENDBRANCH   4  23
TORSDOF 7
