REMARK  Name = ZINC40142961
REMARK  11 active torsions:
REMARK  status: ('A' for Active; 'I' for Inactive)
REMARK    1  A    between atoms: N_13  and  C_14
REMARK    2  A    between atoms: C_14  and  C_15
REMARK    3  A    between atoms: C_15  and  C_17
REMARK    4  A    between atoms: C_15  and  O_33
REMARK    5  A    between atoms: C_17  and  N_18
REMARK    6  A    between atoms: N_18  and  C_19
REMARK    7  A    between atoms: N_18  and  S_23
REMARK    8  A    between atoms: C_19  and  C_20
REMARK    9  A    between atoms: C_20  and  C_21
REMARK   10  A    between atoms: C_21  and  O_22
REMARK   11  A    between atoms: S_23  and  C_26
REMARK                            x       y       z     vdW  Elec       q    Type
REMARK                         _______ _______ _______ _____ _____    ______ ____
ROOT
ATOM      1  C   UNL     1       5.233  -0.172   1.238  0.00  0.00    +0.150 C 
ENDROOT
BRANCH   1   2
ATOM      2  O   UNL     1       4.500   0.733   2.067  0.00  0.00    -0.389 OA
ATOM      3  H   UNL     1       4.453   1.634   1.720  0.00  0.00    +0.210 HD
ENDBRANCH   1   2
BRANCH   1   4
ATOM      4  C   UNL     1       4.642  -0.163  -0.173  0.00  0.00    +0.155 C 
BRANCH   4  17
ATOM      5  C   UNL     1      -0.424   1.089   0.405  0.00  0.00    +0.001 A 
ATOM      6  C   UNL     1       0.675   1.934   0.431  0.00  0.00    +0.002 A 
ATOM      7  C   UNL     1       1.947   1.433   0.261  0.00  0.00    +0.026 A 
ATOM      8  C   UNL     1       2.139   0.069   0.061  0.00  0.00    +0.050 A 
ATOM      9  C   UNL     1       1.026  -0.784   0.035  0.00  0.00    +0.008 A 
ATOM     10  C   UNL     1      -0.255  -0.264   0.209  0.00  0.00    +0.010 A 
ATOM     11  C   UNL     1       1.547  -2.144  -0.191  0.00  0.00    +0.008 A 
ATOM     12  C   UNL     1       0.944  -3.394  -0.312  0.00  0.00    +0.010 A 
ATOM     13  C   UNL     1       1.721  -4.512  -0.527  0.00  0.00    +0.001 A 
ATOM     14  C   UNL     1       3.100  -4.396  -0.624  0.00  0.00    +0.002 A 
ATOM     15  C   UNL     1       3.709  -3.166  -0.505  0.00  0.00    +0.026 A 
ATOM     16  C   UNL     1       2.941  -2.025  -0.288  0.00  0.00    +0.050 A 
ATOM     17  N   UNL     1       3.277  -0.692  -0.134  0.00  0.00    -0.337 N 
ENDBRANCH   4  17
ENDBRANCH   1   4
BRANCH   1  18
ATOM     18  C   UNL     1       6.699   0.263   1.180  0.00  0.00    +0.142 C 
BRANCH  18  19
ATOM     19  N   UNL     1       7.297   0.142   2.512  0.00  0.00    -0.174 NA
BRANCH  19  20
ATOM     20  S   UNL     1       7.425   1.476   3.486  0.00  0.00    +0.061 S 
ATOM     21  O   UNL     1       6.523   2.445   2.969  0.00  0.00    -0.153 OA
ATOM     22  O   UNL     1       7.354   1.008   4.826  0.00  0.00    -0.153 OA
BRANCH  20  23
ATOM     23  C   UNL     1       9.047   2.128   3.266  0.00  0.00    +0.106 A 
ATOM     24  C   UNL     1      10.058   1.777   4.141  0.00  0.00    +0.029 A 
ATOM     25  C   UNL     1      11.330   2.288   3.968  0.00  0.00    +0.017 A 
ATOM     26  C   UNL     1      11.592   3.151   2.919  0.00  0.00    +0.018 A 
ATOM     27  C   UNL     1      10.580   3.503   2.044  0.00  0.00    +0.017 A 
ATOM     28  C   UNL     1       9.309   2.987   2.215  0.00  0.00    +0.029 A 
ATOM     29 BR   UNL     1      13.332   3.852   2.683  0.00  0.00    -0.050 Br
ENDBRANCH  20  23
ENDBRANCH  19  20
BRANCH  19  30
ATOM     30  C   UNL     1       7.782  -1.158   2.982  0.00  0.00    +0.112 C 
BRANCH  30  31
ATOM     31  C   UNL     1       9.210  -1.381   2.481  0.00  0.00    +0.045 C 
BRANCH  31  32
ATOM     32  C   UNL     1       9.716  -2.739   2.972  0.00  0.00    +0.157 C 
BRANCH  32  33
ATOM     33  O   UNL     1      11.050  -2.947   2.504  0.00  0.00    -0.395 OA
ATOM     34  H   UNL     1      11.436  -3.790   2.778  0.00  0.00    +0.209 HD
ENDBRANCH  32  33
ENDBRANCH  31  32
ENDBRANCH  30  31
ENDBRANCH  19  30
ENDBRANCH  18  19
ENDBRANCH   1  18
TORSDOF 11
