REMARK  Name = ZINC36345893
REMARK  17 active torsions:
REMARK  status: ('A' for Active; 'I' for Inactive)
REMARK    1  A    between atoms: C_1  and  C_2
REMARK    2  A    between atoms: C_5  and  O_8
REMARK    3  A    between atoms: O_8  and  C_9
REMARK    4  A    between atoms: C_10  and  C_21
REMARK    5  A    between atoms: C_11  and  C_20
REMARK    6  A    between atoms: N_13  and  C_14
REMARK    7  A    between atoms: C_21  and  N_22
REMARK    8  A    between atoms: N_22  and  C_23
REMARK    9  A    between atoms: N_22  and  C_33
REMARK   10  A    between atoms: C_23  and  C_24
REMARK   11  A    between atoms: C_24  and  C_26
REMARK   12  A    between atoms: C_24  and  O_32
REMARK   13  A    between atoms: C_26  and  O_27
REMARK   14  A    between atoms: O_27  and  C_28
REMARK   15  A    between atoms: C_28  and  C_29
REMARK   16  A    between atoms: C_28  and  C_30
REMARK   17  A    between atoms: C_28  and  C_31
REMARK                            x       y       z     vdW  Elec       q    Type
REMARK                         _______ _______ _______ _____ _____    ______ ____
ROOT
ATOM      1  C   UNL     1      -1.265  -5.043   1.383  0.00  0.00    +0.225 A 
ATOM      2  C   UNL     1      -0.794  -6.281   1.692  0.00  0.00    +0.021 A 
ATOM      3  C   UNL     1      -0.594  -6.330   3.075  0.00  0.00    +0.065 A 
ATOM      4  N   UNL     1      -0.929  -5.173   3.584  0.00  0.00    -0.168 NA
ATOM      5  N   UNL     1      -1.351  -4.337   2.542  0.00  0.00    -0.200 N 
ATOM      6  C   UNL     1      -0.080  -7.517   3.849  0.00  0.00    +0.068 C 
ENDROOT
BRANCH   5   7
ATOM      7  C   UNL     1      -1.787  -3.011   2.671  0.00  0.00    +0.069 A 
ATOM      8  C   UNL     1      -1.413  -2.061   1.730  0.00  0.00    +0.028 A 
ATOM      9  C   UNL     1      -1.845  -0.755   1.860  0.00  0.00    +0.002 A 
ATOM     10  C   UNL     1      -2.648  -0.394   2.926  0.00  0.00    +0.000 A 
ATOM     11  C   UNL     1      -3.023  -1.338   3.864  0.00  0.00    +0.002 A 
ATOM     12  C   UNL     1      -2.599  -2.647   3.737  0.00  0.00    +0.028 A 
ENDBRANCH   5   7
BRANCH   1  13
ATOM     13  O   UNL     1      -1.585  -4.593   0.143  0.00  0.00    -0.438 OA
BRANCH  13  18
ATOM     14  C   UNL     1      -6.940  -5.061  -1.539  0.00  0.00    +0.044 C 
ATOM     15  C   UNL     1      -5.508  -4.936  -1.089  0.00  0.00    -0.050 A 
ATOM     16  C   UNL     1      -4.589  -4.278  -1.886  0.00  0.00    +0.007 A 
ATOM     17  C   UNL     1      -3.275  -4.161  -1.476  0.00  0.00    +0.046 A 
ATOM     18  C   UNL     1      -2.877  -4.706  -0.263  0.00  0.00    +0.130 A 
ATOM     19  C   UNL     1      -3.801  -5.366   0.535  0.00  0.00    +0.046 A 
ATOM     20  C   UNL     1      -5.115  -5.474   0.123  0.00  0.00    +0.007 A 
ENDBRANCH  13  18
ENDBRANCH   1  13
BRANCH   2  21
ATOM     21  C   UNL     1      -0.534  -7.400   0.718  0.00  0.00    -0.035 C 
BRANCH  21  22
ATOM     22  N   UNL     1       0.849  -7.313   0.229  0.00  0.00    +0.386 N 
ATOM     23  H   UNL     1       1.011  -6.396  -0.159  0.00  0.00    -0.081 HD
BRANCH  22  24
ATOM     24  C   UNL     1       1.777  -7.544   1.343  0.00  0.00    -0.068 C 
ATOM     25  C   UNL     1       2.550  -6.338   1.881  0.00  0.00    -0.017 C 
ATOM     26  C   UNL     1       3.274  -7.404   1.057  0.00  0.00    -0.017 C 
ENDBRANCH  22  24
BRANCH  22  27
ATOM     27  C   UNL     1       1.066  -8.329  -0.809  0.00  0.00    -0.044 C 
BRANCH  27  28
ATOM     28  C   UNL     1       0.690  -9.707  -0.260  0.00  0.00    +0.124 C 
BRANCH  28  29
ATOM     29  O   UNL     1       1.600 -10.070   0.780  0.00  0.00    -0.391 OA
ATOM     30  H   UNL     1       2.523 -10.119   0.496  0.00  0.00    +0.210 HD
ENDBRANCH  28  29
BRANCH  28  31
ATOM     31  C   UNL     1       0.763 -10.741  -1.386  0.00  0.00    +0.189 C 
BRANCH  31  32
ATOM     32  O   UNL     1       0.300 -12.004  -0.903  0.00  0.00    -0.372 OA
BRANCH  32  33
ATOM     33  C   UNL     1       0.327 -13.046  -1.880  0.00  0.00    +0.061 C 
ATOM     34  C   UNL     1       1.762 -13.248  -2.370  0.00  0.00    +0.041 C 
ATOM     35  C   UNL     1      -0.187 -14.345  -1.256  0.00  0.00    +0.041 C 
ATOM     36  C   UNL     1      -0.566 -12.660  -3.062  0.00  0.00    +0.041 C 
ENDBRANCH  32  33
ENDBRANCH  31  32
ENDBRANCH  28  31
ENDBRANCH  27  28
ENDBRANCH  22  27
ENDBRANCH  21  22
ENDBRANCH   2  21
TORSDOF 12
