REMARK  Name = ZINC62590071
REMARK  12 active torsions:
REMARK  status: ('A' for Active; 'I' for Inactive)
REMARK    1  A    between atoms: C_1  and  C_2
REMARK    2  A    between atoms: C_2  and  C_3
REMARK    3  A    between atoms: C_3  and  C_4
REMARK    4  A    between atoms: C_4  and  N_5
REMARK    5  A    between atoms: C_6  and  N_33
REMARK    6  A    between atoms: C_7  and  N_14
REMARK    7  A    between atoms: N_14  and  C_15
REMARK    8  A    between atoms: N_14  and  C_19
REMARK    9  A    between atoms: C_15  and  C_16
REMARK   10  A    between atoms: C_16  and  O_17
REMARK   11  A    between atoms: O_17  and  C_18
REMARK   12  A    between atoms: C_19  and  N_20
REMARK                            x       y       z     vdW  Elec       q    Type
REMARK                         _______ _______ _______ _____ _____    ______ ____
ROOT
ATOM      1  N   UNL     1       4.911  -3.469   3.562  0.00  0.00    -0.302 N 
ENDROOT
BRANCH   1   4
ATOM      2  N   UNL     1       1.673  -2.260   4.796  0.00  0.00    -0.280 N 
ATOM      3  C   UNL     1       3.034  -2.395   4.638  0.00  0.00    +0.127 A 
ATOM      4  C   UNL     1       3.518  -3.310   3.743  0.00  0.00    +0.135 A 
ATOM      5  C   UNL     1       2.609  -4.090   3.006  0.00  0.00    +0.277 A 
ATOM      6  O   UNL     1       3.017  -4.912   2.202  0.00  0.00    -0.266 OA
ATOM      7  N   UNL     1       1.285  -3.923   3.192  0.00  0.00    -0.273 N 
ATOM      8  H   UNL     1       0.657  -4.460   2.685  0.00  0.00    +0.173 HD
ATOM      9  C   UNL     1       0.826  -3.023   4.080  0.00  0.00    +0.331 A 
ATOM     10  O   UNL     1      -0.373  -2.893   4.236  0.00  0.00    -0.246 OA
BRANCH   3  11
ATOM     11  N   UNL     1       3.899  -1.618   5.374  0.00  0.00    -0.343 N 
ATOM     12  H   UNL     1       3.551  -0.935   5.969  0.00  0.00    +0.144 HD
ATOM     13  H   UNL     1       4.856  -1.752   5.297  0.00  0.00    +0.144 HD
ENDBRANCH   3  11
BRANCH   2  14
ATOM     14  C   UNL     1       1.144  -1.284   5.752  0.00  0.00    +0.128 C 
BRANCH  14  15
ATOM     15  C   UNL     1       0.986  -1.946   7.122  0.00  0.00    +0.021 C 
BRANCH  15  17
ATOM     16  C   UNL     1       0.276  -1.589   9.491  0.00  0.00    +0.004 C 
ATOM     17  C   UNL     1       0.434  -0.927   8.120  0.00  0.00    -0.002 C 
ENDBRANCH  15  17
ENDBRANCH  14  15
ENDBRANCH   2  14
ENDBRANCH   1   4
BRANCH   1  18
ATOM     18  C   UNL     1       5.735  -4.005   4.648  0.00  0.00    +0.135 C 
BRANCH  18  19
ATOM     19  C   UNL     1       5.852  -5.523   4.498  0.00  0.00    +0.178 C 
BRANCH  19  20
ATOM     20  O   UNL     1       6.564  -5.829   3.298  0.00  0.00    -0.381 OA
ATOM     21  C   UNL     1       6.730  -7.229   3.061  0.00  0.00    +0.194 C 
ENDBRANCH  19  20
ENDBRANCH  18  19
ENDBRANCH   1  18
BRANCH   1  22
ATOM     22  C   UNL     1       5.531  -3.097   2.288  0.00  0.00    +0.253 C 
BRANCH  22  23
ATOM     23  N   UNL     1       5.832  -1.663   2.291  0.00  0.00    -0.222 N 
ATOM     24  C   UNL     1       5.152  -0.705   1.635  0.00  0.00    +0.185 A 
ATOM     25  S   UNL     1       3.776  -0.951   0.646  0.00  0.00    -0.011 S 
ATOM     26  N   UNL     1       5.746   0.497   1.894  0.00  0.00    -0.265 N 
ATOM     27  C   UNL     1       5.523   1.833   1.523  0.00  0.00    +0.065 A 
ATOM     28  C   UNL     1       4.500   2.308   0.686  0.00  0.00    +0.027 A 
ATOM     29  C   UNL     1       4.390   3.648   0.399  0.00  0.00    +0.002 A 
ATOM     30  C   UNL     1       5.281   4.569   0.922  0.00  0.00    +0.001 A 
ATOM     31  C   UNL     1       6.298   4.128   1.750  0.00  0.00    +0.017 A 
ATOM     32  C   UNL     1       6.407   2.787   2.037  0.00  0.00    +0.040 A 
ATOM     33  S   UNL     1       7.530   1.827   3.022  0.00  0.00    -0.048 S 
ATOM     34  C   UNL     1       6.808   0.229   2.729  0.00  0.00    +0.200 A 
ATOM     35  N   UNL     1       6.878  -1.035   2.982  0.00  0.00    -0.142 NA
ENDBRANCH  22  23
ENDBRANCH   1  22
TORSDOF 10
