REMARK  Name = ZINC39912334
REMARK  14 active torsions:
REMARK  status: ('A' for Active; 'I' for Inactive)
REMARK    1  A    between atoms: C_1  and  C_2
REMARK    2  A    between atoms: C_4  and  C_40
REMARK    3  A    between atoms: C_5  and  O_39
REMARK    4  A    between atoms: C_6  and  C_8
REMARK    5  A    between atoms: N_16  and  C_32
REMARK    6  A    between atoms: C_17  and  C_19
REMARK    7  A    between atoms: C_22  and  O_27
REMARK    8  A    between atoms: C_23  and  O_25
REMARK    9  A    between atoms: O_25  and  C_26
REMARK   10  A    between atoms: O_27  and  C_28
REMARK   11  A    between atoms: C_28  and  C_29
REMARK   12  A    between atoms: C_29  and  C_30
REMARK   13  A    between atoms: C_29  and  C_31
REMARK   14  A    between atoms: C_32  and  C_33
REMARK                            x       y       z     vdW  Elec       q    Type
REMARK                         _______ _______ _______ _____ _____    ______ ____
ROOT
ATOM      1  C   UNL     1       0.003  -2.584   2.250  0.00  0.00    +0.102 A 
ATOM      2  C   UNL     1       0.148  -2.191   3.584  0.00  0.00    +0.035 A 
ATOM      3  C   UNL     1       0.323  -3.357   4.304  0.00  0.00    +0.126 A 
ATOM      4  N   UNL     1       0.277  -4.375   3.394  0.00  0.00    -0.272 N 
ATOM      5  H   UNL     1       0.371  -5.317   3.606  0.00  0.00    +0.189 HD
ATOM      6  N   UNL     1       0.086  -3.899   2.215  0.00  0.00    -0.173 NA
ATOM      7  C   UNL     1       0.482  -3.012   5.721  0.00  0.00    +0.266 C 
ATOM      8  O   UNL     1       0.655  -3.817   6.616  0.00  0.00    -0.268 OA
ATOM      9  N   UNL     1       0.410  -1.679   5.889  0.00  0.00    -0.281 N 
ATOM     10  C   UNL     1       0.196  -1.060   4.575  0.00  0.00    +0.142 C 
ENDROOT
BRANCH   1  16
ATOM     11  C   UNL     1      -0.808   1.988   0.415  0.00  0.00    +0.044 C 
ATOM     12  C   UNL     1      -0.602   0.510   0.201  0.00  0.00    -0.049 A 
ATOM     13  C   UNL     1      -0.614  -0.008  -1.082  0.00  0.00    +0.010 A 
ATOM     14  C   UNL     1      -0.426  -1.362  -1.288  0.00  0.00    -0.008 A 
ATOM     15  C   UNL     1      -0.224  -2.207  -0.209  0.00  0.00    +0.129 A 
ATOM     16  C   UNL     1      -0.212  -1.686   1.088  0.00  0.00    +0.044 A 
ATOM     17  C   UNL     1      -0.396  -0.320   1.284  0.00  0.00    +0.017 A 
ATOM     18  C   UNL     1      -0.440  -1.919  -2.688  0.00  0.00    +0.047 C 
BRANCH  15  19
ATOM     19  O   UNL     1      -0.040  -3.538  -0.411  0.00  0.00    -0.506 OA
ATOM     20  H   UNL     1       0.885  -3.793  -0.530  0.00  0.00    +0.292 HD
ENDBRANCH  15  19
ENDBRANCH   1  16
BRANCH  10  21
ATOM     21  C   UNL     1       1.337  -0.132   4.248  0.00  0.00    -0.019 A 
ATOM     22  C   UNL     1       1.079   1.176   3.880  0.00  0.00    +0.009 A 
ATOM     23  C   UNL     1       2.122   2.031   3.579  0.00  0.00    +0.050 A 
ATOM     24  C   UNL     1       3.430   1.579   3.646  0.00  0.00    +0.162 A 
ATOM     25  C   UNL     1       3.690   0.264   4.017  0.00  0.00    +0.162 A 
ATOM     26  C   UNL     1       2.640  -0.587   4.322  0.00  0.00    +0.055 A 
BRANCH  25  27
ATOM     27  O   UNL     1       4.972  -0.185   4.084  0.00  0.00    -0.491 OA
ATOM     28  C   UNL     1       5.170  -1.514   4.570  0.00  0.00    +0.277 C 
ENDBRANCH  25  27
BRANCH  24  29
ATOM     29  O   UNL     1       4.457   2.420   3.349  0.00  0.00    -0.488 OA
BRANCH  29  30
ATOM     30  C   UNL     1       4.115   3.756   2.976  0.00  0.00    +0.232 C 
BRANCH  30  31
ATOM     31  C   UNL     1       5.392   4.546   2.682  0.00  0.00    +0.020 C 
ATOM     32  C   UNL     1       6.090   3.950   1.458  0.00  0.00    +0.010 C 
ATOM     33  C   UNL     1       5.035   6.007   2.404  0.00  0.00    +0.010 C 
ENDBRANCH  30  31
ENDBRANCH  29  30
ENDBRANCH  24  29
ENDBRANCH  10  21
BRANCH   9  34
ATOM     34  C   UNL     1       0.525  -0.968   7.165  0.00  0.00    +0.144 C 
BRANCH  34  35
ATOM     35  C   UNL     1       1.970  -0.625   7.420  0.00  0.00    -0.030 A 
ATOM     36  C   UNL     1       2.782  -1.513   8.100  0.00  0.00    +0.005 A 
ATOM     37  C   UNL     1       4.108  -1.198   8.334  0.00  0.00    +0.000 A 
ATOM     38  C   UNL     1       4.621   0.006   7.887  0.00  0.00    +0.000 A 
ATOM     39  C   UNL     1       3.809   0.893   7.206  0.00  0.00    +0.000 A 
ATOM     40  C   UNL     1       2.485   0.576   6.969  0.00  0.00    +0.005 A 
ENDBRANCH  34  35
ENDBRANCH   9  34
TORSDOF 9
