REMARK  Name = ZINC01855321
REMARK  12 active torsions:
REMARK  status: ('A' for Active; 'I' for Inactive)
REMARK    1  A    between atoms: C_1  and  C_2
REMARK    2  A    between atoms: C_4  and  C_23
REMARK    3  A    between atoms: C_13  and  N_15
REMARK    4  A    between atoms: N_15  and  N_16
REMARK    5  A    between atoms: N_16  and  C_17
REMARK    6  A    between atoms: C_17  and  N_19
REMARK    7  A    between atoms: C_25  and  O_33
REMARK    8  A    between atoms: C_26  and  O_31
REMARK    9  A    between atoms: C_27  and  O_29
REMARK   10  A    between atoms: O_29  and  C_30
REMARK   11  A    between atoms: O_31  and  C_32
REMARK   12  A    between atoms: O_33  and  C_34
REMARK                            x       y       z     vdW  Elec       q    Type
REMARK                         _______ _______ _______ _____ _____    ______ ____
ROOT
ATOM      1  C   UNL     1       3.275  -0.395  -5.489  0.00  0.00    +0.013 C 
ATOM      2  C   UNL     1       2.369  -1.621  -5.627  0.00  0.00    +0.055 C 
ATOM      3  C   UNL     1       2.508  -2.508  -4.388  0.00  0.00    +0.061 C 
ATOM      4  C   UNL     1       1.855  -3.843  -4.643  0.00  0.00    +0.006 A 
ATOM      5  C   UNL     1       1.537  -4.646  -3.559  0.00  0.00    +0.057 A 
ATOM      6  C   UNL     1       0.941  -5.879  -3.753  0.00  0.00    +0.167 A 
ATOM      7  C   UNL     1       0.659  -6.317  -5.045  0.00  0.00    +0.170 A 
ATOM      8  C   UNL     1       0.976  -5.514  -6.126  0.00  0.00    +0.095 A 
ATOM      9  C   UNL     1       1.574  -4.274  -5.928  0.00  0.00    +0.130 A 
ATOM     10  O   UNL     1       1.865  -3.515  -7.017  0.00  0.00    -0.472 OA
ATOM     11  C   UNL     1       2.790  -2.439  -6.854  0.00  0.00    +0.262 C 
ATOM     12  O   UNL     1       0.079  -7.551  -4.971  0.00  0.00    -0.452 OA
ATOM     13  C   UNL     1      -0.364  -7.686  -3.608  0.00  0.00    +0.466 C 
ATOM     14  O   UNL     1       0.536  -6.840  -2.869  0.00  0.00    -0.453 OA
ENDROOT
BRANCH   3  15
ATOM     15  C   UNL     1       1.838  -1.839  -3.215  0.00  0.00    -0.032 A 
ATOM     16  C   UNL     1       2.575  -1.522  -2.089  0.00  0.00    +0.054 A 
ATOM     17  C   UNL     1       1.963  -0.906  -1.008  0.00  0.00    +0.165 A 
ATOM     18  C   UNL     1       0.607  -0.608  -1.057  0.00  0.00    +0.204 A 
ATOM     19  C   UNL     1      -0.132  -0.933  -2.189  0.00  0.00    +0.165 A 
ATOM     20  C   UNL     1       0.489  -1.544  -3.268  0.00  0.00    +0.054 A 
BRANCH  19  21
ATOM     21  O   UNL     1      -1.461  -0.648  -2.239  0.00  0.00    -0.491 OA
ATOM     22  C   UNL     1      -2.157  -1.011  -3.433  0.00  0.00    +0.277 C 
ENDBRANCH  19  21
BRANCH  18  23
ATOM     23  O   UNL     1       0.002  -0.004   0.002  0.00  0.00    -0.488 OA
ATOM     24  C   UNL     1      -0.017   1.425   0.010  0.00  0.00    +0.277 C 
ENDBRANCH  18  23
BRANCH  17  25
ATOM     25  O   UNL     1       2.689  -0.594   0.099  0.00  0.00    -0.491 OA
ATOM     26  C   UNL     1       4.078  -0.930   0.079  0.00  0.00    +0.277 C 
ENDBRANCH  17  25
ENDBRANCH   3  15
BRANCH  11  27
ATOM     27  N   UNL     1       2.772  -1.585  -8.049  0.00  0.00    -0.203 NA
ATOM     28  H   UNL     1       1.850  -1.557  -8.460  0.00  0.00    +0.148 HD
BRANCH  27  29
ATOM     29  N   UNL     1       3.701  -1.998  -8.961  0.00  0.00    -0.259 N 
ATOM     30  H   UNL     1       4.263  -2.765  -8.768  0.00  0.00    +0.168 HD
BRANCH  29  31
ATOM     31  C   UNL     1       3.839  -1.339 -10.128  0.00  0.00    +0.142 C 
ATOM     32  S   UNL     1       5.005  -1.856 -11.271  0.00  0.00    -0.018 S 
BRANCH  31  33
ATOM     33  N   UNL     1       3.059  -0.273 -10.397  0.00  0.00    -0.340 N 
ATOM     34  H   UNL     1       2.399   0.020  -9.749  0.00  0.00    +0.144 HD
ATOM     35  H   UNL     1       3.159   0.202 -11.237  0.00  0.00    +0.144 HD
ENDBRANCH  31  33
ENDBRANCH  29  31
ENDBRANCH  27  29
ENDBRANCH  11  27
TORSDOF 8
