REMARK  Name = ZINC03771785
REMARK  15 active torsions:
REMARK  status: ('A' for Active; 'I' for Inactive)
REMARK    1  A    between atoms: C_1  and  C_2
REMARK    2  A    between atoms: C_5  and  C_8
REMARK    3  A    between atoms: C_8  and  N_9
REMARK    4  A    between atoms: N_9  and  C_10
REMARK    5  A    between atoms: C_10  and  C_12
REMARK    6  A    between atoms: C_10  and  C_19
REMARK    7  A    between atoms: N_21  and  C_22
REMARK    8  A    between atoms: C_25  and  N_28
REMARK    9  A    between atoms: N_28  and  C_29
REMARK   10  A    between atoms: N_28  and  C_30
REMARK   11  A    between atoms: C_31  and  C_33
REMARK   12  A    between atoms: C_33  and  S_34
REMARK   13  A    between atoms: S_34  and  C_35
REMARK   14  A    between atoms: C_37  and  C_42
REMARK   15  A    between atoms: C_39  and  C_41
REMARK                            x       y       z     vdW  Elec       q    Type
REMARK                         _______ _______ _______ _____ _____    ______ ____
ROOT
ATOM      1  N   UNL     1      -1.556   2.234   1.899  0.00  0.00    -0.281 N 
ATOM      2  C   UNL     1      -1.846   1.528   3.010  0.00  0.00    +0.227 C 
ATOM      3  O   UNL     1      -2.171   2.104   4.027  0.00  0.00    -0.275 OA
ENDROOT
BRANCH   1   4
ATOM      4  C   UNL     1      -0.836   1.597   0.793  0.00  0.00    +0.144 C 
BRANCH   4   9
ATOM      5  C   UNL     1       4.801   2.806   1.194  0.00  0.00    +0.044 C 
ATOM      6  C   UNL     1       3.330   2.492   1.090  0.00  0.00    -0.050 A 
ATOM      7  C   UNL     1       2.689   1.834   2.123  0.00  0.00    +0.003 A 
ATOM      8  C   UNL     1       1.341   1.546   2.028  0.00  0.00    +0.005 A 
ATOM      9  C   UNL     1       0.633   1.917   0.900  0.00  0.00    -0.030 A 
ATOM     10  C   UNL     1       1.274   2.576  -0.133  0.00  0.00    +0.005 A 
ATOM     11  C   UNL     1       2.623   2.863  -0.038  0.00  0.00    +0.003 A 
ENDBRANCH   4   9
ENDBRANCH   1   4
BRANCH   1  12
ATOM     12  C   UNL     1      -1.961   3.639   1.797  0.00  0.00    +0.193 C 
BRANCH  12  13
ATOM     13  C   UNL     1      -3.454   3.719   1.613  0.00  0.00    -0.018 A 
ATOM     14  C   UNL     1      -4.098   2.816   0.786  0.00  0.00    +0.007 A 
ATOM     15  C   UNL     1      -5.468   2.886   0.621  0.00  0.00    +0.020 A 
ATOM     16  C   UNL     1      -6.195   3.865   1.275  0.00  0.00    +0.041 A 
ATOM     17  C   UNL     1      -5.549   4.772   2.097  0.00  0.00    +0.020 A 
ATOM     18  C   UNL     1      -4.179   4.698   2.266  0.00  0.00    +0.007 A 
ATOM     19 CL   UNL     1      -7.915   3.958   1.062  0.00  0.00    -0.084 Cl
ENDBRANCH  12  13
BRANCH  12  20
ATOM     20  C   UNL     1      -1.274   4.275   0.616  0.00  0.00    +0.242 C 
ATOM     21  O   UNL     1      -1.175   3.666  -0.428  0.00  0.00    -0.273 OA
ATOM     22  N   UNL     1      -0.770   5.520   0.721  0.00  0.00    -0.284 N 
ATOM     23  H   UNL     1      -0.729   5.956   1.586  0.00  0.00    +0.155 HD
BRANCH  22  24
ATOM     24  C   UNL     1      -0.304   6.186  -0.422  0.00  0.00    +0.034 A 
ATOM     25  C   UNL     1       0.747   7.088  -0.319  0.00  0.00    +0.025 A 
ATOM     26  C   UNL     1       1.208   7.740  -1.445  0.00  0.00    +0.025 A 
ATOM     27  C   UNL     1       0.616   7.501  -2.678  0.00  0.00    +0.029 A 
ATOM     28  C   UNL     1      -0.438   6.603  -2.780  0.00  0.00    +0.025 A 
ATOM     29  C   UNL     1      -0.897   5.947  -1.654  0.00  0.00    +0.025 A 
BRANCH  27  30
ATOM     30  N   UNL     1       1.081   8.165  -3.818  0.00  0.00    -0.336 N 
ATOM     31  C   UNL     1       0.456   7.913  -5.119  0.00  0.00    +0.129 C 
ATOM     32  C   UNL     1       2.193   9.113  -3.712  0.00  0.00    +0.129 C 
ENDBRANCH  27  30
ENDBRANCH  22  24
ENDBRANCH  12  20
ENDBRANCH   1  12
BRANCH   2  33
ATOM     33  C   UNL     1      -1.766   0.024   2.989  0.00  0.00    +0.173 C 
BRANCH  33  34
ATOM     34  S   UNL     1      -2.661  -0.648   4.411  0.00  0.00    -0.077 S 
BRANCH  34  35
ATOM     35  C   UNL     1      -2.411  -2.372   4.143  0.00  0.00    +0.189 A 
ATOM     36  N   UNL     1      -1.714  -2.768   3.088  0.00  0.00    -0.227 NA
ATOM     37  C   UNL     1      -1.504  -4.054   2.861  0.00  0.00    +0.043 A 
ATOM     38  C   UNL     1      -2.032  -4.991   3.737  0.00  0.00    +0.046 A 
ATOM     39  C   UNL     1      -2.761  -4.542   4.827  0.00  0.00    +0.043 A 
ATOM     40  N   UNL     1      -2.930  -3.241   4.999  0.00  0.00    -0.227 NA
ATOM     41  C   UNL     1      -3.353  -5.524   5.805  0.00  0.00    +0.066 C 
ATOM     42  C   UNL     1      -0.705  -4.497   1.663  0.00  0.00    +0.066 C 
ENDBRANCH  34  35
ENDBRANCH  33  34
ENDBRANCH   2  33
TORSDOF 10
