REMARK  Name = ZINC63349867
REMARK  9 active torsions:
REMARK  status: ('A' for Active; 'I' for Inactive)
REMARK    1  A    between atoms: C_1  and  O_2
REMARK    2  A    between atoms: O_2  and  C_3
REMARK    3  A    between atoms: C_6  and  C_9
REMARK    4  A    between atoms: C_10  and  C_11
REMARK    5  A    between atoms: C_10  and  N_25
REMARK    6  A    between atoms: N_13  and  C_14
REMARK    7  A    between atoms: C_14  and  C_15
REMARK    8  A    between atoms: C_15  and  C_16
REMARK    9  A    between atoms: C_26  and  C_28
REMARK                            x       y       z     vdW  Elec       q    Type
REMARK                         _______ _______ _______ _____ _____    ______ ____
ROOT
ATOM      1  C   UNL     1       2.141  -2.609  -4.638  0.00  0.00    +0.036 C 
ATOM      2  C   UNL     1       2.640  -3.841  -4.382  0.00  0.00    +0.097 C 
ENDROOT
BRANCH   1   6
ATOM      3  C   UNL     1      -1.287  -1.234  -2.552  0.00  0.00    +0.120 A 
ATOM      4  C   UNL     1      -1.161  -2.583  -2.864  0.00  0.00    +0.046 A 
ATOM      5  C   UNL     1      -0.050  -3.034  -3.541  0.00  0.00    +0.011 A 
ATOM      6  C   UNL     1       0.953  -2.132  -3.915  0.00  0.00    -0.023 A 
ATOM      7  C   UNL     1       0.820  -0.775  -3.600  0.00  0.00    +0.011 A 
ATOM      8  C   UNL     1      -0.297  -0.334  -2.927  0.00  0.00    +0.046 A 
BRANCH   3  10
ATOM      9  C   UNL     1      -3.363  -1.773  -1.529  0.00  0.00    +0.277 C 
ATOM     10  O   UNL     1      -2.385  -0.795  -1.884  0.00  0.00    -0.495 OA
ENDBRANCH   3  10
ENDBRANCH   1   6
BRANCH   2  11
ATOM     11  C   UNL     1       2.087  -4.644  -3.283  0.00  0.00    +0.258 C 
ATOM     12  O   UNL     1       1.367  -5.594  -3.526  0.00  0.00    -0.269 OA
ATOM     13  N   UNL     1       2.377  -4.327  -2.006  0.00  0.00    -0.310 N 
ATOM     14  H   UNL     1       2.891  -3.528  -1.809  0.00  0.00    +0.149 HD
BRANCH  13  15
ATOM     15  C   UNL     1       1.917  -5.189  -0.914  0.00  0.00    +0.109 C 
BRANCH  15  16
ATOM     16  C   UNL     1       2.377  -4.608   0.424  0.00  0.00    +0.052 C 
BRANCH  16  17
ATOM     17  C   UNL     1       1.903  -5.495   1.546  0.00  0.00    -0.040 C 
ATOM     18  C   UNL     1       2.601  -6.482   2.152  0.00  0.00    -0.001 A 
ATOM     19  C   UNL     1       3.957  -7.007   1.955  0.00  0.00    +0.010 A 
ATOM     20  C   UNL     1       4.386  -8.026   2.733  0.00  0.00    +0.001 A 
ATOM     21  C   UNL     1       3.569  -8.593   3.721  0.00  0.00    +0.002 A 
ATOM     22  C   UNL     1       2.312  -8.166   3.962  0.00  0.00    +0.026 A 
ATOM     23  C   UNL     1       1.758  -7.098   3.203  0.00  0.00    +0.043 A 
ATOM     24  N   UNL     1       0.585  -6.514   3.244  0.00  0.00    -0.380 N 
ATOM     25  C   UNL     1       0.553  -5.456   2.227  0.00  0.00    +0.144 C 
ATOM     26  H   UNL     1      -0.139  -6.741   3.848  0.00  0.00    +0.160 HD
ENDBRANCH  16  17
ENDBRANCH  15  16
ENDBRANCH  13  15
ENDBRANCH   2  11
BRANCH   2  27
ATOM     27  N   UNL     1       3.681  -4.351  -5.166  0.00  0.00    -0.277 N 
ATOM     28  C   UNL     1       4.206  -5.560  -4.885  0.00  0.00    +0.248 C 
ATOM     29  O   UNL     1       3.714  -6.248  -4.012  0.00  0.00    -0.270 OA
ATOM     30  H   UNL     1       4.025  -3.834  -5.911  0.00  0.00    +0.155 HD
BRANCH  28  31
ATOM     31  C   UNL     1       5.380  -6.049  -5.639  0.00  0.00    +0.037 A 
ATOM     32  C   UNL     1       5.950  -5.259  -6.638  0.00  0.00    +0.013 A 
ATOM     33  C   UNL     1       7.046  -5.721  -7.337  0.00  0.00    +0.001 A 
ATOM     34  C   UNL     1       7.579  -6.965  -7.050  0.00  0.00    +0.000 A 
ATOM     35  C   UNL     1       7.018  -7.754  -6.061  0.00  0.00    +0.001 A 
ATOM     36  C   UNL     1       5.926  -7.301  -5.350  0.00  0.00    +0.013 A 
ENDBRANCH  28  31
ENDBRANCH   2  27
TORSDOF 8
