REMARK  Name = ZINC01786118
REMARK  12 active torsions:
REMARK  status: ('A' for Active; 'I' for Inactive)
REMARK    1  A    between atoms: C_1  and  C_2
REMARK    2  A    between atoms: C_2  and  O_3
REMARK    3  A    between atoms: O_3  and  C_4
REMARK    4  A    between atoms: C_4  and  C_6
REMARK    5  A    between atoms: C_8  and  C_28
REMARK    6  A    between atoms: C_11  and  N_27
REMARK    7  A    between atoms: C_12  and  C_18
REMARK    8  A    between atoms: C_16  and  C_17
REMARK    9  A    between atoms: C_18  and  C_20
REMARK   10  A    between atoms: C_31  and  C_34
REMARK   11  A    between atoms: C_34  and  O_36
REMARK   12  A    between atoms: O_36  and  C_37
REMARK                            x       y       z     vdW  Elec       q    Type
REMARK                         _______ _______ _______ _____ _____    ______ ____
ROOT
ATOM      1  C   UNL     1      -1.881  -1.943  -0.140  0.00  0.00    +0.154 C 
ATOM      2  C   UNL     1      -1.915  -3.465   0.008  0.00  0.00    +0.073 C 
ATOM      3  C   UNL     1      -1.795  -4.073  -1.387  0.00  0.00    +0.015 A 
ATOM      4  C   UNL     1      -1.212  -5.286  -1.681  0.00  0.00    +0.049 A 
ATOM      5  C   UNL     1      -1.179  -5.718  -3.011  0.00  0.00    +0.082 A 
ATOM      6  S   UNL     1      -1.992  -4.375  -3.865  0.00  0.00    -0.064 S 
ATOM      7  C   UNL     1      -2.315  -3.349  -2.462  0.00  0.00    +0.107 A 
ATOM      8  N   UNL     1      -2.906  -2.143  -2.362  0.00  0.00    -0.248 NA
ATOM      9  C   UNL     1      -2.746  -1.465  -1.270  0.00  0.00    +0.032 C 
ATOM     10  C   UNL     1      -3.458  -0.144  -1.129  0.00  0.00    +0.061 C 
ENDROOT
BRANCH   2  11
ATOM     11  C   UNL     1      -3.218  -3.886   0.639  0.00  0.00    -0.039 A 
ATOM     12  C   UNL     1      -4.415  -3.592   0.010  0.00  0.00    +0.005 A 
ATOM     13  C   UNL     1      -5.610  -3.975   0.582  0.00  0.00    +0.015 A 
ATOM     14  C   UNL     1      -5.610  -4.661   1.798  0.00  0.00    +0.059 A 
ATOM     15  C   UNL     1      -4.399  -4.955   2.427  0.00  0.00    +0.015 A 
ATOM     16  C   UNL     1      -3.210  -4.571   1.841  0.00  0.00    +0.005 A 
BRANCH  14  17
ATOM     17  C   UNL     1      -6.887  -5.074   2.417  0.00  0.00    +0.339 C 
ATOM     18  O   UNL     1      -7.939  -4.816   1.867  0.00  0.00    -0.245 OA
BRANCH  17  19
ATOM     19  O   UNL     1      -6.883  -5.736   3.590  0.00  0.00    -0.464 OA
ATOM     20  C   UNL     1      -8.154  -6.104   4.130  0.00  0.00    +0.280 C 
ENDBRANCH  17  19
ENDBRANCH  14  17
ENDBRANCH   2  11
BRANCH   4  21
ATOM     21  N   UNL     1      -0.665  -6.070  -0.670  0.00  0.00    -0.357 N 
ATOM     22  H   UNL     1      -0.692  -5.763   0.250  0.00  0.00    +0.142 HD
ATOM     23  H   UNL     1      -0.257  -6.923  -0.885  0.00  0.00    +0.142 HD
ENDBRANCH   4  21
BRANCH   1  24
ATOM     24  C   UNL     1      -0.461  -1.508  -0.395  0.00  0.00    +0.317 C 
ATOM     25  O   UNL     1       0.419  -2.333  -0.474  0.00  0.00    -0.250 OA
BRANCH  24  26
ATOM     26  O   UNL     1      -0.172  -0.205  -0.535  0.00  0.00    -0.464 OA
BRANCH  26  28
ATOM     27  C   UNL     1       1.327   1.654  -0.905  0.00  0.00    +0.048 C 
ATOM     28  C   UNL     1       1.195   0.135  -0.774  0.00  0.00    +0.229 C 
ENDBRANCH  26  28
ENDBRANCH  24  26
ENDBRANCH   1  24
BRANCH   5  29
ATOM     29  C   UNL     1      -0.640  -6.910  -3.542  0.00  0.00    +0.202 C 
ATOM     30  O   UNL     1      -0.228  -7.779  -2.794  0.00  0.00    -0.286 OA
BRANCH  29  31
ATOM     31  C   UNL     1      -0.576  -7.103  -5.008  0.00  0.00    +0.023 A 
ATOM     32  C   UNL     1      -0.545  -5.998  -5.860  0.00  0.00    +0.013 A 
ATOM     33  C   UNL     1      -0.485  -6.184  -7.225  0.00  0.00    +0.016 A 
ATOM     34  C   UNL     1      -0.455  -7.465  -7.751  0.00  0.00    +0.018 A 
ATOM     35  C   UNL     1      -0.486  -8.565  -6.911  0.00  0.00    +0.016 A 
ATOM     36  C   UNL     1      -0.540  -8.391  -5.543  0.00  0.00    +0.013 A 
ATOM     37 BR   UNL     1      -0.373  -7.712  -9.624  0.00  0.00    -0.050 Br
ENDBRANCH  29  31
ENDBRANCH   5  29
TORSDOF 9
