REMARK  Name = ZINC39692390
REMARK  13 active torsions:
REMARK  status: ('A' for Active; 'I' for Inactive)
REMARK    1  A    between atoms: C_1  and  C_2
REMARK    2  A    between atoms: C_2  and  C_3
REMARK    3  A    between atoms: C_2  and  C_4
REMARK    4  A    between atoms: C_2  and  C_5
REMARK    5  A    between atoms: C_8  and  C_11
REMARK    6  A    between atoms: C_15  and  S_19
REMARK    7  A    between atoms: N_17  and  C_18
REMARK    8  A    between atoms: S_19  and  C_20
REMARK    9  A    between atoms: C_20  and  C_21
REMARK   10  A    between atoms: N_23  and  CA_24
REMARK   11  A    between atoms: CA_24  and  CB_26
REMARK   12  A    between atoms: CA_24  and  C_36
REMARK   13  A    between atoms: CB_26  and  CG_27
REMARK                            x       y       z     vdW  Elec       q    Type
REMARK                         _______ _______ _______ _____ _____    ______ ____
ROOT
ATOM      1  S   UNK A   0       5.908  -4.037  -4.787  0.00  0.00    -0.150 S 
ENDROOT
BRANCH   1   5
ATOM      2  C   UNK A   0       2.707  -1.868  -4.752  0.00  0.00    +0.049 C 
ATOM      3  N   UNK A   0       2.317  -3.268  -5.064  0.00  0.00    -0.267 NA
ATOM      4  N   UNK A   0       3.436  -3.793  -5.852  0.00  0.00    -0.262 NA
ATOM      5  C   UNK A   0       4.621  -2.982  -5.508  0.00  0.00    +0.077 C 
ATOM      6  N   UNK A   0       4.172  -1.973  -4.517  0.00  0.00    +0.409 N 
ATOM      7  C   UNK A   0       4.826  -0.681  -4.760  0.00  0.00    -0.090 C 
ATOM      8  H   UNK A   0       1.458  -3.295  -5.593  0.00  0.00    +0.139 HD
ATOM      9  H   UNK A   0       3.237  -3.742  -6.840  0.00  0.00    +0.140 HD
ATOM     10  H   UNK A   0       4.357  -2.295  -3.579  0.00  0.00    -0.076 HD
BRANCH   2  14
ATOM     11  C   UNK A   0       0.709  -0.487  -1.238  0.00  0.00    -0.042 A 
ATOM     12  C   UNK A   0       1.329  -1.722  -1.240  0.00  0.00    +0.004 A 
ATOM     13  C   UNK A   0       1.976  -2.169  -2.377  0.00  0.00    +0.003 A 
ATOM     14  C   UNK A   0       2.001  -1.381  -3.513  0.00  0.00    -0.046 A 
ATOM     15  C   UNK A   0       1.380  -0.146  -3.511  0.00  0.00    +0.003 A 
ATOM     16  C   UNK A   0       0.730   0.298  -2.375  0.00  0.00    +0.004 A 
BRANCH  11  18
ATOM     17  C   UNK A   0      -1.475   0.236  -0.312  0.00  0.00    +0.015 C 
ATOM     18  C   UNK A   0       0.004   0.000   0.002  0.00  0.00    -0.013 C 
ATOM     19  C   UNK A   0       0.642   1.310   0.469  0.00  0.00    +0.015 C 
ATOM     20  C   UNK A   0       0.130  -1.051   1.106  0.00  0.00    +0.015 C 
ENDBRANCH  11  18
ENDBRANCH   2  14
ENDBRANCH   1   5
BRANCH   1  21
ATOM     21  C   UNK A   0       5.107  -4.779  -3.338  0.00  0.00    +0.164 C 
BRANCH  21  22
ATOM     22  C   UNK A   0       6.081  -5.691  -2.638  0.00  0.00    +0.223 C 
ATOM     23  O   UNK A   0       7.205  -5.827  -3.073  0.00  0.00    -0.275 OA
ATOM     24  N   TRP A   1       5.704  -6.355  -1.528  0.00  0.00    -0.301 N 
ATOM     25  H   TRP A   1       4.805  -6.246  -1.179  0.00  0.00    +0.150 HD
BRANCH  24  26
ATOM     26  CA  TRP A   1       6.651  -7.242  -0.847  0.00  0.00    +0.191 C 
BRANCH  26  27
ATOM     27  C   TRP A   1       6.621  -8.601  -1.496  0.00  0.00    +0.376 C 
ATOM     28  O   TRP A   1       7.623  -9.296  -1.502  0.00  0.00    -0.244 OA
ATOM     29  OXT TRP A   1       5.595  -9.007  -2.015  0.00  0.00    -0.244 OA
ENDBRANCH  26  27
BRANCH  26  30
ATOM     30  CB  TRP A   1       6.259  -7.371   0.626  0.00  0.00    +0.071 C 
BRANCH  30  31
ATOM     31  CG  TRP A   1       6.407  -6.034   1.305  0.00  0.00    -0.020 A 
ATOM     32  CD2 TRP A   1       5.413  -4.958   1.337  0.00  0.00    +0.003 A 
ATOM     33  CE3 TRP A   1       4.128  -4.809   0.812  0.00  0.00    +0.010 A 
ATOM     34  CZ3 TRP A   1       3.439  -3.648   1.024  0.00  0.00    +0.001 A 
ATOM     35  CH2 TRP A   1       4.007  -2.615   1.757  0.00  0.00    +0.002 A 
ATOM     36  CZ2 TRP A   1       5.274  -2.741   2.284  0.00  0.00    +0.026 A 
ATOM     37  CE2 TRP A   1       5.993  -3.915   2.081  0.00  0.00    +0.047 A 
ATOM     38  NE1 TRP A   1       7.245  -4.338   2.466  0.00  0.00    -0.360 N 
ATOM     39  CD1 TRP A   1       7.472  -5.604   2.000  0.00  0.00    +0.087 A 
ATOM     40  HE1 TRP A   1       7.872  -3.818   2.993  0.00  0.00    +0.165 HD
ENDBRANCH  30  31
ENDBRANCH  26  30
ENDBRANCH  24  26
ENDBRANCH  21  22
ENDBRANCH   1  21
TORSDOF 9
