REMARK  Name = ZINC61224882
REMARK  8 active torsions:
REMARK  status: ('A' for Active; 'I' for Inactive)
REMARK    1  A    between atoms: C_1  and  C_2
REMARK    2  A    between atoms: C_2  and  N_3
REMARK    3  A    between atoms: N_3  and  C_4
REMARK    4  A    between atoms: C_4  and  C_5
REMARK    5  A    between atoms: C_5  and  C_7
REMARK    6  A    between atoms: C_5  and  C_8
REMARK    7  A    between atoms: N_13  and  C_14
REMARK    8  A    between atoms: C_19  and  N_20
REMARK                            x       y       z     vdW  Elec       q    Type
REMARK                         _______ _______ _______ _____ _____    ______ ____
ROOT
ATOM      1  N   UNL     1       0.713  -0.473   1.193  0.00  0.00    -0.285 N 
ATOM      2  C   UNL     1       2.042  -0.692   1.143  0.00  0.00    +0.307 C 
ATOM      3  O   UNL     1       2.629  -1.101   2.126  0.00  0.00    -0.252 OA
ATOM      4  N   UNL     1       2.721  -0.456   0.003  0.00  0.00    -0.268 N 
ATOM      5  H   UNL     1       2.243  -0.207  -0.804  0.00  0.00    +0.156 HD
ENDROOT
BRANCH   4   6
ATOM      6  C   UNL     1       4.118  -0.569  -0.018  0.00  0.00    +0.055 A 
ATOM      7  C   UNL     1       4.846  -0.411   1.152  0.00  0.00    +0.025 A 
ATOM      8  C   UNL     1       6.223  -0.523   1.130  0.00  0.00    +0.002 A 
ATOM      9  C   UNL     1       6.880  -0.793  -0.057  0.00  0.00    +0.002 A 
ATOM     10  C   UNL     1       6.163  -0.951  -1.228  0.00  0.00    +0.024 A 
ATOM     11  C   UNL     1       4.780  -0.847  -1.213  0.00  0.00    +0.046 A 
BRANCH  11  12
ATOM     12  N   UNL     1       4.051  -1.014  -2.396  0.00  0.00    -0.357 N 
ATOM     13  H   UNL     1       3.084  -0.936  -2.385  0.00  0.00    +0.142 HD
ATOM     14  H   UNL     1       4.513  -1.207  -3.227  0.00  0.00    +0.142 HD
ENDBRANCH  11  12
ENDBRANCH   4   6
BRANCH   1  16
ATOM     15  C   UNL     1      -0.001   1.550   0.020  0.00  0.00    +0.024 C 
ATOM     16  C   UNL     1       0.006   0.021   0.009  0.00  0.00    +0.106 C 
ENDBRANCH   1  16
BRANCH   1  17
ATOM     17  C   UNL     1      -0.025  -0.730   2.433  0.00  0.00    +0.123 C 
BRANCH  17  18
ATOM     18  C   UNL     1      -0.521  -2.177   2.441  0.00  0.00    +0.116 C 
ATOM     19  C   UNL     1       0.678  -3.127   2.479  0.00  0.00    +0.021 C 
BRANCH  18  20
ATOM     20  C   UNL     1      -1.383  -2.406   3.655  0.00  0.00    +0.360 C 
ATOM     21  O   UNL     1      -1.582  -1.496   4.442  0.00  0.00    -0.246 OA
ATOM     22  O   UNL     1      -1.881  -3.502   3.852  0.00  0.00    -0.246 OA
ENDBRANCH  18  20
ENDBRANCH  17  18
ENDBRANCH   1  17
TORSDOF 6
