REMARK  Name = ZINC09235372
REMARK  7 active torsions:
REMARK  status: ('A' for Active; 'I' for Inactive)
REMARK    1  A    between atoms: C_4  and  C_7
REMARK    2  A    between atoms: C_7  and  C_8
REMARK    3  A    between atoms: C_8  and  C_10
REMARK    4  A    between atoms: C_8  and  N_30
REMARK    5  A    between atoms: C_17  and  C_18
REMARK    6  A    between atoms: C_17  and  C_24
REMARK    7  A    between atoms: C_17  and  N_71
REMARK                            x       y       z     vdW  Elec       q    Type
REMARK                         _______ _______ _______ _____ _____    ______ ____
ROOT
ATOM      1  C   UNL     1       0.094  -1.885   2.185  0.00  0.00    +0.237 C 
ATOM      2  O   UNL     1      -0.868  -2.620   2.266  0.00  0.00    -0.274 OA
ATOM      3  N   UNL     1       1.292  -2.382   1.817  0.00  0.00    -0.303 N 
ATOM      4  C   UNL     1       2.469  -1.508   1.707  0.00  0.00    +0.089 C 
ATOM      5  C   UNL     1       3.615  -2.139   2.513  0.00  0.00    -0.058 C 
ATOM      6  C   UNL     1       2.639  -4.351   2.318  0.00  0.00    -0.058 C 
ATOM      7  C   UNL     1       1.454  -3.811   1.510  0.00  0.00    +0.089 C 
ATOM      8  N   UNL     1       3.829  -3.521   2.029  0.00  0.00    +0.389 N 
ATOM      9  H   UNL     1       3.980  -3.497   1.014  0.00  0.00    -0.080 HD
ENDROOT
BRANCH   1  10
ATOM     10  C   UNL     1      -0.051  -0.418   2.496  0.00  0.00    +0.175 C 
BRANCH  10  11
ATOM     11  N   UNL     1      -1.254  -0.206   3.304  0.00  0.00    -0.222 N 
ATOM     12  C   UNL     1      -2.502  -0.516   2.907  0.00  0.00    +0.255 C 
ATOM     13  O   UNL     1      -2.804  -1.009   1.839  0.00  0.00    -0.270 OA
ATOM     14  C   UNL     1      -3.443  -0.159   3.990  0.00  0.00    +0.049 A 
ATOM     15  C   UNL     1      -4.817  -0.249   4.146  0.00  0.00    +0.014 A 
ATOM     16  C   UNL     1      -5.405   0.194   5.321  0.00  0.00    +0.001 A 
ATOM     17  C   UNL     1      -4.630   0.724   6.336  0.00  0.00    +0.001 A 
ATOM     18  C   UNL     1      -3.255   0.820   6.193  0.00  0.00    +0.014 A 
ATOM     19  C   UNL     1      -2.653   0.381   5.024  0.00  0.00    +0.049 A 
ATOM     20  C   UNL     1      -1.258   0.330   4.538  0.00  0.00    +0.255 C 
ATOM     21  O   UNL     1      -0.280   0.708   5.149  0.00  0.00    -0.270 OA
ENDBRANCH  10  11
BRANCH  10  22
ATOM     22  C   UNL     1      -0.168   0.371   1.190  0.00  0.00    +0.067 C 
BRANCH  22  26
ATOM     23  C   UNL     1      -0.227   4.554   2.053  0.00  0.00    +0.000 A 
ATOM     24  C   UNL     1       0.977   3.912   1.828  0.00  0.00    +0.000 A 
ATOM     25  C   UNL     1       0.996   2.558   1.549  0.00  0.00    +0.004 A 
ATOM     26  C   UNL     1      -0.188   1.847   1.495  0.00  0.00    -0.045 A 
ATOM     27  C   UNL     1      -1.392   2.490   1.715  0.00  0.00    +0.004 A 
ATOM     28  C   UNL     1      -1.411   3.843   1.999  0.00  0.00    +0.000 A 
ENDBRANCH  22  26
ENDBRANCH  10  22
ENDBRANCH   1  10
BRANCH   8  29
ATOM     29  C   UNL     1       5.021  -4.104   2.678  0.00  0.00    -0.007 C 
BRANCH  29  30
ATOM     30  C   UNL     1       5.299  -5.451   2.062  0.00  0.00    -0.057 A 
ATOM     31  C   UNL     1       5.207  -5.617   0.693  0.00  0.00    +0.002 A 
ATOM     32  C   UNL     1       5.467  -6.852   0.128  0.00  0.00    +0.000 A 
ATOM     33  C   UNL     1       5.810  -7.922   0.932  0.00  0.00    +0.000 A 
ATOM     34  C   UNL     1       5.896  -7.757   2.302  0.00  0.00    +0.000 A 
ATOM     35  C   UNL     1       5.641  -6.522   2.867  0.00  0.00    +0.002 A 
ENDBRANCH  29  30
BRANCH  29  36
ATOM     36  C   UNL     1       6.199  -3.193   2.449  0.00  0.00    -0.057 A 
ATOM     37  C   UNL     1       6.423  -2.655   1.196  0.00  0.00    +0.002 A 
ATOM     38  C   UNL     1       7.501  -1.816   0.986  0.00  0.00    +0.000 A 
ATOM     39  C   UNL     1       8.362  -1.523   2.028  0.00  0.00    +0.000 A 
ATOM     40  C   UNL     1       8.141  -2.066   3.280  0.00  0.00    +0.000 A 
ATOM     41  C   UNL     1       7.060  -2.901   3.490  0.00  0.00    +0.002 A 
ENDBRANCH  29  36
ENDBRANCH   8  29
TORSDOF 7
