REMARK  Name = ZINC39684244
REMARK  8 active torsions:
REMARK  status: ('A' for Active; 'I' for Inactive)
REMARK    1  A    between atoms: C_1  and  C_2
REMARK    2  A    between atoms: C_7  and  C_11
REMARK    3  A    between atoms: C_11  and  C_12
REMARK    4  A    between atoms: C_12  and  N_13
REMARK    5  A    between atoms: C_14  and  C_16
REMARK    6  A    between atoms: C_27  and  C_29
REMARK    7  A    between atoms: C_30  and  C_35
REMARK    8  A    between atoms: C_33  and  C_34
REMARK                            x       y       z     vdW  Elec       q    Type
REMARK                         _______ _______ _______ _____ _____    ______ ____
ROOT
ATOM      1  C   UNL     1      -8.680   1.722  -6.216  0.00  0.00    +0.100 C 
ATOM      2  C   UNL     1      -8.192   2.852  -7.151  0.00  0.00    +0.121 C 
ATOM      3  N   UNL     1      -7.816   2.162  -8.407  0.00  0.00    -0.296 N 
ATOM      4  C   UNL     1      -8.858   1.122  -8.584  0.00  0.00    +0.115 C 
ATOM      5  C   UNL     1      -9.119   0.591  -7.161  0.00  0.00    -0.004 C 
ATOM      6  C   UNL     1     -10.604   0.292  -6.973  0.00  0.00    -0.010 C 
ATOM      7  C   UNL     1     -11.003  -0.876  -7.880  0.00  0.00    -0.082 C 
ATOM      8  N   UNL     1     -10.200  -2.057  -7.543  0.00  0.00    +0.379 N 
ATOM      9  C   UNL     1      -8.782  -1.792  -7.815  0.00  0.00    -0.082 C 
ATOM     10  C   UNL     1      -8.288  -0.663  -6.905  0.00  0.00    -0.010 C 
ATOM     11  C   UNL     1      -6.763   2.421  -9.208  0.00  0.00    +0.252 C 
ATOM     12  O   UNL     1      -6.588   1.761 -10.214  0.00  0.00    -0.270 OA
ATOM     13  H   UNL     1     -10.318  -2.275  -6.565  0.00  0.00    -0.086 HD
ATOM     14  H   UNL     1     -10.507  -2.841  -8.100  0.00  0.00    -0.086 HD
ENDROOT
BRANCH  11  15
ATOM     15  C   UNL     1      -5.825   3.506  -8.866  0.00  0.00    +0.101 A 
ATOM     16  C   UNL     1      -4.613   3.386  -8.055  0.00  0.00    +0.093 A 
ATOM     17  N   UNL     1      -4.075   4.569  -7.994  0.00  0.00    -0.083 NA
ATOM     18  O   UNL     1      -4.878   5.471  -8.729  0.00  0.00    -0.359 OA
ATOM     19  C   UNL     1      -5.918   4.813  -9.248  0.00  0.00    +0.147 A 
ATOM     20  C   UNL     1      -7.005   5.411 -10.103  0.00  0.00    +0.090 C 
ATOM     21  C   UNL     1      -4.086   2.130  -7.411  0.00  0.00    +0.070 C 
ENDBRANCH  11  15
BRANCH   1  23
ATOM     22  N   UNL     1      -7.833   0.682  -4.138  0.00  0.00    -0.315 N 
ATOM     23  C   UNL     1      -7.557   1.256  -5.326  0.00  0.00    +0.218 C 
ATOM     24  O   UNL     1      -6.405   1.399  -5.678  0.00  0.00    -0.275 OA
ATOM     25  H   UNL     1      -8.754   0.569  -3.857  0.00  0.00    +0.149 HD
BRANCH  22  26
ATOM     26  C   UNL     1      -6.741   0.230  -3.272  0.00  0.00    +0.109 C 
BRANCH  26  27
ATOM     27  C   UNL     1      -7.323  -0.381  -1.995  0.00  0.00    +0.056 C 
BRANCH  27  34
ATOM     28  C   UNL     1      -2.633  -1.299   2.065  0.00  0.00    +0.046 C 
ATOM     29  C   UNL     1      -3.648  -0.392   1.418  0.00  0.00    -0.027 A 
ATOM     30  C   UNL     1      -3.723   0.934   1.784  0.00  0.00    +0.005 A 
ATOM     31  C   UNL     1      -4.653   1.780   1.196  0.00  0.00    +0.001 A 
ATOM     32  C   UNL     1      -5.513   1.310   0.242  0.00  0.00    +0.010 A 
ATOM     33  C   UNL     1      -5.454  -0.030  -0.143  0.00  0.00    +0.003 A 
ATOM     34  C   UNL     1      -6.200  -0.846  -1.105  0.00  0.00    -0.021 A 
ATOM     35  C   UNL     1      -5.693  -2.088  -1.042  0.00  0.00    +0.087 A 
ATOM     36  N   UNL     1      -4.684  -2.134  -0.118  0.00  0.00    -0.360 N 
ATOM     37  C   UNL     1      -4.509  -0.890   0.446  0.00  0.00    +0.050 A 
ATOM     38  H   UNL     1      -4.167  -2.924   0.103  0.00  0.00    +0.165 HD
ENDBRANCH  27  34
ENDBRANCH  26  27
ENDBRANCH  22  26
ENDBRANCH   1  23
TORSDOF 5
