REMARK  Name = ZINC63221898
REMARK  11 active torsions:
REMARK  status: ('A' for Active; 'I' for Inactive)
REMARK    1  A    between atoms: C_1  and  C_2
REMARK    2  A    between atoms: C_5  and  C_8
REMARK    3  A    between atoms: N_10  and  C_11
REMARK    4  A    between atoms: C_11  and  C_12
REMARK    5  A    between atoms: N_14  and  C_15
REMARK    6  A    between atoms: C_15  and  C_16
REMARK    7  A    between atoms: C_16  and  C_18
REMARK    8  A    between atoms: C_16  and  C_27
REMARK    9  A    between atoms: C_21  and  N_24
REMARK   10  A    between atoms: N_24  and  C_25
REMARK   11  A    between atoms: N_24  and  C_26
REMARK                            x       y       z     vdW  Elec       q    Type
REMARK                         _______ _______ _______ _____ _____    ______ ____
ROOT
ATOM      1  C   UNL     1       0.157 -10.262   4.160  0.00  0.00    +0.064 C 
ENDROOT
BRANCH   1   2
ATOM      2  C   UNL     1      -1.119 -10.792   3.558  0.00  0.00    -0.033 C 
ATOM      3  C   UNL     1      -1.237 -11.574   2.461  0.00  0.00    -0.000 A 
ATOM      4  C   UNL     1      -0.251 -12.142   1.534  0.00  0.00    +0.010 A 
ATOM      5  C   UNL     1      -0.682 -12.903   0.502  0.00  0.00    +0.001 A 
ATOM      6  C   UNL     1      -2.044 -13.162   0.297  0.00  0.00    +0.002 A 
ATOM      7  C   UNL     1      -3.009 -12.676   1.105  0.00  0.00    +0.026 A 
ATOM      8  C   UNL     1      -2.669 -11.863   2.222  0.00  0.00    +0.043 A 
ATOM      9  N   UNL     1      -3.408 -11.283   3.136  0.00  0.00    -0.380 N 
ATOM     10  C   UNL     1      -2.526 -10.564   4.063  0.00  0.00    +0.145 C 
ATOM     11  H   UNL     1      -4.375 -11.325   3.193  0.00  0.00    +0.160 HD
ENDBRANCH   1   2
BRANCH   1  12
ATOM     12  C   UNL     1       0.295 -10.769   5.572  0.00  0.00    -0.039 A 
ATOM     13  C   UNL     1      -0.674 -10.468   6.511  0.00  0.00    +0.006 A 
ATOM     14  C   UNL     1      -0.551 -10.932   7.807  0.00  0.00    +0.023 A 
ATOM     15  C   UNL     1       0.549 -11.701   8.165  0.00  0.00    +0.029 A 
ATOM     16  C   UNL     1       1.521 -12.001   7.220  0.00  0.00    +0.023 A 
ATOM     17  C   UNL     1       1.388 -11.539   5.925  0.00  0.00    +0.006 A 
BRANCH  15  18
ATOM     18  N   UNL     1       0.677 -12.171   9.475  0.00  0.00    -0.336 N 
ATOM     19  C   UNL     1      -0.280 -11.750  10.501  0.00  0.00    +0.129 C 
ATOM     20  C   UNL     1       1.769 -13.084   9.821  0.00  0.00    +0.129 C 
ENDBRANCH  15  18
ENDBRANCH   1  12
BRANCH   1  21
ATOM     21  C   UNL     1       0.119  -8.732   4.169  0.00  0.00    +0.116 C 
BRANCH  21  24
ATOM     22  C   UNL     1       0.072  -6.910   2.552  0.00  0.00    +0.230 C 
ATOM     23  O   UNL     1       0.053  -6.128   3.479  0.00  0.00    -0.274 OA
ATOM     24  N   UNL     1       0.105  -8.236   2.791  0.00  0.00    -0.313 N 
ATOM     25  H   UNL     1       0.119  -8.862   2.050  0.00  0.00    +0.149 HD
BRANCH  22  26
ATOM     26  C   UNL     1       0.057  -6.400   1.134  0.00  0.00    +0.200 C 
BRANCH  26  29
ATOM     27  C   UNL     1       0.003  -4.255  -0.020  0.00  0.00    +0.244 C 
ATOM     28  O   UNL     1       0.016  -4.856  -1.077  0.00  0.00    -0.270 OA
ATOM     29  N   UNL     1       0.021  -4.935   1.143  0.00  0.00    -0.303 N 
ATOM     30  H   UNL     1       0.010  -4.455   1.986  0.00  0.00    +0.150 HD
BRANCH  27  35
ATOM     31  C   UNL     1      -0.141   1.498   0.013  0.00  0.00    +0.044 C 
ATOM     32  C   UNL     1      -0.103  -0.008   0.005  0.00  0.00    -0.050 A 
ATOM     33  C   UNL     1      -0.088  -0.690  -1.199  0.00  0.00    +0.004 A 
ATOM     34  C   UNL     1      -0.053  -2.069  -1.214  0.00  0.00    +0.013 A 
ATOM     35  C   UNL     1      -0.034  -2.777  -0.012  0.00  0.00    +0.037 A 
ATOM     36  C   UNL     1      -0.050  -2.083   1.200  0.00  0.00    +0.013 A 
ATOM     37  C   UNL     1      -0.079  -0.704   1.201  0.00  0.00    +0.004 A 
ENDBRANCH  27  35
ENDBRANCH  26  29
ENDBRANCH  22  26
ENDBRANCH  21  24
ENDBRANCH   1  21
TORSDOF 8
