REMARK  Name = ZINC10232994
REMARK  10 active torsions:
REMARK  status: ('A' for Active; 'I' for Inactive)
REMARK    1  A    between atoms: C_1  and  O_2
REMARK    2  A    between atoms: O_2  and  C_3
REMARK    3  A    between atoms: C_5  and  C_13
REMARK    4  A    between atoms: C_7  and  O_11
REMARK    5  A    between atoms: C_8  and  O_9
REMARK    6  A    between atoms: O_9  and  C_10
REMARK    7  A    between atoms: O_11  and  C_12
REMARK    8  A    between atoms: C_14  and  O_15
REMARK    9  A    between atoms: C_25  and  C_27
REMARK   10  A    between atoms: C_31  and  N_33
REMARK                            x       y       z     vdW  Elec       q    Type
REMARK                         _______ _______ _______ _____ _____    ______ ____
ROOT
ATOM      1  C   UNL     1       2.234   8.160   0.018  0.00  0.00    +0.052 A 
ATOM      2  C   UNL     1       2.264   9.548   0.024  0.00  0.00    +0.135 A 
ATOM      3  C   UNL     1       1.166  10.506   0.039  0.00  0.00    +0.031 A 
ATOM      4  C   UNL     1       1.421  11.886   0.043  0.00  0.00    +0.012 A 
ATOM      5  C   UNL     1       0.385  12.773   0.057  0.00  0.00    +0.001 A 
ATOM      6  C   UNL     1      -0.935  12.344   0.067  0.00  0.00    +0.001 A 
ATOM      7  C   UNL     1      -1.221  10.991   0.063  0.00  0.00    +0.016 A 
ATOM      8  C   UNL     1      -0.180  10.087   0.049  0.00  0.00    +0.025 A 
ATOM      9  S   UNL     1      -0.446   8.333   0.038  0.00  0.00    -0.073 S 
ATOM     10  C   UNL     1       1.069   7.390   0.026  0.00  0.00    +0.084 A 
ATOM     11  N   UNL     1       1.088   6.012   0.020  0.00  0.00    -0.275 N 
ATOM     12  C   UNL     1      -0.070   5.322   0.029  0.00  0.00    +0.249 C 
ATOM     13  O   UNL     1      -1.131   5.916   0.041  0.00  0.00    -0.270 OA
ATOM     14  H   UNL     1       2.048   5.475   0.009  0.00  0.00    +0.156 HD
ENDROOT
BRANCH   1  17
ATOM     15  C   UNL     1       5.590   6.888  -1.110  0.00  0.00    +0.166 A 
ATOM     16  C   UNL     1       4.379   7.558  -1.098  0.00  0.00    +0.058 A 
ATOM     17  C   UNL     1       3.531   7.444   0.003  0.00  0.00    -0.005 A 
ATOM     18  C   UNL     1       3.909   6.660   1.093  0.00  0.00    +0.058 A 
ATOM     19  C   UNL     1       5.119   5.988   1.075  0.00  0.00    +0.166 A 
ATOM     20  C   UNL     1       5.963   6.103  -0.025  0.00  0.00    +0.204 A 
BRANCH  15  22
ATOM     21  C   UNL     1       5.972   7.822  -3.264  0.00  0.00    +0.277 C 
ATOM     22  O   UNL     1       6.417   6.999  -2.184  0.00  0.00    -0.491 OA
ENDBRANCH  15  22
BRANCH  20  23
ATOM     23  O   UNL     1       7.155   5.446  -0.038  0.00  0.00    -0.488 OA
ATOM     24  C   UNL     1       8.285   6.141   0.492  0.00  0.00    +0.277 C 
ENDBRANCH  20  23
BRANCH  19  25
ATOM     25  O   UNL     1       5.486   5.220   2.135  0.00  0.00    -0.491 OA
ATOM     26  C   UNL     1       4.571   5.147   3.231  0.00  0.00    +0.277 C 
ENDBRANCH  19  25
ENDBRANCH   1  17
BRANCH  12  27
ATOM     27  C   UNL     1      -0.050   3.845   0.022  0.00  0.00    +0.039 A 
ATOM     28  C   UNL     1       1.167   3.160   0.007  0.00  0.00    +0.013 A 
ATOM     29  C   UNL     1       1.178   1.781   0.000  0.00  0.00    +0.003 A 
ATOM     30  C   UNL     1      -0.013   1.076   0.008  0.00  0.00    +0.033 A 
ATOM     31  C   UNL     1      -1.222   1.748   0.017  0.00  0.00    +0.127 A 
ATOM     32  C   UNL     1      -1.248   3.127   0.030  0.00  0.00    +0.045 A 
BRANCH  31  33
ATOM     33  N   UNL     1      -2.490   0.986   0.019  0.00  0.00    +0.056 N 
ATOM     34  O   UNL     1      -2.469  -0.232   0.013  0.00  0.00    -0.126 OA
ATOM     35  O   UNL     1      -3.556   1.576   0.028  0.00  0.00    -0.126 OA
ENDBRANCH  31  33
ENDBRANCH  12  27
BRANCH   2  36
ATOM     36  O   UNL     1       3.381  10.041   0.016  0.00  0.00    -0.505 OA
ATOM     37  H   UNL     1       3.500  11.135   0.019  0.00  0.00    +0.292 HD
ENDBRANCH   2  36
TORSDOF 7
