REMARK  Name = ZINC12710885
REMARK  9 active torsions:
REMARK  status: ('A' for Active; 'I' for Inactive)
REMARK    1  A    between atoms: C_3  and  C_6
REMARK    2  A    between atoms: C_6  and  N_7
REMARK    3  A    between atoms: N_7  and  C_8
REMARK    4  A    between atoms: C_8  and  C_10
REMARK    5  A    between atoms: C_8  and  C_15
REMARK    6  A    between atoms: N_17  and  C_18
REMARK    7  A    between atoms: C_24  and  C_26
REMARK    8  A    between atoms: C_27  and  N_34
REMARK    9  A    between atoms: C_28  and  C_31
REMARK                            x       y       z     vdW  Elec       q    Type
REMARK                         _______ _______ _______ _____ _____    ______ ____
ROOT
ATOM      1  N   UNL     1       1.562  -0.631   0.340  0.00  0.00    -0.274 N 
ATOM      2  C   UNL     1       0.873   0.362   0.937  0.00  0.00    +0.258 C 
ATOM      3  O   UNL     1      -0.340   0.403   0.843  0.00  0.00    -0.269 OA
ENDROOT
BRANCH   2   4
ATOM      4  C   UNL     1       1.583   1.390   1.699  0.00  0.00    +0.115 A 
ATOM      5  C   UNL     1       1.091   2.563   2.276  0.00  0.00    +0.076 A 
ATOM      6  C   UNL     1       2.083   3.293   2.930  0.00  0.00    +0.155 A 
ATOM      7  N   UNL     1       3.318   2.841   2.934  0.00  0.00    -0.203 NA
ATOM      8  S   UNL     1       3.308   1.485   2.132  0.00  0.00    +0.019 S 
BRANCH   6   9
ATOM      9  C   UNL     1       1.752   4.561   3.605  0.00  0.00    +0.262 C 
ATOM     10  O   UNL     1       0.608   4.973   3.597  0.00  0.00    -0.269 OA
ATOM     11  N   UNL     1       2.717   5.264   4.231  0.00  0.00    -0.324 N 
ATOM     12  H   UNL     1       3.629   4.935   4.237  0.00  0.00    +0.145 HD
ATOM     13  H   UNL     1       2.499   6.098   4.675  0.00  0.00    +0.145 HD
ENDBRANCH   6   9
BRANCH   5  14
ATOM     14  N   UNL     1      -0.238   2.957   2.207  0.00  0.00    -0.355 N 
ATOM     15  H   UNL     1      -0.884   2.405   1.739  0.00  0.00    +0.142 HD
ATOM     16  H   UNL     1      -0.521   3.784   2.628  0.00  0.00    +0.142 HD
ENDBRANCH   5  14
ENDBRANCH   2   4
BRANCH   1  17
ATOM     17  C   UNL     1       3.002  -0.764   0.569  0.00  0.00    +0.183 C 
BRANCH  17  20
ATOM     18  C   UNL     1       4.755   1.402  -1.843  0.00  0.00    +0.041 A 
ATOM     19  C   UNL     1       4.047   1.214  -0.634  0.00  0.00    +0.046 A 
ATOM     20  C   UNL     1       3.754  -0.096  -0.554  0.00  0.00    +0.122 A 
ATOM     21  O   UNL     1       4.249  -0.709  -1.641  0.00  0.00    -0.466 OA
ATOM     22  C   UNL     1       4.852   0.195  -2.429  0.00  0.00    +0.195 A 
ENDBRANCH  17  20
ENDBRANCH   1  17
BRANCH   1  23
ATOM     23  C   UNL     1       0.870  -1.577  -0.539  0.00  0.00    +0.199 C 
BRANCH  23  24
ATOM     24  C   UNL     1       1.022  -2.973   0.007  0.00  0.00    +0.019 A 
ATOM     25  C   UNL     1       0.085  -3.944   0.141  0.00  0.00    +0.013 A 
ATOM     26  C   UNL     1       0.457  -5.165   0.671  0.00  0.00    +0.008 A 
ATOM     27  C   UNL     1       1.744  -5.353   1.050  0.00  0.00    +0.045 A 
ATOM     28  S   UNL     1       2.480  -3.776   0.652  0.00  0.00    -0.099 S 
ENDBRANCH  23  24
BRANCH  23  29
ATOM     29  C   UNL     1       1.468  -1.510  -1.921  0.00  0.00    +0.239 C 
ATOM     30  O   UNL     1       2.078  -0.521  -2.270  0.00  0.00    -0.273 OA
ATOM     31  N   UNL     1       1.327  -2.548  -2.768  0.00  0.00    -0.311 N 
ATOM     32  H   UNL     1       0.839  -3.339  -2.488  0.00  0.00    +0.149 HD
BRANCH  31  33
ATOM     33  C   UNL     1       1.909  -2.483  -4.110  0.00  0.00    +0.073 C 
ATOM     34  C   UNL     1       0.937  -1.771  -5.053  0.00  0.00    +0.022 C 
ATOM     35  C   UNL     1       1.545  -1.703  -6.456  0.00  0.00    +0.002 C 
ATOM     36  C   UNL     1       1.806  -3.120  -6.968  0.00  0.00    +0.000 C 
ATOM     37  C   UNL     1       2.778  -3.833  -6.025  0.00  0.00    +0.002 C 
ATOM     38  C   UNL     1       2.170  -3.901  -4.623  0.00  0.00    +0.022 C 
ENDBRANCH  31  33
ENDBRANCH  23  29
ENDBRANCH   1  23
TORSDOF 9
