REMARK  Name = ZINC38053238
REMARK  5 active torsions:
REMARK  status: ('A' for Active; 'I' for Inactive)
REMARK    1  A    between atoms: C_1  and  C_2
REMARK    2  A    between atoms: C_2  and  C_4
REMARK    3  A    between atoms: C_2  and  N_14
REMARK    4  A    between atoms: N_6  and  C_7
REMARK    5  A    between atoms: C_12  and  N_13
REMARK                            x       y       z     vdW  Elec       q    Type
REMARK                         _______ _______ _______ _____ _____    ______ ____
ROOT
ATOM      1  C   UNL     1       0.730  -0.500   1.224  0.00  0.00    +0.242 C 
ATOM      2  O   UNL     1       0.159  -1.215   2.021  0.00  0.00    -0.273 OA
ATOM      3  N   UNL     1       2.019  -0.161   1.426  0.00  0.00    -0.282 N 
ATOM      4  H   UNL     1       2.499   0.343   0.750  0.00  0.00    +0.155 HD
ENDROOT
BRANCH   3   5
ATOM      5  C   UNL     1       2.665  -0.537   2.611  0.00  0.00    +0.054 A 
ATOM      6  C   UNL     1       1.927  -0.779   3.760  0.00  0.00    +0.025 A 
ATOM      7  C   UNL     1       2.567  -1.149   4.928  0.00  0.00    +0.002 A 
ATOM      8  C   UNL     1       3.943  -1.280   4.955  0.00  0.00    +0.002 A 
ATOM      9  C   UNL     1       4.687  -1.042   3.815  0.00  0.00    +0.024 A 
ATOM     10  C   UNL     1       4.053  -0.676   2.637  0.00  0.00    +0.046 A 
BRANCH  10  11
ATOM     11  N   UNL     1       4.803  -0.440   1.480  0.00  0.00    -0.357 N 
ATOM     12  H   UNL     1       4.359  -0.179   0.658  0.00  0.00    +0.142 HD
ATOM     13  H   UNL     1       5.768  -0.536   1.500  0.00  0.00    +0.142 HD
ENDBRANCH  10  11
ENDBRANCH   3   5
BRANCH   1  15
ATOM     14  C   UNL     1      -0.021   1.539   0.029  0.00  0.00    +0.042 C 
ATOM     15  C   UNL     1      -0.002   0.009   0.009  0.00  0.00    +0.190 C 
BRANCH  15  16
ATOM     16  N   UNL     1      -1.377  -0.497   0.021  0.00  0.00    -0.258 N 
ATOM     17  C   UNL     1      -2.425   0.064   0.663  0.00  0.00    +0.129 A 
ATOM     18  C   UNL     1      -3.513  -0.705   0.424  0.00  0.00    +0.078 A 
ATOM     19  C   UNL     1      -3.118  -1.770  -0.392  0.00  0.00    +0.154 A 
ATOM     20  N   UNL     1      -1.839  -1.643  -0.638  0.00  0.00    -0.177 NA
ATOM     21 CL   UNL     1      -5.117  -0.418   1.025  0.00  0.00    -0.080 Cl
ENDBRANCH  15  16
ENDBRANCH   1  15
TORSDOF 4
