REMARK  Name = ZINC21737876
REMARK  7 active torsions:
REMARK  status: ('A' for Active; 'I' for Inactive)
REMARK    1  A    between atoms: C_1  and  C_2
REMARK    2  A    between atoms: C_15  and  C_17
REMARK    3  A    between atoms: C_17  and  C_19
REMARK    4  A    between atoms: C_17  and  S_20
REMARK    5  A    between atoms: S_20  and  C_21
REMARK    6  A    between atoms: N_26  and  C_27
REMARK    7  A    between atoms: C_27  and  C_28
REMARK                            x       y       z     vdW  Elec       q    Type
REMARK                         _______ _______ _______ _____ _____    ______ ____
ROOT
ATOM      1  C   UNL     1      -0.019   1.526   0.010  0.00  0.00    +0.008 C 
ATOM      2  C   UNL     1       0.002  -0.004   0.002  0.00  0.00    -0.009 C 
ATOM      3  C   UNL     1      -1.433  -0.537   0.021  0.00  0.00    +0.008 C 
ATOM      4  C   UNL     1      -1.430  -2.044  -0.237  0.00  0.00    +0.037 C 
ATOM      5  C   UNL     1      -0.472  -2.712   0.745  0.00  0.00    -0.023 A 
ATOM      6  C   UNL     1       0.476  -1.985   1.383  0.00  0.00    -0.004 A 
ATOM      7  S   UNL     1       1.343  -3.148   2.406  0.00  0.00    -0.073 S 
ATOM      8  C   UNL     1       0.437  -4.601   1.978  0.00  0.00    +0.116 A 
ATOM      9  C   UNL     1      -0.517  -4.131   1.048  0.00  0.00    +0.075 A 
ATOM     10  C   UNL     1      -1.426  -5.099   0.502  0.00  0.00    +0.260 A 
ATOM     11  O   UNL     1      -2.286  -4.796  -0.308  0.00  0.00    -0.267 OA
ATOM     12  N   UNL     1      -1.267  -6.369   0.944  0.00  0.00    -0.309 N 
ATOM     13  H   UNL     1      -1.860  -7.056   0.601  0.00  0.00    +0.170 HD
ATOM     14  C   UNL     1      -0.319  -6.726   1.843  0.00  0.00    +0.124 A 
ATOM     15  N   UNL     1       0.532  -5.869   2.365  0.00  0.00    -0.225 NA
ATOM     16  C   UNL     1       0.737  -0.516   1.249  0.00  0.00    +0.046 C 
ENDROOT
BRANCH  14  17
ATOM     17  C   UNL     1      -0.234  -8.170   2.263  0.00  0.00    +0.116 C 
ATOM     18  C   UNL     1      -1.028  -8.373   3.555  0.00  0.00    +0.027 C 
BRANCH  17  19
ATOM     19  S   UNL     1       1.502  -8.617   2.545  0.00  0.00    -0.086 S 
BRANCH  19  20
ATOM     20  C   UNL     1       1.448 -10.347   2.879  0.00  0.00    +0.161 A 
ATOM     21  N   UNL     1       0.409 -11.159   2.917  0.00  0.00    -0.133 NA
ATOM     22  N   UNL     1       0.593 -12.492   3.201  0.00  0.00    -0.125 NA
ATOM     23  C   UNL     1       1.806 -12.953   3.433  0.00  0.00    +0.182 A 
ATOM     24  S   UNL     1       2.786 -11.470   3.249  0.00  0.00    -0.025 S 
ATOM     25  N   UNL     1       2.214 -14.246   3.736  0.00  0.00    -0.320 N 
ATOM     26  H   UNL     1       3.154 -14.436   3.884  0.00  0.00    +0.148 HD
BRANCH  25  27
ATOM     27  C   UNL     1       1.225 -15.323   3.831  0.00  0.00    +0.135 C 
BRANCH  27  28
ATOM     28  C   UNL     1       1.933 -16.636   4.172  0.00  0.00    +0.135 C 
ATOM     29  C   UNL     1       0.916 -17.798   4.156  0.00  0.00    +0.035 C 
ATOM     30  C   UNL     1       1.377 -18.656   5.366  0.00  0.00    +0.031 C 
ATOM     31  C   UNL     1       1.877 -17.555   6.334  0.00  0.00    +0.160 C 
ATOM     32  O   UNL     1       2.486 -16.561   5.491  0.00  0.00    -0.375 OA
ENDBRANCH  27  28
ENDBRANCH  25  27
ENDBRANCH  19  20
ENDBRANCH  17  19
ENDBRANCH  14  17
TORSDOF 5
