REMARK  Name = ZINC16436175
REMARK  17 active torsions:
REMARK  status: ('A' for Active; 'I' for Inactive)
REMARK    1  A    between atoms: C_1  and  C_2
REMARK    2  A    between atoms: C_5  and  N_9
REMARK    3  A    between atoms: C_6  and  C_8
REMARK    4  A    between atoms: C_10  and  N_18
REMARK    5  A    between atoms: C_12  and  C_14
REMARK    6  A    between atoms: C_14  and  C_15
REMARK    7  A    between atoms: C_14  and  C_16
REMARK    8  A    between atoms: C_14  and  C_17
REMARK    9  A    between atoms: C_19  and  C_21
REMARK   10  A    between atoms: C_21  and  N_22
REMARK   11  A    between atoms: N_22  and  C_23
REMARK   12  A    between atoms: C_23  and  C_24
REMARK   13  A    between atoms: C_24  and  C_25
REMARK   14  A    between atoms: C_24  and  C_26
REMARK   15  A    between atoms: N_29  and  C_30
REMARK   16  A    between atoms: C_33  and  C_37
REMARK   17  A    between atoms: C_34  and  C_36
REMARK                            x       y       z     vdW  Elec       q    Type
REMARK                         _______ _______ _______ _____ _____    ______ ____
ROOT
ATOM      1  N   UNL     1       1.140  -0.838   0.623  0.00  0.00    -0.269 N 
ATOM      2  C   UNL     1      -0.065  -1.361   0.324  0.00  0.00    +0.236 C 
ATOM      3  O   UNL     1      -0.999  -0.629   0.073  0.00  0.00    -0.274 OA
ATOM      4  H   UNL     1       1.887  -1.423   0.824  0.00  0.00    +0.156 HD
ENDROOT
BRANCH   1   6
ATOM      5  N   UNL     1       2.434   1.211   1.035  0.00  0.00    -0.218 N 
ATOM      6  C   UNL     1       1.313   0.546   0.644  0.00  0.00    +0.129 A 
ATOM      7  C   UNL     1       0.395   1.478   0.272  0.00  0.00    +0.069 A 
ATOM      8  C   UNL     1       0.968   2.741   0.450  0.00  0.00    +0.071 A 
ATOM      9  N   UNL     1       2.186   2.583   0.902  0.00  0.00    -0.169 NA
BRANCH   5  14
ATOM     10  C   UNL     1       7.255  -1.151   2.876  0.00  0.00    +0.044 C 
ATOM     11  C   UNL     1       5.975  -0.524   2.388  0.00  0.00    -0.050 A 
ATOM     12  C   UNL     1       4.761  -0.947   2.897  0.00  0.00    +0.005 A 
ATOM     13  C   UNL     1       3.586  -0.370   2.455  0.00  0.00    +0.028 A 
ATOM     14  C   UNL     1       3.625   0.628   1.490  0.00  0.00    +0.070 A 
ATOM     15  C   UNL     1       4.845   1.050   0.980  0.00  0.00    -0.025 A 
ATOM     16  C   UNL     1       6.017   0.473   1.431  0.00  0.00    +0.008 A 
ATOM     17  C   UNL     1       4.892   2.137  -0.062  0.00  0.00    +0.046 C 
ENDBRANCH   5  14
BRANCH   8  18
ATOM     18  C   UNL     1       0.299   4.060   0.163  0.00  0.00    +0.006 C 
ATOM     19  C   UNL     1      -0.717   4.367   1.265  0.00  0.00    +0.017 C 
ATOM     20  C   UNL     1       1.353   5.168   0.119  0.00  0.00    +0.017 C 
ATOM     21  C   UNL     1      -0.419   3.986  -1.186  0.00  0.00    +0.017 C 
ENDBRANCH   8  18
ENDBRANCH   1   6
BRANCH   2  22
ATOM     22  C   UNL     1      -0.253  -2.856   0.302  0.00  0.00    +0.205 C 
BRANCH  22  23
ATOM     23  N   UNL     1      -1.606  -3.172  -0.163  0.00  0.00    -0.276 N 
ATOM     24  C   UNL     1      -1.826  -3.436  -1.466  0.00  0.00    +0.307 C 
ATOM     25  O   UNL     1      -0.902  -3.412  -2.256  0.00  0.00    -0.252 OA
ATOM     26  N   UNL     1      -3.071  -3.726  -1.894  0.00  0.00    -0.269 N 
ATOM     27  H   UNL     1      -3.819  -3.676  -1.279  0.00  0.00    +0.156 HD
BRANCH  26  28
ATOM     28  C   UNL     1      -3.284  -4.100  -3.225  0.00  0.00    +0.035 A 
ATOM     29  C   UNL     1      -2.528  -3.525  -4.239  0.00  0.00    +0.023 A 
ATOM     30  C   UNL     1      -2.737  -3.900  -5.552  0.00  0.00    +0.005 A 
ATOM     31  C   UNL     1      -3.705  -4.839  -5.858  0.00  0.00    -0.047 A 
ATOM     32  C   UNL     1      -4.463  -5.409  -4.852  0.00  0.00    -0.046 A 
ATOM     33  C   UNL     1      -4.255  -5.043  -3.537  0.00  0.00    +0.027 A 
ATOM     34  C   UNL     1      -5.516  -6.433  -5.191  0.00  0.00    +0.044 C 
ATOM     35  C   UNL     1      -3.935  -5.242  -7.292  0.00  0.00    +0.044 C 
ENDBRANCH  26  28
BRANCH  23  36
ATOM     36  C   UNL     1      -2.719  -3.201   0.789  0.00  0.00    +0.113 C 
BRANCH  36  37
ATOM     37  C   UNL     1      -2.789  -4.578   1.451  0.00  0.00    +0.000 C 
ATOM     38  C   UNL     1      -3.862  -4.566   2.541  0.00  0.00    +0.009 C 
ATOM     39  C   UNL     1      -3.142  -5.632   0.399  0.00  0.00    +0.009 C 
ENDBRANCH  36  37
ENDBRANCH  23  36
ENDBRANCH  22  23
ENDBRANCH   2  22
TORSDOF 8
