REMARK  Name = ZINC59038518
REMARK  11 active torsions:
REMARK  status: ('A' for Active; 'I' for Inactive)
REMARK    1  A    between atoms: C_1  and  C_2
REMARK    2  A    between atoms: C_2  and  N_3
REMARK    3  A    between atoms: N_3  and  C_4
REMARK    4  A    between atoms: N_3  and  C_6
REMARK    5  A    between atoms: C_4  and  C_5
REMARK    6  A    between atoms: C_9  and  N_13
REMARK    7  A    between atoms: C_11  and  C_12
REMARK    8  A    between atoms: C_14  and  C_16
REMARK    9  A    between atoms: C_16  and  S_17
REMARK   10  A    between atoms: S_17  and  C_18
REMARK   11  A    between atoms: C_23  and  C_27
REMARK                            x       y       z     vdW  Elec       q    Type
REMARK                         _______ _______ _______ _____ _____    ______ ____
ROOT
ATOM      1  N   UNL     1       1.479  -5.881   0.694  0.00  0.00    -0.285 N 
ATOM      2  C   UNL     1       0.594  -6.671   0.054  0.00  0.00    +0.227 C 
ATOM      3  O   UNL     1      -0.364  -6.181  -0.504  0.00  0.00    -0.275 OA
ATOM      4  H   UNL     1       2.283  -6.265   1.078  0.00  0.00    +0.155 HD
ENDROOT
BRANCH   1   8
ATOM      5  C   UNL     1       0.762  -1.790   1.020  0.00  0.00    +0.017 A 
ATOM      6  C   UNL     1      -0.296  -2.681   1.050  0.00  0.00    +0.024 A 
ATOM      7  C   UNL     1      -0.062  -4.037   0.942  0.00  0.00    +0.025 A 
ATOM      8  C   UNL     1       1.238  -4.507   0.803  0.00  0.00    +0.034 A 
ATOM      9  C   UNL     1       2.298  -3.610   0.772  0.00  0.00    +0.028 A 
ATOM     10  C   UNL     1       2.056  -2.254   0.876  0.00  0.00    -0.029 A 
ATOM     11  C   UNL     1       3.205  -1.280   0.837  0.00  0.00    +0.045 C 
BRANCH   5  12
ATOM     12  N   UNL     1       0.521  -0.417   1.129  0.00  0.00    -0.394 NA
ATOM     13  H   UNL     1       1.400   0.076   1.167  0.00  0.00    +0.126 HD
BRANCH  12  15
ATOM     14  C   UNL     1       0.589  -0.145  -1.303  0.00  0.00    +0.022 C 
ATOM     15  C   UNL     1      -0.248   0.040  -0.036  0.00  0.00    +0.081 C 
ENDBRANCH  12  15
BRANCH  12  16
ATOM     16  C   UNL     1      -0.243  -0.150   2.356  0.00  0.00    +0.081 C 
ATOM     17  C   UNL     1       0.601  -0.528   3.575  0.00  0.00    +0.022 C 
ENDBRANCH  12  16
ENDBRANCH   5  12
ENDBRANCH   1   8
BRANCH   2  18
ATOM     18  C   UNL     1       0.796  -8.165   0.032  0.00  0.00    +0.173 C 
BRANCH  18  19
ATOM     19  S   UNL     1      -0.551  -8.944  -0.899  0.00  0.00    -0.079 S 
BRANCH  19  20
ATOM     20  C   UNL     1      -0.176 -10.664  -0.834  0.00  0.00    +0.168 A 
ATOM     21  N   UNL     1       0.860 -11.186  -0.224  0.00  0.00    -0.222 NA
ATOM     22  C   UNL     1       0.843 -12.537  -0.371  0.00  0.00    +0.090 A 
ATOM     23  C   UNL     1       1.688 -13.560   0.066  0.00  0.00    +0.030 A 
ATOM     24  C   UNL     1       1.398 -14.868  -0.251  0.00  0.00    +0.005 A 
ATOM     25  C   UNL     1       0.274 -15.178  -1.003  0.00  0.00    -0.048 A 
ATOM     26  C   UNL     1      -0.569 -14.179  -1.443  0.00  0.00    +0.031 A 
ATOM     27  C   UNL     1      -0.294 -12.856  -1.131  0.00  0.00    +0.067 A 
ATOM     28  N   UNL     1      -0.924 -11.653  -1.407  0.00  0.00    -0.333 N 
ATOM     29  C   UNL     1      -0.027 -16.615  -1.342  0.00  0.00    +0.044 C 
ATOM     30  H   UNL     1      -1.742 -11.536  -1.914  0.00  0.00    +0.168 HD
ENDBRANCH  19  20
ENDBRANCH  18  19
ENDBRANCH   2  18
TORSDOF 7
