REMARK  Name = ZINC14157980
REMARK  11 active torsions:
REMARK  status: ('A' for Active; 'I' for Inactive)
REMARK    1  A    between atoms: C_1  and  C_2
REMARK    2  A    between atoms: C_5  and  N_9
REMARK    3  A    between atoms: N_9  and  C_10
REMARK    4  A    between atoms: C_10  and  N_12
REMARK    5  A    between atoms: C_17  and  C_22
REMARK    6  A    between atoms: C_19  and  C_21
REMARK    7  A    between atoms: N_23  and  C_24
REMARK    8  A    between atoms: C_26  and  C_32
REMARK    9  A    between atoms: C_26  and  C_33
REMARK   10  A    between atoms: C_28  and  C_30
REMARK   11  A    between atoms: C_28  and  C_31
REMARK                            x       y       z     vdW  Elec       q    Type
REMARK                         _______ _______ _______ _____ _____    ______ ____
ROOT
ATOM      1  N   UNL     1      -0.559  -7.100  -1.581  0.00  0.00    -0.159 NA
ATOM      2  C   UNL     1       0.411  -6.660  -2.365  0.00  0.00    +0.196 C 
ATOM      3  N   UNL     1       0.110  -5.935  -3.486  0.00  0.00    -0.297 N 
ATOM      4  C   UNL     1       0.175  -4.548  -3.454  0.00  0.00    +0.231 A 
ATOM      5  N   UNL     1       0.431  -3.939  -2.306  0.00  0.00    -0.217 NA
ATOM      6  C   UNL     1       0.501  -2.620  -2.242  0.00  0.00    +0.044 A 
ATOM      7  C   UNL     1       0.302  -1.875  -3.394  0.00  0.00    +0.046 A 
ATOM      8  C   UNL     1       0.037  -2.545  -4.578  0.00  0.00    +0.044 A 
ATOM      9  N   UNL     1      -0.013  -3.867  -4.574  0.00  0.00    -0.217 NA
ATOM     10  C   UNL     1      -0.185  -1.777  -5.855  0.00  0.00    +0.066 C 
ATOM     11  C   UNL     1       0.791  -1.935  -0.931  0.00  0.00    +0.066 C 
ATOM     12  N   UNL     1       1.713  -6.929  -2.055  0.00  0.00    -0.355 N 
ATOM     13  H   UNL     1      -0.150  -6.390  -4.302  0.00  0.00    +0.171 HD
ATOM     14  H   UNL     1       1.925  -7.497  -1.298  0.00  0.00    +0.163 HD
ENDROOT
BRANCH  12  15
ATOM     15  C   UNL     1       2.794  -6.359  -2.870  0.00  0.00    +0.079 C 
ATOM     16  C   UNL     1       3.037  -7.258  -4.083  0.00  0.00    +0.011 C 
ATOM     17  C   UNL     1       4.169  -6.684  -4.935  0.00  0.00    -0.071 C 
ATOM     18  N   UNL     1       5.378  -6.456  -4.158  0.00  0.00    +0.386 N 
ATOM     19  C   UNL     1       5.241  -5.785  -2.876  0.00  0.00    -0.071 C 
ATOM     20  C   UNL     1       4.078  -6.313  -2.042  0.00  0.00    +0.011 C 
ATOM     21  C   UNL     1       6.537  -6.048  -2.073  0.00  0.00    -0.010 C 
ATOM     22  C   UNL     1       5.118  -4.268  -3.041  0.00  0.00    -0.010 C 
ATOM     23  C   UNL     1       3.700  -5.420  -5.654  0.00  0.00    -0.010 C 
ATOM     24  C   UNL     1       4.502  -7.732  -6.021  0.00  0.00    -0.010 C 
ATOM     25  H   UNL     1       5.834  -7.359  -4.002  0.00  0.00    -0.084 HD
ATOM     26  H   UNL     1       6.033  -5.921  -4.734  0.00  0.00    -0.084 HD
ENDBRANCH  12  15
BRANCH   1  27
ATOM     27  C   UNL     1      -1.839  -6.950  -1.951  0.00  0.00    +0.162 C 
ATOM     28  S   UNL     1      -2.215  -6.324  -3.499  0.00  0.00    -0.016 S 
BRANCH  27  29
ATOM     29  N   UNL     1      -2.829  -7.293  -1.103  0.00  0.00    -0.294 N 
ATOM     30  H   UNL     1      -2.616  -7.627  -0.218  0.00  0.00    +0.154 HD
BRANCH  29  35
ATOM     31  C   UNL     1      -8.245  -6.781  -2.713  0.00  0.00    +0.044 C 
ATOM     32  C   UNL     1      -6.807  -6.917  -2.285  0.00  0.00    -0.049 A 
ATOM     33  C   UNL     1      -5.905  -7.582  -3.096  0.00  0.00    +0.005 A 
ATOM     34  C   UNL     1      -4.586  -7.708  -2.707  0.00  0.00    +0.025 A 
ATOM     35  C   UNL     1      -4.165  -7.166  -1.500  0.00  0.00    +0.051 A 
ATOM     36  C   UNL     1      -5.072  -6.498  -0.687  0.00  0.00    +0.062 A 
ATOM     37  C   UNL     1      -6.390  -6.371  -1.085  0.00  0.00    +0.025 A 
ATOM     38 CL   UNL     1      -4.551  -5.819   0.823  0.00  0.00    -0.082 Cl
ENDBRANCH  29  35
ENDBRANCH  27  29
ENDBRANCH   1  27
TORSDOF 4
