REMARK  Name = ZINC40621563
REMARK  4 active torsions:
REMARK  status: ('A' for Active; 'I' for Inactive)
REMARK    1  A    between atoms: C_6  and  N_7
REMARK    2  A    between atoms: C_9  and  N_25
REMARK    3  A    between atoms: C_10  and  N_14
REMARK    4  A    between atoms: N_14  and  C_15
REMARK                            x       y       z     vdW  Elec       q    Type
REMARK                         _______ _______ _______ _____ _____    ______ ____
ROOT
ATOM      1  N   UNL     1      -1.198  -0.721   0.010  0.00  0.00    -0.297 N 
ATOM      2  C   UNL     1      -1.181  -2.104  -0.102  0.00  0.00    +0.159 A 
ATOM      3  C   UNL     1      -2.371  -2.818  -0.205  0.00  0.00    +0.205 A 
ATOM      4  C   UNL     1      -2.300  -4.204  -0.316  0.00  0.00    +0.155 A 
ATOM      5  N   UNL     1      -1.105  -4.791  -0.319  0.00  0.00    -0.218 NA
ATOM      6  C   UNL     1      -0.001  -4.079  -0.219  0.00  0.00    +0.225 A 
ATOM      7  N   UNL     1      -0.026  -2.766  -0.118  0.00  0.00    -0.218 NA
ATOM      8  H   UNL     1      -2.043  -0.252   0.099  0.00  0.00    +0.154 HD
ENDROOT
BRANCH   1  14
ATOM      9  C   UNL     1       1.075  -0.457  -0.761  0.00  0.00    +0.024 A 
ATOM     10  C   UNL     1       2.259   0.254  -0.773  0.00  0.00    +0.016 A 
ATOM     11  C   UNL     1       2.377   1.417  -0.033  0.00  0.00    +0.013 A 
ATOM     12  C   UNL     1       1.310   1.871   0.722  0.00  0.00    +0.016 A 
ATOM     13  C   UNL     1       0.123   1.164   0.738  0.00  0.00    +0.024 A 
ATOM     14  C   UNL     1       0.002  -0.004  -0.004  0.00  0.00    +0.032 A 
ATOM     15  I   UNL     1       4.175   2.491  -0.055  0.00  0.00    -0.044 I 
ENDBRANCH   1  14
BRANCH   3  16
ATOM     16  N   UNL     1      -3.678  -2.123  -0.197  0.00  0.00    +0.063 N 
ATOM     17  O   UNL     1      -4.172  -1.754  -1.237  0.00  0.00    -0.126 OA
ATOM     18  O   UNL     1      -4.250  -1.925   0.849  0.00  0.00    -0.126 OA
ENDBRANCH   3  16
BRANCH   4  19
ATOM     19  N   UNL     1      -3.456  -4.961  -0.421  0.00  0.00    -0.322 N 
ATOM     20  H   UNL     1      -4.323  -4.525  -0.417  0.00  0.00    +0.148 HD
BRANCH  19  21
ATOM     21  C   UNL     1      -3.369  -6.419  -0.536  0.00  0.00    +0.034 C 
ATOM     22  C   UNL     1      -2.666  -6.987   0.698  0.00  0.00    +0.029 C 
ATOM     23  C   UNL     1      -2.575  -8.510   0.577  0.00  0.00    -0.008 C 
ATOM     24  C   UNL     1      -3.984  -9.098   0.476  0.00  0.00    +0.007 C 
ATOM     25  C   UNL     1      -4.687  -8.530  -0.758  0.00  0.00    -0.008 C 
ATOM     26  C   UNL     1      -4.778  -7.007  -0.637  0.00  0.00    +0.029 C 
ATOM     27  C   UNL     1      -3.891  -8.895  -2.012  0.00  0.00    +0.007 C 
ATOM     28  C   UNL     1      -2.482  -8.306  -1.912  0.00  0.00    -0.008 C 
ATOM     29  C   UNL     1      -1.779  -8.875  -0.678  0.00  0.00    +0.007 C 
ATOM     30  C   UNL     1      -2.573  -6.784  -1.791  0.00  0.00    +0.029 C 
ENDBRANCH  19  21
ENDBRANCH   4  19
TORSDOF 4
