REMARK  Name = ZINC12844444
REMARK  8 active torsions:
REMARK  status: ('A' for Active; 'I' for Inactive)
REMARK    1  A    between atoms: C_1  and  C_2
REMARK    2  A    between atoms: C_2  and  C_3
REMARK    3  A    between atoms: C_3  and  C_5
REMARK    4  A    between atoms: C_3  and  C_6
REMARK    5  A    between atoms: C_9  and  N_12
REMARK    6  A    between atoms: C_13  and  C_15
REMARK    7  A    between atoms: C_19  and  C_30
REMARK    8  A    between atoms: C_22  and  C_26
REMARK                            x       y       z     vdW  Elec       q    Type
REMARK                         _______ _______ _______ _____ _____    ______ ____
ROOT
ATOM      1  C   UNL     1      -0.053  -8.251   2.652  0.00  0.00    +0.110 C 
ATOM      2  C   UNL     1       0.436  -9.097   1.712  0.00  0.00    +0.072 C 
ATOM      3  C   UNL     1       0.255 -10.457   2.217  0.00  0.00    +0.114 C 
ATOM      4  N   UNL     1       0.558 -11.600   1.668  0.00  0.00    -0.362 N 
ATOM      5  C   UNL     1       0.231 -12.841   2.380  0.00  0.00    +0.149 C 
ATOM      6  C   UNL     1       0.316 -12.632   3.892  0.00  0.00    +0.065 C 
ATOM      7  C   UNL     1      -0.637 -11.502   4.313  0.00  0.00    +0.202 C 
ATOM      8  N   UNL     1      -0.331 -10.341   3.472  0.00  0.00    -0.226 N 
ATOM      9  N   UNL     1      -0.529  -8.988   3.725  0.00  0.00    -0.258 N 
ATOM     10  H   UNL     1      -0.937  -8.620   4.524  0.00  0.00    +0.170 HD
ATOM     11  H   UNL     1       0.994 -11.629   0.802  0.00  0.00    +0.162 HD
ENDROOT
BRANCH   5  12
ATOM     12  C   UNL     1      -1.167 -13.270   2.015  0.00  0.00    +0.127 A 
ATOM     13  C   UNL     1      -1.569 -14.534   1.793  0.00  0.00    +0.047 A 
ATOM     14  C   UNL     1      -2.948 -14.476   1.483  0.00  0.00    +0.041 A 
ATOM     15  C   UNL     1      -3.305 -13.180   1.533  0.00  0.00    +0.195 A 
ATOM     16  O   UNL     1      -2.223 -12.455   1.862  0.00  0.00    -0.466 OA
ENDBRANCH   5  12
BRANCH   1  18
ATOM     17  N   UNL     1       0.422  -6.170   1.454  0.00  0.00    -0.280 N 
ATOM     18  C   UNL     1      -0.072  -6.776   2.551  0.00  0.00    +0.264 C 
ATOM     19  O   UNL     1      -0.531  -6.110   3.459  0.00  0.00    -0.268 OA
ATOM     20  H   UNL     1       0.718  -6.701   0.698  0.00  0.00    +0.155 HD
BRANCH  17  24
ATOM     21  C   UNL     1       0.673  -2.015   1.305  0.00  0.00    -0.044 A 
ATOM     22  C   UNL     1       0.414  -2.732   0.151  0.00  0.00    +0.006 A 
ATOM     23  C   UNL     1       0.330  -4.110   0.197  0.00  0.00    +0.023 A 
ATOM     24  C   UNL     1       0.506  -4.775   1.404  0.00  0.00    +0.034 A 
ATOM     25  C   UNL     1       0.766  -4.052   2.561  0.00  0.00    +0.023 A 
ATOM     26  C   UNL     1       0.854  -2.675   2.507  0.00  0.00    +0.006 A 
BRANCH  21  27
ATOM     27  C   UNL     1       0.764  -0.512   1.252  0.00  0.00    +0.016 C 
ATOM     28  C   UNL     1       1.886  -0.103   0.295  0.00  0.00    +0.012 C 
BRANCH  27  30
ATOM     29  C   UNL     1      -0.515   1.590   0.818  0.00  0.00    +0.004 C 
ATOM     30  C   UNL     1      -0.565   0.062   0.755  0.00  0.00    +0.004 C 
ENDBRANCH  27  30
ENDBRANCH  21  27
ENDBRANCH  17  24
ENDBRANCH   1  18
BRANCH   7  31
ATOM     31  C   UNL     1      -0.412 -11.154   5.786  0.00  0.00    +0.410 C 
ATOM     32  F   UNL     1       0.910 -10.736   5.970  0.00  0.00    -0.169 F 
ATOM     33  F   UNL     1      -1.283 -10.125   6.160  0.00  0.00    -0.169 F 
ATOM     34  F   UNL     1      -0.658 -12.283   6.575  0.00  0.00    -0.169 F 
ENDBRANCH   7  31
TORSDOF 6
