REMARK  Name = ZINC36501679
REMARK  16 active torsions:
REMARK  status: ('A' for Active; 'I' for Inactive)
REMARK    1  A    between atoms: C_1  and  C_2
REMARK    2  A    between atoms: C_2  and  C_3
REMARK    3  A    between atoms: C_3  and  C_4
REMARK    4  A    between atoms: C_4  and  N_5
REMARK    5  A    between atoms: C_6  and  C_8
REMARK    6  A    between atoms: C_8  and  C_10
REMARK    7  A    between atoms: C_8  and  N_19
REMARK    8  A    between atoms: C_11  and  O_18
REMARK    9  A    between atoms: C_13  and  O_17
REMARK   10  A    between atoms: C_15  and  O_16
REMARK   11  A    between atoms: N_19  and  C_20
REMARK   12  A    between atoms: C_20  and  C_21
REMARK   13  A    between atoms: C_26  and  C_28
REMARK   14  A    between atoms: C_28  and  C_29
REMARK   15  A    between atoms: C_29  and  C_31
REMARK   16  A    between atoms: C_29  and  C_32
REMARK                            x       y       z     vdW  Elec       q    Type
REMARK                         _______ _______ _______ _____ _____    ______ ____
ROOT
ATOM      1  C   UNL     1       2.400  -4.511  -3.576  0.00  0.00    +0.200 C 
ENDROOT
BRANCH   1   2
ATOM      2  C   UNL     1       3.457  -3.934  -4.481  0.00  0.00    +0.065 A 
ATOM      3  C   UNL     1       3.477  -4.272  -5.826  0.00  0.00    +0.129 A 
ATOM      4  C   UNL     1       4.450  -3.742  -6.660  0.00  0.00    +0.091 A 
ATOM      5  C   UNL     1       5.403  -2.873  -6.149  0.00  0.00    +0.124 A 
ATOM      6  C   UNL     1       5.382  -2.534  -4.804  0.00  0.00    +0.091 A 
ATOM      7  C   UNL     1       4.406  -3.062  -3.971  0.00  0.00    +0.129 A 
BRANCH   7   8
ATOM      8  O   UNL     1       4.383  -2.726  -2.655  0.00  0.00    -0.506 OA
ATOM      9  H   UNL     1       4.906  -3.312  -2.090  0.00  0.00    +0.292 HD
ENDBRANCH   7   8
BRANCH   5  10
ATOM     10  O   UNL     1       6.357  -2.353  -6.965  0.00  0.00    -0.507 OA
ATOM     11  H   UNL     1       6.105  -1.518  -7.383  0.00  0.00    +0.292 HD
ENDBRANCH   5  10
BRANCH   3  12
ATOM     12  O   UNL     1       2.544  -5.124  -6.327  0.00  0.00    -0.506 OA
ATOM     13  H   UNL     1       1.731  -4.689  -6.618  0.00  0.00    +0.292 HD
ENDBRANCH   3  12
ENDBRANCH   1   2
BRANCH   1  15
ATOM     14  N   UNL     1       0.723  -2.693  -3.538  0.00  0.00    -0.313 N 
ATOM     15  C   UNL     1       1.056  -3.935  -3.942  0.00  0.00    +0.238 C 
ATOM     16  O   UNL     1       0.275  -4.589  -4.599  0.00  0.00    -0.273 OA
ATOM     17  H   UNL     1       1.347  -2.170  -3.012  0.00  0.00    +0.149 HD
BRANCH  14  18
ATOM     18  C   UNL     1      -0.584  -2.134  -3.894  0.00  0.00    +0.104 C 
BRANCH  18  19
ATOM     19  C   UNL     1      -0.708  -0.722  -3.316  0.00  0.00    +0.018 C 
BRANCH  19  21
ATOM     20  C   UNL     1      -2.196   1.274  -3.111  0.00  0.00    +0.004 C 
ATOM     21  C   UNL     1      -2.072  -0.137  -3.688  0.00  0.00    -0.002 C 
ENDBRANCH  19  21
ENDBRANCH  18  19
ENDBRANCH  14  18
ENDBRANCH   1  15
BRANCH   1  22
ATOM     22  N   UNL     1       2.365  -5.968  -3.731  0.00  0.00    -0.278 N 
ATOM     23  C   UNL     1       3.515  -6.660  -3.849  0.00  0.00    +0.217 C 
ATOM     24  O   UNL     1       4.579  -6.078  -3.826  0.00  0.00    -0.276 OA
BRANCH  22  25
ATOM     25  C   UNL     1       1.081  -6.671  -3.757  0.00  0.00    +0.183 C 
BRANCH  25  26
ATOM     26  C   UNL     1       0.750  -7.060  -5.175  0.00  0.00    +0.122 A 
ATOM     27  C   UNL     1       1.065  -8.228  -5.764  0.00  0.00    +0.046 A 
ATOM     28  C   UNL     1       0.567  -8.168  -7.086  0.00  0.00    +0.041 A 
ATOM     29  C   UNL     1      -0.022  -6.967  -7.226  0.00  0.00    +0.195 A 
ATOM     30  O   UNL     1       0.087  -6.303  -6.064  0.00  0.00    -0.466 OA
ENDBRANCH  25  26
ENDBRANCH  22  25
BRANCH  23  31
ATOM     31  C   UNL     1       3.480  -8.158  -4.008  0.00  0.00    +0.104 C 
BRANCH  31  32
ATOM     32  C   UNL     1       4.909  -8.693  -4.120  0.00  0.00    +0.025 C 
ATOM     33  C   UNL     1       5.651  -8.443  -2.805  0.00  0.00    +0.013 C 
BRANCH  32  34
ATOM     34  C   UNL     1       4.871 -10.173  -4.402  0.00  0.00    -0.044 A 
ATOM     35  C   UNL     1       4.257 -11.031  -3.509  0.00  0.00    +0.004 A 
ATOM     36  C   UNL     1       4.222 -12.389  -3.767  0.00  0.00    +0.000 A 
ATOM     37  C   UNL     1       4.801 -12.888  -4.919  0.00  0.00    +0.000 A 
ATOM     38  C   UNL     1       5.414 -12.030  -5.812  0.00  0.00    +0.000 A 
ATOM     39  C   UNL     1       5.445 -10.672  -5.556  0.00  0.00    +0.004 A 
ENDBRANCH  32  34
ENDBRANCH  31  32
ENDBRANCH  23  31
ENDBRANCH   1  22
TORSDOF 14
