REMARK  Name = ZINC12149124
REMARK  11 active torsions:
REMARK  status: ('A' for Active; 'I' for Inactive)
REMARK    1  A    between atoms: C_1  and  N_70
REMARK    2  A    between atoms: C_2  and  N_70
REMARK    3  A    between atoms: C_3  and  C_4
REMARK    4  A    between atoms: C_3  and  N_70
REMARK    5  A    between atoms: C_4  and  N_5
REMARK    6  A    between atoms: C_8  and  C_12
REMARK    7  A    between atoms: C_8  and  C_20
REMARK    8  A    between atoms: C_12  and  C_13
REMARK    9  A    between atoms: C_13  and  C_14
REMARK   10  A    between atoms: C_26  and  C_28
REMARK   11  A    between atoms: C_29  and  C_30
REMARK                            x       y       z     vdW  Elec       q    Type
REMARK                         _______ _______ _______ _____ _____    ______ ____
ROOT
ATOM      1  N   UNL     1      -4.498  -1.802   0.355  0.00  0.00    -0.226 N 
ATOM      2  C   UNL     1      -4.139  -1.034  -0.693  0.00  0.00    +0.247 C 
ATOM      3  O   UNL     1      -4.585   0.053  -0.991  0.00  0.00    -0.273 OA
ATOM      4  C   UNL     1      -3.060  -1.812  -1.420  0.00  0.00    +0.116 C 
ATOM      5  N   UNL     1      -2.924  -3.043  -0.623  0.00  0.00    -0.285 N 
ATOM      6  C   UNL     1      -3.804  -2.945   0.390  0.00  0.00    +0.309 C 
ATOM      7  O   UNL     1      -3.951  -3.799   1.242  0.00  0.00    -0.252 OA
ATOM      8  H   UNL     1      -2.318  -3.781  -0.795  0.00  0.00    +0.151 HD
ENDROOT
BRANCH   4   9
ATOM      9  C   UNL     1      -3.498  -2.140  -2.848  0.00  0.00    +0.024 C 
ATOM     10  C   UNL     1      -3.578  -0.849  -3.667  0.00  0.00    +0.025 C 
ATOM     11  C   UNL     1      -3.983  -1.186  -5.105  0.00  0.00    +0.109 C 
ATOM     12  N   UNL     1      -5.232  -1.960  -5.076  0.00  0.00    -0.291 N 
ATOM     13  C   UNL     1      -5.293  -3.171  -4.246  0.00  0.00    +0.109 C 
ATOM     14  C   UNL     1      -4.873  -2.812  -2.818  0.00  0.00    +0.025 C 
ATOM     15  C   UNL     1      -6.301  -1.566  -5.796  0.00  0.00    +0.291 C 
ATOM     16  O   UNL     1      -7.330  -2.215  -5.763  0.00  0.00    -0.260 OA
BRANCH  15  17
ATOM     17  C   UNL     1      -6.227  -0.383  -6.599  0.00  0.00    -0.003 C 
ATOM     18  C   UNL     1      -6.166   0.587  -7.258  0.00  0.00    -0.057 C 
BRANCH  18  19
ATOM     19  C   UNL     1      -6.091   1.770  -8.062  0.00  0.00    +0.025 A 
ATOM     20  C   UNL     1      -4.913   2.522  -8.097  0.00  0.00    +0.017 A 
ATOM     21  C   UNL     1      -4.848   3.658  -8.877  0.00  0.00    +0.001 A 
ATOM     22  C   UNL     1      -5.948   4.059  -9.615  0.00  0.00    +0.000 A 
ATOM     23  C   UNL     1      -7.119   3.322  -9.581  0.00  0.00    +0.001 A 
ATOM     24  C   UNL     1      -7.198   2.182  -8.810  0.00  0.00    +0.017 A 
ENDBRANCH  18  19
ENDBRANCH  15  17
ENDBRANCH   4   9
BRANCH   1  25
ATOM     25  C   UNL     1      -5.523  -1.431   1.334  0.00  0.00    +0.099 C 
BRANCH  25  26
ATOM     26  C   UNL     1      -4.872  -0.665   2.488  0.00  0.00    -0.060 C 
BRANCH  26  29
ATOM     27  C   UNL     1      -5.288   0.231   4.698  0.00  0.00    -0.097 C 
ATOM     28  C   UNL     1      -6.847   0.673   2.899  0.00  0.00    -0.097 C 
ATOM     29  N   UNL     1      -5.914  -0.317   3.477  0.00  0.00    +0.377 N 
ATOM     30  H   UNL     1      -6.437  -1.165   3.722  0.00  0.00    -0.083 HD
ENDBRANCH  26  29
ENDBRANCH  25  26
ENDBRANCH   1  25
BRANCH   4  31
ATOM     31  C   UNL     1      -1.745  -1.028  -1.429  0.00  0.00    +0.040 C 
BRANCH  31  32
ATOM     32  C   UNL     1      -1.293  -0.775   0.011  0.00  0.00    +0.038 C 
BRANCH  32  33
ATOM     33  C   UNL     1       0.002  -0.004   0.002  0.00  0.00    -0.047 A 
ATOM     34  C   UNL     1      -0.017   1.378   0.010  0.00  0.00    +0.003 A 
ATOM     35  C   UNL     1       1.171   2.086   0.002  0.00  0.00    +0.000 A 
ATOM     36  C   UNL     1       2.377   1.411  -0.015  0.00  0.00    +0.000 A 
ATOM     37  C   UNL     1       2.396   0.029  -0.022  0.00  0.00    +0.000 A 
ATOM     38  C   UNL     1       1.208  -0.679  -0.013  0.00  0.00    +0.003 A 
ENDBRANCH  32  33
ENDBRANCH  31  32
ENDBRANCH   4  31
TORSDOF 9
