REMARK  Name = ZINC33058433
REMARK  10 active torsions:
REMARK  status: ('A' for Active; 'I' for Inactive)
REMARK    1  A    between atoms: C_1  and  C_2
REMARK    2  A    between atoms: C_5  and  C_8
REMARK    3  A    between atoms: C_8  and  C_10
REMARK    4  A    between atoms: C_11  and  N_34
REMARK    5  A    between atoms: C_12  and  S_23
REMARK    6  A    between atoms: C_13  and  N_15
REMARK    7  A    between atoms: N_15  and  C_16
REMARK    8  A    between atoms: S_23  and  C_26
REMARK    9  A    between atoms: C_29  and  O_32
REMARK   10  A    between atoms: O_32  and  C_33
REMARK                            x       y       z     vdW  Elec       q    Type
REMARK                         _______ _______ _______ _____ _____    ______ ____
ROOT
ATOM      1  C   UNL     1      -1.077   3.126   0.041  0.00  0.00    +0.084 A 
ATOM      2  C   UNL     1      -1.074   1.727  -0.045  0.00  0.00    +0.070 A 
ATOM      3  C   UNL     1      -2.276   1.071   0.034  0.00  0.00    +0.143 A 
ATOM      4  C   UNL     1      -3.432   1.811   0.189  0.00  0.00    +0.098 A 
ATOM      5  S   UNL     1      -2.816   3.486   0.225  0.00  0.00    -0.066 S 
ENDROOT
BRANCH   3   6
ATOM      6  S   UNL     1      -2.345  -0.687  -0.060  0.00  0.00    +0.029 S 
ATOM      7  O   UNL     1      -3.656  -1.020  -0.495  0.00  0.00    -0.164 OA
ATOM      8  O   UNL     1      -1.181  -1.102  -0.762  0.00  0.00    -0.164 OA
BRANCH   6   9
ATOM      9  C   UNL     1      -2.188  -1.304   1.583  0.00  0.00    +0.094 A 
ATOM     10  C   UNL     1      -0.936  -1.590   2.096  0.00  0.00    +0.031 A 
ATOM     11  C   UNL     1      -0.810  -2.068   3.386  0.00  0.00    +0.047 A 
ATOM     12  C   UNL     1      -1.942  -2.272   4.163  0.00  0.00    +0.120 A 
ATOM     13  C   UNL     1      -3.197  -1.989   3.644  0.00  0.00    +0.047 A 
ATOM     14  C   UNL     1      -3.317  -1.506   2.355  0.00  0.00    +0.031 A 
BRANCH  12  15
ATOM     15  O   UNL     1      -1.821  -2.747   5.431  0.00  0.00    -0.495 OA
ATOM     16  C   UNL     1      -0.498  -3.016   5.899  0.00  0.00    +0.277 C 
ENDBRANCH  12  15
ENDBRANCH   6   9
ENDBRANCH   3   6
BRANCH   2  17
ATOM     17  N   UNL     1       0.115   1.024  -0.201  0.00  0.00    -0.355 N 
ATOM     18  H   UNL     1       0.100  -0.074  -0.267  0.00  0.00    +0.142 HD
ATOM     19  H   UNL     1       1.071   1.565  -0.259  0.00  0.00    +0.142 HD
ENDBRANCH   2  17
BRANCH   1  20
ATOM     20  C   UNL     1       0.010   4.016  -0.007  0.00  0.00    +0.202 C 
ATOM     21  O   UNL     1       1.151   3.586  -0.008  0.00  0.00    -0.286 OA
BRANCH  20  26
ATOM     22  C   UNL     1      -0.928   9.693  -0.194  0.00  0.00    +0.044 C 
ATOM     23  C   UNL     1      -0.683   8.207  -0.145  0.00  0.00    -0.050 A 
ATOM     24  C   UNL     1      -1.594   7.338  -0.720  0.00  0.00    +0.004 A 
ATOM     25  C   UNL     1      -1.375   5.977  -0.678  0.00  0.00    +0.012 A 
ATOM     26  C   UNL     1      -0.232   5.476  -0.055  0.00  0.00    +0.023 A 
ATOM     27  C   UNL     1       0.681   6.356   0.527  0.00  0.00    +0.012 A 
ATOM     28  C   UNL     1       0.453   7.716   0.475  0.00  0.00    +0.004 A 
ENDBRANCH  20  26
ENDBRANCH   1  20
BRANCH   4  29
ATOM     29  N   UNL     1      -4.738   1.367   0.291  0.00  0.00    -0.307 N 
ATOM     30  H   UNL     1      -4.961   0.292   0.217  0.00  0.00    +0.153 HD
BRANCH  29  31
ATOM     31  C   UNL     1      -5.775   2.283   0.487  0.00  0.00    +0.032 A 
ATOM     32  C   UNL     1      -5.588   3.377   1.323  0.00  0.00    +0.024 A 
ATOM     33  C   UNL     1      -6.612   4.285   1.510  0.00  0.00    +0.022 A 
ATOM     34  C   UNL     1      -7.828   4.098   0.876  0.00  0.00    +0.041 A 
ATOM     35  C   UNL     1      -8.020   3.006   0.048  0.00  0.00    +0.022 A 
ATOM     36  C   UNL     1      -6.997   2.098  -0.147  0.00  0.00    +0.024 A 
ATOM     37 CL   UNL     1      -9.115   5.237   1.119  0.00  0.00    -0.084 Cl
ENDBRANCH  29  31
ENDBRANCH   4  29
TORSDOF 8
