REMARK  Name = ZINC64176548
REMARK  7 active torsions:
REMARK  status: ('A' for Active; 'I' for Inactive)
REMARK    1  A    between atoms: C_4  and  C_7
REMARK    2  A    between atoms: C_7  and  C_9
REMARK    3  A    between atoms: C_7  and  C_25
REMARK    4  A    between atoms: C_9  and  N_10
REMARK    5  A    between atoms: C_11  and  C_13
REMARK    6  A    between atoms: C_13  and  C_14
REMARK    7  A    between atoms: C_14  and  N_15
REMARK                            x       y       z     vdW  Elec       q    Type
REMARK                         _______ _______ _______ _____ _____    ______ ____
ROOT
ATOM      1  C   UNL     1       3.791  -1.579  -1.292  0.00  0.00    +0.116 C 
ENDROOT
BRANCH   1   2
ATOM      2  N   UNL     1       3.810  -0.724  -2.481  0.00  0.00    -0.314 N 
ATOM      3  C   UNL     1       3.878  -1.277  -3.708  0.00  0.00    +0.215 C 
ATOM      4  O   UNL     1       3.923  -2.483  -3.828  0.00  0.00    -0.276 OA
ATOM      5  H   UNL     1       3.773   0.241  -2.385  0.00  0.00    +0.149 HD
BRANCH   3   6
ATOM      6  C   UNL     1       3.897  -0.397  -4.932  0.00  0.00    +0.115 C 
BRANCH   6   7
ATOM      7  C   UNL     1       3.977  -1.269  -6.186  0.00  0.00    +0.119 C 
BRANCH   7   8
ATOM      8  N   UNL     1       3.995  -0.414  -7.375  0.00  0.00    -0.281 N 
ATOM      9  C   UNL     1       2.721  -0.048  -7.985  0.00  0.00    +0.213 C 
ATOM     10  N   UNL     1       2.779   1.300  -8.578  0.00  0.00    -0.322 N 
ATOM     11  C   UNL     1       3.952   1.653  -9.200  0.00  0.00    +0.079 A 
ATOM     12  C   UNL     1       5.182   1.055  -8.885  0.00  0.00    +0.065 A 
ATOM     13  C   UNL     1       6.313   1.558  -9.632  0.00  0.00    +0.022 A 
ATOM     14  C   UNL     1       6.051   2.523 -10.534  0.00  0.00    +0.048 A 
ATOM     15  S   UNL     1       4.291   2.762 -10.385  0.00  0.00    -0.081 S 
ATOM     16  C   UNL     1       5.190   0.000  -7.847  0.00  0.00    +0.250 C 
ATOM     17  O   UNL     1       6.232  -0.477  -7.439  0.00  0.00    -0.270 OA
ATOM     18  H   UNL     1       2.025   1.908  -8.532  0.00  0.00    +0.148 HD
ENDBRANCH   7   8
ENDBRANCH   6   7
ENDBRANCH   3   6
ENDBRANCH   1   2
BRANCH   1  19
ATOM     19  C   UNL     1       3.711  -0.707  -0.038  0.00  0.00    +0.064 C 
BRANCH  19  20
ATOM     20  C   UNL     1       3.816  -1.579   1.188  0.00  0.00    -0.033 C 
ATOM     21  C   UNL     1       4.756  -1.509   2.157  0.00  0.00    -0.000 A 
ATOM     22  C   UNL     1       5.920  -0.636   2.352  0.00  0.00    +0.010 A 
ATOM     23  C   UNL     1       6.696  -0.812   3.446  0.00  0.00    +0.001 A 
ATOM     24  C   UNL     1       6.417  -1.805   4.396  0.00  0.00    +0.002 A 
ATOM     25  C   UNL     1       5.366  -2.646   4.285  0.00  0.00    +0.026 A 
ATOM     26  C   UNL     1       4.483  -2.550   3.174  0.00  0.00    +0.043 A 
ATOM     27  N   UNL     1       3.415  -3.236   2.846  0.00  0.00    -0.380 N 
ATOM     28  C   UNL     1       2.886  -2.703   1.585  0.00  0.00    +0.145 C 
ATOM     29  H   UNL     1       3.036  -3.970   3.354  0.00  0.00    +0.160 HD
ENDBRANCH  19  20
BRANCH  19  33
ATOM     30  C   UNL     1      -0.017   1.378   0.010  0.00  0.00    +0.000 A 
ATOM     31  C   UNL     1       1.171   2.086   0.002  0.00  0.00    +0.000 A 
ATOM     32  C   UNL     1       2.377   1.411  -0.013  0.00  0.00    +0.004 A 
ATOM     33  C   UNL     1       2.396   0.029  -0.020  0.00  0.00    -0.039 A 
ATOM     34  C   UNL     1       1.208  -0.679  -0.012  0.00  0.00    +0.004 A 
ATOM     35  C   UNL     1       0.002  -0.004   0.002  0.00  0.00    +0.000 A 
ENDBRANCH  19  33
ENDBRANCH   1  19
TORSDOF 7
