REMARK  Name = ZINC33770297
REMARK  14 active torsions:
REMARK  status: ('A' for Active; 'I' for Inactive)
REMARK    1  A    between atoms: C_1  and  C_2
REMARK    2  A    between atoms: C_2  and  C_3
REMARK    3  A    between atoms: C_3  and  C_4
REMARK    4  A    between atoms: C_3  and  C_5
REMARK    5  A    between atoms: C_3  and  C_6
REMARK    6  A    between atoms: C_9  and  O_12
REMARK    7  A    between atoms: O_12  and  C_13
REMARK    8  A    between atoms: C_13  and  C_14
REMARK    9  A    between atoms: C_17  and  C_20
REMARK   10  A    between atoms: N_22  and  C_23
REMARK   11  A    between atoms: C_23  and  C_25
REMARK   12  A    between atoms: C_23  and  C_33
REMARK   13  A    between atoms: C_25  and  C_26
REMARK   14  A    between atoms: C_29  and  O_32
REMARK                            x       y       z     vdW  Elec       q    Type
REMARK                         _______ _______ _______ _____ _____    ______ ____
ROOT
ATOM      1  C   UNL     1      -0.155   8.363  -1.115  0.00  0.00    -0.010 A 
ATOM      2  C   UNL     1      -0.175   7.673  -2.314  0.00  0.00    +0.008 A 
ATOM      3  C   UNL     1      -0.407   6.313  -2.327  0.00  0.00    +0.013 A 
ATOM      4  C   UNL     1      -0.624   5.633  -1.127  0.00  0.00    +0.037 A 
ATOM      5  C   UNL     1      -0.609   6.336   0.079  0.00  0.00    +0.013 A 
ATOM      6  C   UNL     1      -0.369   7.695   0.078  0.00  0.00    +0.008 A 
ENDROOT
BRANCH   4   7
ATOM      7  C   UNL     1      -0.874   4.176  -1.134  0.00  0.00    +0.245 C 
ATOM      8  O   UNL     1      -0.892   3.567  -2.186  0.00  0.00    -0.270 OA
ATOM      9  N   UNL     1      -1.083   3.523   0.026  0.00  0.00    -0.300 N 
ATOM     10  H   UNL     1      -1.067   4.074   0.978  0.00  0.00    +0.150 HD
BRANCH   9  11
ATOM     11  C   UNL     1      -1.331   2.079   0.020  0.00  0.00    +0.163 C 
BRANCH  11  12
ATOM     12  C   UNL     1      -0.016   1.344   0.009  0.00  0.00    +0.231 C 
ATOM     13  O   UNL     1       1.026   1.964   0.003  0.00  0.00    -0.274 OA
ATOM     14  N   UNL     1       0.002  -0.004   0.002  0.00  0.00    -0.328 N 
ATOM     15  H   UNL     1       0.962  -0.541  -0.005  0.00  0.00    +0.145 HD
ATOM     16  H   UNL     1      -0.943  -0.567   0.004  0.00  0.00    +0.145 HD
ENDBRANCH  11  12
BRANCH  11  17
ATOM     17  C   UNL     1      -2.123   1.692   1.271  0.00  0.00    +0.067 C 
BRANCH  17  18
ATOM     18  C   UNL     1      -3.486   2.331   1.220  0.00  0.00    -0.045 A 
ATOM     19  C   UNL     1      -3.683   3.584   1.772  0.00  0.00    +0.007 A 
ATOM     20  C   UNL     1      -4.930   4.174   1.722  0.00  0.00    +0.045 A 
ATOM     21  C   UNL     1      -5.990   3.505   1.127  0.00  0.00    +0.117 A 
ATOM     22  C   UNL     1      -5.792   2.245   0.579  0.00  0.00    +0.045 A 
ATOM     23  C   UNL     1      -4.541   1.662   0.627  0.00  0.00    +0.007 A 
BRANCH  21  24
ATOM     24  O   UNL     1      -7.220   4.081   1.082  0.00  0.00    -0.507 OA
ATOM     25  H   UNL     1      -8.059   3.549   0.610  0.00  0.00    +0.292 HD
ENDBRANCH  21  24
ENDBRANCH  17  18
ENDBRANCH  11  17
ENDBRANCH   9  11
ENDBRANCH   4   7
BRANCH   1  26
ATOM     26  C   UNL     1       0.099   9.848  -1.108  0.00  0.00    +0.264 C 
BRANCH  26  27
ATOM     27  O   UNL     1      -1.144  10.545  -1.215  0.00  0.00    -0.487 OA
BRANCH  27  31
ATOM     28  C   UNL     1      -0.983  14.667  -1.241  0.00  0.00    -0.042 A 
ATOM     29  C   UNL     1      -2.203  14.023  -1.334  0.00  0.00    +0.008 A 
ATOM     30  C   UNL     1      -2.260  12.643  -1.326  0.00  0.00    +0.046 A 
ATOM     31  C   UNL     1      -1.091  11.903  -1.224  0.00  0.00    +0.121 A 
ATOM     32  C   UNL     1       0.132  12.551  -1.125  0.00  0.00    +0.046 A 
ATOM     33  C   UNL     1       0.183  13.932  -1.140  0.00  0.00    +0.008 A 
BRANCH  28  34
ATOM     34  C   UNL     1      -0.925  16.173  -1.250  0.00  0.00    -0.010 C 
ATOM     35  C   UNL     1      -1.522  16.698  -2.557  0.00  0.00    +0.016 C 
ATOM     36  C   UNL     1      -1.724  16.722  -0.067  0.00  0.00    +0.016 C 
BRANCH  34  38
ATOM     37  C   UNL     1       0.591  18.156  -1.146  0.00  0.00    +0.005 C 
ATOM     38  C   UNL     1       0.532  16.627  -1.136  0.00  0.00    +0.007 C 
ENDBRANCH  34  38
ENDBRANCH  28  34
ENDBRANCH  27  31
ENDBRANCH  26  27
ENDBRANCH   1  26
TORSDOF 11
