REMARK  Name = ZINC34978325
REMARK  8 active torsions:
REMARK  status: ('A' for Active; 'I' for Inactive)
REMARK    1  A    between atoms: C_1  and  C_2
REMARK    2  A    between atoms: C_9  and  C_11
REMARK    3  A    between atoms: C_17  and  C_19
REMARK    4  A    between atoms: C_19  and  C_21
REMARK    5  A    between atoms: C_19  and  N_28
REMARK    6  A    between atoms: C_21  and  C_22
REMARK    7  A    between atoms: N_28  and  S_29
REMARK    8  A    between atoms: S_29  and  C_32
REMARK                            x       y       z     vdW  Elec       q    Type
REMARK                         _______ _______ _______ _____ _____    ______ ____
ROOT
ATOM      1  C   UNL     1      -4.557  -0.524   2.115  0.00  0.00    +0.166 C 
ENDROOT
BRANCH   1  11
ATOM      2  C   UNL     1      -0.848   1.300  -0.350  0.00  0.00    +0.029 C 
ATOM      3  C   UNL     1      -0.506  -0.191  -0.397  0.00  0.00    +0.090 C 
ATOM      4  C   UNL     1      -1.798  -1.012  -0.504  0.00  0.00    +0.130 C 
ATOM      5  N   UNL     1      -2.517  -0.925   0.774  0.00  0.00    -0.297 N 
ATOM      6  C   UNL     1      -1.817  -1.310   2.008  0.00  0.00    +0.127 C 
ATOM      7  C   UNL     1      -0.526  -0.489   2.116  0.00  0.00    +0.127 C 
ATOM      8  N   UNL     1       0.197  -0.575   0.835  0.00  0.00    -0.295 N 
ATOM      9  C   UNL     1       1.475  -1.000   0.791  0.00  0.00    +0.219 C 
ATOM     10  O   UNL     1       2.089  -0.969  -0.254  0.00  0.00    -0.275 OA
ATOM     11  C   UNL     1      -3.795  -0.500   0.815  0.00  0.00    +0.235 C 
ATOM     12  O   UNL     1      -4.333  -0.098  -0.196  0.00  0.00    -0.274 OA
BRANCH   9  13
ATOM     13  C   UNL     1       2.142  -1.513   2.042  0.00  0.00    +0.075 C 
ATOM     14  C   UNL     1       2.325  -0.361   3.032  0.00  0.00    +0.013 C 
ATOM     15  C   UNL     1       3.002  -0.882   4.301  0.00  0.00    +0.001 C 
ATOM     16  C   UNL     1       4.369  -1.471   3.945  0.00  0.00    +0.000 C 
ATOM     17  C   UNL     1       4.185  -2.623   2.955  0.00  0.00    +0.001 C 
ATOM     18  C   UNL     1       3.508  -2.102   1.686  0.00  0.00    +0.013 C 
ENDBRANCH   9  13
ENDBRANCH   1  11
BRANCH   1  19
ATOM     19  N   UNL     1      -5.841   0.159   1.941  0.00  0.00    -0.178 NA
ATOM     20  H   UNL     1      -6.316   0.092   1.098  0.00  0.00    +0.149 HD
BRANCH  19  21
ATOM     21  S   UNL     1      -6.484   1.043   3.185  0.00  0.00    +0.059 S 
ATOM     22  O   UNL     1      -7.702   1.595   2.704  0.00  0.00    -0.153 OA
ATOM     23  O   UNL     1      -6.424   0.221   4.342  0.00  0.00    -0.153 OA
BRANCH  21  24
ATOM     24  C   UNL     1      -5.397   2.400   3.475  0.00  0.00    +0.105 A 
ATOM     25  C   UNL     1      -4.353   2.269   4.372  0.00  0.00    +0.030 A 
ATOM     26  C   UNL     1      -3.500   3.333   4.599  0.00  0.00    +0.022 A 
ATOM     27  C   UNL     1      -3.692   4.528   3.930  0.00  0.00    +0.041 A 
ATOM     28  C   UNL     1      -4.736   4.658   3.032  0.00  0.00    +0.022 A 
ATOM     29  C   UNL     1      -5.585   3.592   2.801  0.00  0.00    +0.030 A 
ATOM     30 CL   UNL     1      -2.621   5.865   4.216  0.00  0.00    -0.084 Cl
ENDBRANCH  21  24
ENDBRANCH  19  21
ENDBRANCH   1  19
BRANCH   1  31
ATOM     31  C   UNL     1      -4.802  -1.974   2.536  0.00  0.00    +0.065 C 
BRANCH  31  32
ATOM     32  C   UNL     1      -5.592  -1.998   3.819  0.00  0.00    -0.045 A 
ATOM     33  C   UNL     1      -4.934  -1.994   5.035  0.00  0.00    +0.004 A 
ATOM     34  C   UNL     1      -5.659  -2.016   6.212  0.00  0.00    +0.000 A 
ATOM     35  C   UNL     1      -7.040  -2.042   6.173  0.00  0.00    +0.000 A 
ATOM     36  C   UNL     1      -7.698  -2.045   4.957  0.00  0.00    +0.000 A 
ATOM     37  C   UNL     1      -6.973  -2.018   3.780  0.00  0.00    +0.004 A 
ENDBRANCH  31  32
ENDBRANCH   1  31
TORSDOF 7
