REMARK  Name = ZINC19353888
REMARK  9 active torsions:
REMARK  status: ('A' for Active; 'I' for Inactive)
REMARK    1  A    between atoms: C_1  and  C_2
REMARK    2  A    between atoms: C_5  and  C_8
REMARK    3  A    between atoms: C_10  and  C_13
REMARK    4  A    between atoms: C_13  and  O_15
REMARK    5  A    between atoms: O_15  and  C_16
REMARK    6  A    between atoms: C_16  and  C_17
REMARK    7  A    between atoms: N_19  and  C_20
REMARK    8  A    between atoms: C_20  and  C_21
REMARK    9  A    between atoms: N_23  and  C_24
REMARK                            x       y       z     vdW  Elec       q    Type
REMARK                         _______ _______ _______ _____ _____    ______ ____
ROOT
ATOM      1  C   UNL     1       4.829   0.544  -0.004  0.00  0.00    +0.328 C 
ENDROOT
BRANCH   1   2
ATOM      2  C   UNL     1       3.671   1.508   0.008  0.00  0.00    +0.251 C 
ATOM      3  O   UNL     1       3.877   2.703   0.018  0.00  0.00    -0.272 OA
ATOM      4  N   UNL     1       2.406   1.042   0.007  0.00  0.00    -0.304 N 
ATOM      5  H   UNL     1       2.220  -0.042  -0.002  0.00  0.00    +0.149 HD
BRANCH   4   6
ATOM      6  C   UNL     1       1.280   1.979   0.018  0.00  0.00    +0.200 C 
BRANCH   6   7
ATOM      7  C   UNL     1      -0.015   1.208   0.015  0.00  0.00    +0.234 C 
ATOM      8  O   UNL     1       0.001  -0.004   0.004  0.00  0.00    -0.274 OA
ATOM      9  N   UNL     1      -1.191   1.867   0.018  0.00  0.00    -0.283 N 
ATOM     10  H   UNL     1      -1.207   2.963   0.102  0.00  0.00    +0.155 HD
BRANCH   9  11
ATOM     11  C   UNL     1      -2.391   1.155  -0.086  0.00  0.00    +0.047 A 
ATOM     12  C   UNL     1      -2.510  -0.099   0.499  0.00  0.00    +0.024 A 
ATOM     13  C   UNL     1      -3.698  -0.796   0.399  0.00  0.00    +0.002 A 
ATOM     14  C   UNL     1      -4.765  -0.252  -0.291  0.00  0.00    +0.001 A 
ATOM     15  C   UNL     1      -4.649   0.994  -0.880  0.00  0.00    +0.017 A 
ATOM     16  C   UNL     1      -3.465   1.699  -0.779  0.00  0.00    +0.039 A 
ATOM     17 BR   UNL     1      -3.307   3.402  -1.585  0.00  0.00    -0.048 Br
ENDBRANCH   9  11
ENDBRANCH   6   7
ENDBRANCH   4   6
ENDBRANCH   1   2
BRANCH   1  18
ATOM     18  O   UNL     1       6.077   1.286  -0.000  0.00  0.00    -0.451 OA
BRANCH  18  19
ATOM     19  C   UNL     1       7.217   0.567  -0.009  0.00  0.00    +0.359 C 
ATOM     20  O   UNL     1       7.170  -0.648  -0.020  0.00  0.00    -0.243 OA
BRANCH  19  23
ATOM     21  C   UNL     1       9.759   3.179   0.007  0.00  0.00    +0.109 A 
ATOM     22  N   UNL     1       8.585   2.576   0.005  0.00  0.00    -0.232 NA
ATOM     23  C   UNL     1       8.520   1.252  -0.007  0.00  0.00    +0.155 A 
ATOM     24  C   UNL     1       9.697   0.526  -0.011  0.00  0.00    +0.082 A 
ATOM     25  S   UNL     1      10.885   1.794  -0.009  0.00  0.00    -0.075 S 
BRANCH  21  30
ATOM     26  C   UNL     1      10.940   8.812   0.053  0.00  0.00    +0.044 C 
ATOM     27  C   UNL     1      10.630   7.337   0.041  0.00  0.00    -0.050 A 
ATOM     28  C   UNL     1      11.663   6.416   0.030  0.00  0.00    +0.004 A 
ATOM     29  C   UNL     1      11.387   5.065   0.019  0.00  0.00    +0.011 A 
ATOM     30  C   UNL     1      10.062   4.627   0.019  0.00  0.00    +0.007 A 
ATOM     31  C   UNL     1       9.025   5.560   0.024  0.00  0.00    +0.011 A 
ATOM     32  C   UNL     1       9.315   6.909   0.041  0.00  0.00    +0.004 A 
ENDBRANCH  21  30
ENDBRANCH  19  23
ENDBRANCH  18  19
ENDBRANCH   1  18
TORSDOF 8
