REMARK  Name = ZINC23075711
REMARK  11 active torsions:
REMARK  status: ('A' for Active; 'I' for Inactive)
REMARK    1  A    between atoms: C_1  and  C_2
REMARK    2  A    between atoms: C_2  and  C_4
REMARK    3  A    between atoms: C_2  and  N_14
REMARK    4  A    between atoms: C_7  and  S_10
REMARK    5  A    between atoms: S_10  and  N_13
REMARK    6  A    between atoms: N_14  and  C_15
REMARK    7  A    between atoms: N_14  and  C_16
REMARK    8  A    between atoms: C_16  and  C_17
REMARK    9  A    between atoms: C_20  and  C_22
REMARK   10  A    between atoms: N_24  and  C_25
REMARK   11  A    between atoms: C_25  and  C_26
REMARK                            x       y       z     vdW  Elec       q    Type
REMARK                         _______ _______ _______ _____ _____    ______ ____
ROOT
ATOM      1  C   UNL     1      -2.119  -0.045  -1.166  0.00  0.00    -0.012 C 
ENDROOT
BRANCH   1   2
ATOM      2  C   UNL     1      -3.580  -0.375  -1.002  0.00  0.00    +0.086 A 
ATOM      3  N   UNL     1      -4.548   0.342  -0.458  0.00  0.00    -0.148 NA
ATOM      4  N   UNL     1      -5.737  -0.077  -0.395  0.00  0.00    -0.137 NA
ATOM      5  C   UNL     1      -6.053  -1.273  -0.884  0.00  0.00    +0.186 A 
ATOM      6  S   UNL     1      -4.453  -1.800  -1.485  0.00  0.00    -0.048 S 
BRANCH   5   7
ATOM      7  C   UNL     1      -7.354  -1.964  -0.925  0.00  0.00    +0.271 C 
ATOM      8  O   UNL     1      -7.439  -3.070  -1.423  0.00  0.00    -0.268 OA
ATOM      9  N   UNL     1      -8.449  -1.370  -0.411  0.00  0.00    -0.305 N 
ATOM     10  H   UNL     1      -8.372  -0.370   0.040  0.00  0.00    +0.149 HD
BRANCH   9  11
ATOM     11  C   UNL     1      -9.742  -2.058  -0.452  0.00  0.00    +0.140 C 
BRANCH  11  12
ATOM     12  C   UNL     1     -10.794  -1.186   0.183  0.00  0.00    -0.030 A 
ATOM     13  C   UNL     1     -11.050  -1.288   1.538  0.00  0.00    +0.008 A 
ATOM     14  C   UNL     1     -12.012  -0.486   2.122  0.00  0.00    +0.038 A 
ATOM     15  C   UNL     1     -12.727   0.413   1.348  0.00  0.00    +0.123 A 
ATOM     16  C   UNL     1     -12.473   0.510  -0.009  0.00  0.00    +0.038 A 
ATOM     17  C   UNL     1     -11.508  -0.290  -0.591  0.00  0.00    +0.008 A 
ATOM     18  F   UNL     1     -13.671   1.194   1.917  0.00  0.00    -0.205 F 
ENDBRANCH  11  12
ENDBRANCH   9  11
ENDBRANCH   5   7
ENDBRANCH   1   2
BRANCH   1  19
ATOM     19  N   UNL     1      -1.376  -0.512   0.012  0.00  0.00    +0.386 N 
ATOM     20  C   UNL     1      -1.396  -1.979   0.099  0.00  0.00    -0.095 C 
ATOM     21  H   UNL     1      -1.877  -0.114   0.907  0.00  0.00    -0.081 HD
BRANCH  19  23
ATOM     22  C   UNL     1      -0.019   1.526   0.010  0.00  0.00    -0.008 C 
ATOM     23  C   UNL     1       0.002  -0.004   0.002  0.00  0.00    -0.041 C 
BRANCH  23  24
ATOM     24  C   UNL     1       0.731  -0.503   1.223  0.00  0.00    -0.061 A 
ATOM     25  C   UNL     1       0.084  -0.548   2.444  0.00  0.00    +0.004 A 
ATOM     26  C   UNL     1       0.751  -1.010   3.563  0.00  0.00    +0.029 A 
ATOM     27  C   UNL     1       2.068  -1.418   3.463  0.00  0.00    +0.105 A 
ATOM     28  C   UNL     1       2.717  -1.369   2.243  0.00  0.00    +0.029 A 
ATOM     29  C   UNL     1       2.048  -0.911   1.123  0.00  0.00    +0.004 A 
BRANCH  27  30
ATOM     30  S   UNL     1       2.921  -2.001   4.891  0.00  0.00    +0.056 S 
ATOM     31  O   UNL     1       1.928  -2.462   5.796  0.00  0.00    -0.153 OA
ATOM     32  O   UNL     1       3.973  -2.835   4.424  0.00  0.00    -0.153 OA
BRANCH  30  33
ATOM     33  N   UNL     1       3.638  -0.689   5.602  0.00  0.00    -0.204 NA
ATOM     34  H   UNL     1       4.183  -1.012   6.502  0.00  0.00    +0.144 HD
ATOM     35  H   UNL     1       2.866   0.043   5.884  0.00  0.00    +0.144 HD
ENDBRANCH  30  33
ENDBRANCH  27  30
ENDBRANCH  23  24
ENDBRANCH  19  23
ENDBRANCH   1  19
TORSDOF 9
