REMARK  Name = ZINC39636943
REMARK  10 active torsions:
REMARK  status: ('A' for Active; 'I' for Inactive)
REMARK    1  A    between atoms: C_1  and  O_2
REMARK    2  A    between atoms: O_2  and  C_3
REMARK    3  A    between atoms: C_5  and  C_13
REMARK    4  A    between atoms: C_7  and  O_11
REMARK    5  A    between atoms: C_8  and  O_9
REMARK    6  A    between atoms: O_9  and  C_10
REMARK    7  A    between atoms: O_11  and  C_12
REMARK    8  A    between atoms: C_13  and  N_14
REMARK    9  A    between atoms: C_15  and  C_17
REMARK   10  A    between atoms: C_28  and  C_30
REMARK                            x       y       z     vdW  Elec       q    Type
REMARK                         _______ _______ _______ _____ _____    ______ ____
ROOT
ATOM      1  C   UNL     1      -6.563   1.985  -2.639  0.00  0.00    +0.100 C 
ATOM      2  C   UNL     1      -5.628   2.744  -3.607  0.00  0.00    +0.121 C 
ATOM      3  N   UNL     1      -6.540   3.547  -4.455  0.00  0.00    -0.296 N 
ATOM      4  C   UNL     1      -7.586   4.027  -3.520  0.00  0.00    +0.115 C 
ATOM      5  C   UNL     1      -7.846   2.830  -2.584  0.00  0.00    -0.004 C 
ATOM      6  C   UNL     1      -9.036   2.018  -3.085  0.00  0.00    -0.010 C 
ATOM      7  C   UNL     1     -10.309   2.860  -2.968  0.00  0.00    -0.082 C 
ATOM      8  N   UNL     1     -10.512   3.251  -1.567  0.00  0.00    +0.379 N 
ATOM      9  C   UNL     1      -9.409   4.109  -1.122  0.00  0.00    -0.082 C 
ATOM     10  C   UNL     1      -8.097   3.320  -1.161  0.00  0.00    -0.010 C 
ATOM     11  C   UNL     1      -6.442   3.787  -5.778  0.00  0.00    +0.247 C 
ATOM     12  O   UNL     1      -5.594   3.217  -6.437  0.00  0.00    -0.270 OA
ATOM     13  H   UNL     1     -11.383   3.754  -1.483  0.00  0.00    -0.086 HD
ATOM     14  H   UNL     1     -10.548   2.424  -0.991  0.00  0.00    -0.086 HD
ENDROOT
BRANCH  11  15
ATOM     15  C   UNL     1      -7.364   4.742  -6.427  0.00  0.00    +0.037 A 
ATOM     16  C   UNL     1      -8.017   5.718  -5.652  0.00  0.00    +0.013 A 
ATOM     17  C   UNL     1      -8.868   6.606  -6.225  0.00  0.00    +0.009 A 
ATOM     18  C   UNL     1      -9.108   6.558  -7.610  0.00  0.00    -0.018 A 
ATOM     19  C   UNL     1      -9.985   7.467  -8.226  0.00  0.00    +0.008 A 
ATOM     20  C   UNL     1     -10.198   7.396  -9.568  0.00  0.00    +0.001 A 
ATOM     21  C   UNL     1      -9.558   6.434 -10.347  0.00  0.00    +0.001 A 
ATOM     22  C   UNL     1      -8.701   5.537  -9.787  0.00  0.00    +0.008 A 
ATOM     23  C   UNL     1      -8.457   5.579  -8.402  0.00  0.00    -0.017 A 
ATOM     24  C   UNL     1      -7.575   4.673  -7.794  0.00  0.00    +0.021 A 
ENDBRANCH  11  15
BRANCH   1  26
ATOM     25  N   UNL     1      -6.213   0.841  -0.474  0.00  0.00    -0.311 N 
ATOM     26  C   UNL     1      -5.937   1.892  -1.271  0.00  0.00    +0.218 C 
ATOM     27  O   UNL     1      -5.185   2.763  -0.887  0.00  0.00    -0.275 OA
ATOM     28  H   UNL     1      -6.815   0.145  -0.780  0.00  0.00    +0.149 HD
BRANCH  25  29
ATOM     29  C   UNL     1      -5.605   0.751   0.856  0.00  0.00    +0.139 C 
BRANCH  29  32
ATOM     30  C   UNL     1      -5.787  -2.844   2.011  0.00  0.00    +0.165 A 
ATOM     31  C   UNL     1      -5.359  -1.682   1.385  0.00  0.00    +0.054 A 
ATOM     32  C   UNL     1      -6.074  -0.509   1.538  0.00  0.00    -0.023 A 
ATOM     33  C   UNL     1      -7.216  -0.488   2.316  0.00  0.00    +0.054 A 
ATOM     34  C   UNL     1      -7.650  -1.645   2.945  0.00  0.00    +0.165 A 
ATOM     35  C   UNL     1      -6.938  -2.828   2.789  0.00  0.00    +0.204 A 
BRANCH  30  37
ATOM     36  C   UNL     1      -3.910  -3.940   1.046  0.00  0.00    +0.277 C 
ATOM     37  O   UNL     1      -5.083  -3.997   1.859  0.00  0.00    -0.491 OA
ENDBRANCH  30  37
BRANCH  35  38
ATOM     38  O   UNL     1      -7.364  -3.966   3.400  0.00  0.00    -0.488 OA
ATOM     39  C   UNL     1      -6.870  -4.219   4.717  0.00  0.00    +0.277 C 
ENDBRANCH  35  38
BRANCH  34  40
ATOM     40  O   UNL     1      -8.774  -1.623   3.710  0.00  0.00    -0.491 OA
ATOM     41  C   UNL     1      -9.459  -0.373   3.822  0.00  0.00    +0.277 C 
ENDBRANCH  34  40
ENDBRANCH  29  32
ENDBRANCH  25  29
ENDBRANCH   1  26
TORSDOF 7
