REMARK  Name = ZINC61720218
REMARK  6 active torsions:
REMARK  status: ('A' for Active; 'I' for Inactive)
REMARK    1  A    between atoms: C_6  and  N_7
REMARK    2  A    between atoms: N_7  and  C_8
REMARK    3  A    between atoms: C_8  and  C_9
REMARK    4  A    between atoms: N_12  and  C_16
REMARK    5  A    between atoms: C_16  and  C_17
REMARK    6  A    between atoms: N_21  and  C_22
REMARK                            x       y       z     vdW  Elec       q    Type
REMARK                         _______ _______ _______ _____ _____    ______ ____
ROOT
ATOM      1  C   UNL     1      -2.141  -2.465   1.150  0.00  0.00    +0.149 A 
ATOM      2  N   UNL     1      -3.250  -1.859   0.871  0.00  0.00    -0.152 NA
ATOM      3  H   UNL     1      -1.692  -4.506   1.290  0.00  0.00    +0.172 HD
ATOM      4  N   UNL     1      -4.236  -2.831   0.655  0.00  0.00    -0.206 N 
ATOM      5  C   UNL     1      -3.654  -4.037   0.821  0.00  0.00    +0.345 A 
ATOM      6  O   UNL     1      -4.198  -5.122   0.714  0.00  0.00    -0.245 OA
ATOM      7  N   UNL     1      -2.357  -3.821   1.121  0.00  0.00    -0.292 N 
ENDROOT
BRANCH   1   8
ATOM      8  C   UNL     1      -0.826  -1.793   1.451  0.00  0.00    +0.177 C 
BRANCH   8   9
ATOM      9  N   UNL     1      -0.995  -0.339   1.387  0.00  0.00    -0.337 N 
ATOM     10  H   UNL     1      -1.862   0.040   1.174  0.00  0.00    +0.147 HD
BRANCH   9  16
ATOM     11  C   UNL     1      -0.065   1.881   1.570  0.00  0.00    +0.024 A 
ATOM     12  C   UNL     1       1.013   2.710   1.813  0.00  0.00    +0.017 A 
ATOM     13  C   UNL     1       2.250   2.168   2.115  0.00  0.00    +0.018 A 
ATOM     14  C   UNL     1       2.411   0.795   2.176  0.00  0.00    +0.017 A 
ATOM     15  C   UNL     1       1.337  -0.039   1.935  0.00  0.00    +0.024 A 
ATOM     16  C   UNL     1       0.094   0.502   1.631  0.00  0.00    +0.028 A 
ATOM     17 BR   UNL     1       3.723   3.306   2.445  0.00  0.00    -0.050 Br
ENDBRANCH   9  16
ENDBRANCH   8   9
ENDBRANCH   1   8
BRANCH   4  18
ATOM     18  C   UNL     1      -5.639  -2.584   0.314  0.00  0.00    +0.227 C 
BRANCH  18  19
ATOM     19  C   UNL     1      -6.454  -2.483   1.578  0.00  0.00    +0.178 A 
ATOM     20  N   UNL     1      -6.610  -1.416   2.316  0.00  0.00    -0.111 NA
ATOM     21  N   UNL     1      -7.365  -1.669   3.324  0.00  0.00    -0.023 NA
ATOM     22  N   UNL     1      -7.740  -2.902   3.301  0.00  0.00    -0.039 NA
ATOM     23  N   UNL     1      -7.162  -3.478   2.155  0.00  0.00    -0.195 N 
BRANCH  23  24
ATOM     24  C   UNL     1      -7.292  -4.802   1.709  0.00  0.00    +0.069 A 
ATOM     25  C   UNL     1      -7.513  -5.063   0.364  0.00  0.00    +0.031 A 
ATOM     26  C   UNL     1      -7.640  -6.367  -0.073  0.00  0.00    +0.040 A 
ATOM     27  C   UNL     1      -7.547  -7.413   0.830  0.00  0.00    +0.124 A 
ATOM     28  C   UNL     1      -7.327  -7.154   2.172  0.00  0.00    +0.040 A 
ATOM     29  C   UNL     1      -7.193  -5.852   2.612  0.00  0.00    +0.031 A 
ATOM     30  F   UNL     1      -7.673  -8.688   0.400  0.00  0.00    -0.205 F 
ENDBRANCH  23  24
ENDBRANCH  18  19
ENDBRANCH   4  18
TORSDOF 6
