REMARK  Name = ZINC30960860
REMARK  10 active torsions:
REMARK  status: ('A' for Active; 'I' for Inactive)
REMARK    1  A    between atoms: C_1  and  C_2
REMARK    2  A    between atoms: C_2  and  C_3
REMARK    3  A    between atoms: C_2  and  C_4
REMARK    4  A    between atoms: C_4  and  C_6
REMARK    5  A    between atoms: C_4  and  N_28
REMARK    6  A    between atoms: N_8  and  N_9
REMARK    7  A    between atoms: C_10  and  C_11
REMARK    8  A    between atoms: N_13  and  C_20
REMARK    9  A    between atoms: C_20  and  C_21
REMARK   10  A    between atoms: C_29  and  C_31
REMARK                            x       y       z     vdW  Elec       q    Type
REMARK                         _______ _______ _______ _____ _____    ______ ____
ROOT
ATOM      1  C   UNL     1      -3.916   4.645  -0.188  0.00  0.00    +0.253 C 
ATOM      2  O   UNL     1      -4.797   5.478  -0.246  0.00  0.00    -0.272 OA
ATOM      3  N   UNL     1      -2.641   5.027   0.022  0.00  0.00    -0.205 N 
ATOM      4  H   UNL     1      -1.855   4.269   0.157  0.00  0.00    +0.177 HD
ENDROOT
BRANCH   3   5
ATOM      5  N   UNL     1      -2.316   6.389   0.070  0.00  0.00    -0.188 NA
ATOM      6  C   UNL     1      -1.073   6.758   0.155  0.00  0.00    +0.140 C 
BRANCH   6   7
ATOM      7  C   UNL     1      -0.003   5.839  -0.263  0.00  0.00    +0.020 A 
ATOM      8  C   UNL     1      -0.151   4.684  -0.967  0.00  0.00    +0.096 A 
ATOM      9  N   UNL     1       1.067   4.107  -1.165  0.00  0.00    -0.342 N 
ATOM     10  C   UNL     1       2.058   4.874  -0.590  0.00  0.00    +0.050 A 
ATOM     11  C   UNL     1       1.440   5.989  -0.001  0.00  0.00    +0.009 A 
ATOM     12  C   UNL     1       2.208   6.946   0.659  0.00  0.00    +0.010 A 
ATOM     13  C   UNL     1       3.574   6.788   0.737  0.00  0.00    +0.001 A 
ATOM     14  C   UNL     1       4.187   5.690   0.151  0.00  0.00    +0.002 A 
ATOM     15  C   UNL     1       3.440   4.737  -0.506  0.00  0.00    +0.026 A 
BRANCH   9  16
ATOM     16  C   UNL     1       1.292   2.851  -1.885  0.00  0.00    +0.157 C 
BRANCH  16  17
ATOM     17  C   UNL     1       1.347   1.710  -0.901  0.00  0.00    -0.028 A 
ATOM     18  C   UNL     1       2.556   1.334  -0.347  0.00  0.00    +0.008 A 
ATOM     19  C   UNL     1       2.607   0.291   0.559  0.00  0.00    +0.038 A 
ATOM     20  C   UNL     1       1.447  -0.383   0.904  0.00  0.00    +0.123 A 
ATOM     21  C   UNL     1       0.238  -0.008   0.344  0.00  0.00    +0.038 A 
ATOM     22  C   UNL     1       0.189   1.038  -0.558  0.00  0.00    +0.008 A 
ATOM     23  F   UNL     1       1.496  -1.405   1.786  0.00  0.00    -0.205 F 
ENDBRANCH  16  17
ENDBRANCH   9  16
ENDBRANCH   6   7
ENDBRANCH   3   5
BRANCH   1  24
ATOM     24  C   UNL     1      -4.248   3.184  -0.352  0.00  0.00    +0.163 C 
BRANCH  24  25
ATOM     25  N   UNL     1      -5.649   3.044  -0.757  0.00  0.00    -0.300 N 
ATOM     26  C   UNL     1      -6.048   1.951  -1.436  0.00  0.00    +0.246 C 
ATOM     27  O   UNL     1      -5.246   1.081  -1.713  0.00  0.00    -0.270 OA
ATOM     28  H   UNL     1      -6.375   3.832  -0.506  0.00  0.00    +0.150 HD
BRANCH  26  29
ATOM     29  C   UNL     1      -7.462   1.810  -1.843  0.00  0.00    +0.055 A 
ATOM     30  C   UNL     1      -8.387   2.804  -1.522  0.00  0.00    +0.014 A 
ATOM     31  C   UNL     1      -9.703   2.669  -1.910  0.00  0.00    +0.001 A 
ATOM     32  C   UNL     1     -10.111   1.545  -2.608  0.00  0.00    +0.001 A 
ATOM     33  C   UNL     1      -9.202   0.553  -2.925  0.00  0.00    +0.021 A 
ATOM     34  C   UNL     1      -7.879   0.677  -2.547  0.00  0.00    +0.053 A 
ATOM     35 CL   UNL     1      -6.739  -0.569  -2.946  0.00  0.00    -0.083 Cl
ENDBRANCH  26  29
ENDBRANCH  24  25
BRANCH  24  37
ATOM     36  C   UNL     1      -4.982   3.018   2.030  0.00  0.00    +0.009 C 
ATOM     37  C   UNL     1      -4.025   2.458   0.976  0.00  0.00    +0.012 C 
ATOM     38  C   UNL     1      -4.290   0.963   0.790  0.00  0.00    +0.009 C 
ENDBRANCH  24  37
ENDBRANCH   1  24
TORSDOF 8
