REMARK  Name = ZINC29040383
REMARK  12 active torsions:
REMARK  status: ('A' for Active; 'I' for Inactive)
REMARK    1  A    between atoms: C_1  and  C_2
REMARK    2  A    between atoms: C_5  and  C_33
REMARK    3  A    between atoms: C_6  and  C_8
REMARK    4  A    between atoms: C_8  and  C_9
REMARK    5  A    between atoms: C_9  and  N_10
REMARK    6  A    between atoms: N_10  and  N_11
REMARK    7  A    between atoms: C_14  and  C_32
REMARK    8  A    between atoms: C_15  and  C_18
REMARK    9  A    between atoms: C_18  and  C_19
REMARK   10  A    between atoms: N_21  and  C_22
REMARK   11  A    between atoms: C_22  and  C_23
REMARK   12  A    between atoms: C_26  and  C_29
REMARK                            x       y       z     vdW  Elec       q    Type
REMARK                         _______ _______ _______ _____ _____    ______ ____
ROOT
ATOM      1  N   UNL     1       4.668   5.010  -2.724  0.00  0.00    -0.238 N 
ATOM      2  C   UNL     1       4.073   5.912  -3.546  0.00  0.00    +0.112 A 
ATOM      3  C   UNL     1       4.517   6.090  -4.812  0.00  0.00    +0.023 A 
ATOM      4  C   UNL     1       5.601   5.338  -5.286  0.00  0.00    -0.040 A 
ATOM      5  C   UNL     1       6.197   4.432  -4.458  0.00  0.00    +0.030 A 
ATOM      6  C   UNL     1       5.715   4.277  -3.148  0.00  0.00    +0.272 A 
ATOM      7  O   UNL     1       6.242   3.474  -2.395  0.00  0.00    -0.266 OA
ATOM      8  C   UNL     1       6.103   5.528  -6.694  0.00  0.00    +0.044 C 
ENDROOT
BRANCH   1   9
ATOM      9  N   UNL     1       4.202   4.848  -1.450  0.00  0.00    -0.282 N 
ATOM     10  H   UNL     1       4.641   5.197  -0.503  0.00  0.00    +0.166 HD
BRANCH   9  11
ATOM     11  C   UNL     1       2.940   4.097  -1.442  0.00  0.00    +0.125 C 
BRANCH  11  12
ATOM     12  C   UNL     1       2.451   3.937  -0.001  0.00  0.00    +0.055 C 
BRANCH  12  18
ATOM     13  C   UNL     1      -2.553   3.869   0.046  0.00  0.00    +0.044 C 
ATOM     14  C   UNL     1      -1.238   3.133   0.030  0.00  0.00    -0.050 A 
ATOM     15  C   UNL     1      -1.219   1.750   0.017  0.00  0.00    +0.003 A 
ATOM     16  C   UNL     1      -0.013   1.076   0.008  0.00  0.00    +0.004 A 
ATOM     17  C   UNL     1       1.175   1.783   0.000  0.00  0.00    -0.047 A 
ATOM     18  C   UNL     1       1.157   3.165   0.008  0.00  0.00    -0.043 A 
ATOM     19  C   UNL     1      -0.050   3.840   0.023  0.00  0.00    +0.007 A 
ATOM     20  C   UNL     1       2.490   1.048  -0.016  0.00  0.00    +0.044 C 
ENDBRANCH  12  18
ENDBRANCH  11  12
ENDBRANCH   9  11
ENDBRANCH   1   9
BRANCH   5  21
ATOM     21  C   UNL     1       7.364   3.611  -4.942  0.00  0.00    +0.136 C 
BRANCH  21  22
ATOM     22  C   UNL     1       8.652   4.282  -4.540  0.00  0.00    +0.218 C 
ATOM     23  O   UNL     1       8.624   5.325  -3.921  0.00  0.00    -0.275 OA
ATOM     24  N   UNL     1       9.834   3.724  -4.867  0.00  0.00    -0.311 N 
ATOM     25  H   UNL     1       9.859   2.779  -5.429  0.00  0.00    +0.149 HD
BRANCH  24  26
ATOM     26  C   UNL     1      11.086   4.377  -4.476  0.00  0.00    +0.139 C 
BRANCH  26  27
ATOM     27  C   UNL     1      12.253   3.556  -4.960  0.00  0.00    -0.030 A 
ATOM     28  C   UNL     1      12.787   2.572  -4.147  0.00  0.00    +0.006 A 
ATOM     29  C   UNL     1      13.853   1.814  -4.587  0.00  0.00    +0.011 A 
ATOM     30  C   UNL     1      14.399   2.048  -5.849  0.00  0.00    +0.012 A 
ATOM     31  C   UNL     1      13.859   3.045  -6.661  0.00  0.00    +0.011 A 
ATOM     32  C   UNL     1      12.790   3.794  -6.213  0.00  0.00    +0.006 A 
BRANCH  30  33
ATOM     33  C   UNL     1      15.546   1.241  -6.325  0.00  0.00    +0.094 C 
ATOM     34  N   UNL     1      16.052   1.462  -7.504  0.00  0.00    -0.387 N 
ATOM     35  N   UNL     1      16.076   0.257  -5.520  0.00  0.00    -0.345 N 
ATOM     36  H   UNL     1      16.904   0.863  -7.857  0.00  0.00    +0.157 HD
ATOM     37  H   UNL     1      16.928  -0.342  -5.873  0.00  0.00    +0.144 HD
ATOM     38  H   UNL     1      15.648   0.071  -4.524  0.00  0.00    +0.144 HD
ATOM     39  H   UNL     1      15.629   2.248  -8.146  0.00  0.00    +0.157 HD
ENDBRANCH  30  33
ENDBRANCH  26  27
ENDBRANCH  24  26
ENDBRANCH  21  22
ENDBRANCH   5  21
TORSDOF 9
