REMARK  Name = ZINC65301355
REMARK  12 active torsions:
REMARK  status: ('A' for Active; 'I' for Inactive)
REMARK    1  A    between atoms: C_1  and  C_2
REMARK    2  A    between atoms: C_2  and  C_3
REMARK    3  A    between atoms: C_7  and  C_35
REMARK    4  A    between atoms: C_8  and  N_9
REMARK    5  A    between atoms: C_10  and  C_12
REMARK    6  A    between atoms: N_15  and  C_18
REMARK    7  A    between atoms: C_19  and  C_28
REMARK    8  A    between atoms: C_24  and  C_27
REMARK    9  A    between atoms: N_30  and  C_31
REMARK   10  A    between atoms: N_30  and  C_33
REMARK   11  A    between atoms: C_31  and  C_32
REMARK   12  A    between atoms: C_33  and  C_34
REMARK                            x       y       z     vdW  Elec       q    Type
REMARK                         _______ _______ _______ _____ _____    ______ ____
ROOT
ATOM      1  C   UNL     1      -4.125  -1.495   3.586  0.00  0.00    +0.078 C 
ATOM      2  C   UNL     1      -4.742  -0.096   3.659  0.00  0.00    +0.031 C 
ATOM      3  C   UNL     1      -6.267  -0.209   3.569  0.00  0.00    +0.106 C 
ATOM      4  N   UNL     1      -6.735  -1.130   4.614  0.00  0.00    -0.329 N 
ATOM      5  C   UNL     1      -6.142  -2.472   4.690  0.00  0.00    +0.106 C 
ATOM      6  C   UNL     1      -4.618  -2.334   4.767  0.00  0.00    +0.031 C 
ENDROOT
BRANCH   4   7
ATOM      7  C   UNL     1      -7.714  -0.742   5.506  0.00  0.00    +0.055 A 
ATOM      8  C   UNL     1      -7.377  -0.099   6.705  0.00  0.00    +0.074 A 
ATOM      9  C   UNL     1      -8.384   0.287   7.598  0.00  0.00    +0.098 A 
ATOM     10  N   UNL     1      -9.649   0.050   7.321  0.00  0.00    -0.353 N 
ATOM     11  C   UNL     1     -10.012  -0.551   6.208  0.00  0.00    +0.107 A 
ATOM     12  C   UNL     1      -9.086  -0.980   5.229  0.00  0.00    +0.050 A 
ATOM     13  C   UNL     1      -9.702  -1.589   4.122  0.00  0.00    +0.058 A 
ATOM     14  N   UNL     1     -10.993  -1.709   4.065  0.00  0.00    -0.213 NA
ATOM     15  S   UNL     1     -11.562  -1.037   5.491  0.00  0.00    +0.030 S 
ATOM     16  C   UNL     1      -8.854  -2.109   2.990  0.00  0.00    +0.067 C 
ATOM     17  H   UNL     1     -10.331   0.326   7.954  0.00  0.00    +0.166 HD
BRANCH   8  18
ATOM     18  C   UNL     1      -5.966   0.170   7.026  0.00  0.00    +0.250 C 
ATOM     19  O   UNL     1      -5.295   0.862   6.284  0.00  0.00    -0.270 OA
ATOM     20  N   UNL     1      -5.418  -0.350   8.142  0.00  0.00    -0.298 N 
BRANCH  20  21
ATOM     21  C   UNL     1      -4.050   0.013   8.524  0.00  0.00    +0.104 C 
ATOM     22  C   UNL     1      -4.083   1.250   9.424  0.00  0.00    +0.024 C 
ENDBRANCH  20  21
BRANCH  20  23
ATOM     23  C   UNL     1      -6.189  -1.277   8.974  0.00  0.00    +0.104 C 
ATOM     24  C   UNL     1      -5.845  -2.716   8.586  0.00  0.00    +0.024 C 
ENDBRANCH  20  23
ENDBRANCH   8  18
ENDBRANCH   4   7
BRANCH   1  26
ATOM     25  N   UNL     1      -1.964  -0.687   2.694  0.00  0.00    -0.285 N 
ATOM     26  C   UNL     1      -2.623  -1.385   3.640  0.00  0.00    +0.220 C 
ATOM     27  O   UNL     1      -2.008  -1.925   4.535  0.00  0.00    -0.275 OA
ATOM     28  H   UNL     1      -2.459  -0.213   2.008  0.00  0.00    +0.155 HD
BRANCH  25  34
ATOM     29  C   UNL     1       0.096   0.561   2.525  0.00  0.00    -0.026 A 
ATOM     30  C   UNL     1       1.477   0.599   2.539  0.00  0.00    +0.005 A 
ATOM     31  C   UNL     1       2.200  -0.565   2.724  0.00  0.00    +0.001 A 
ATOM     32  C   UNL     1       1.544  -1.770   2.896  0.00  0.00    +0.005 A 
ATOM     33  C   UNL     1       0.164  -1.815   2.883  0.00  0.00    -0.029 A 
ATOM     34  C   UNL     1      -0.566  -0.646   2.702  0.00  0.00    +0.039 A 
ATOM     35  C   UNL     1      -0.550  -3.129   3.070  0.00  0.00    +0.045 C 
BRANCH  29  37
ATOM     36  C   UNL     1      -1.079   2.411   3.685  0.00  0.00    +0.009 C 
ATOM     37  C   UNL     1      -0.691   1.830   2.324  0.00  0.00    +0.033 C 
ENDBRANCH  29  37
ENDBRANCH  25  34
ENDBRANCH   1  26
TORSDOF 7
