REMARK  Name = ZINC60041326
REMARK  9 active torsions:
REMARK  status: ('A' for Active; 'I' for Inactive)
REMARK    1  A    between atoms: C_1  and  C_2
REMARK    2  A    between atoms: C_2  and  C_3
REMARK    3  A    between atoms: C_3  and  C_4
REMARK    4  A    between atoms: C_4  and  N_5
REMARK    5  A    between atoms: C_6  and  C_8
REMARK    6  A    between atoms: C_12  and  C_27
REMARK    7  A    between atoms: N_14  and  C_16
REMARK    8  A    between atoms: C_16  and  C_17
REMARK    9  A    between atoms: N_19  and  C_20
REMARK                            x       y       z     vdW  Elec       q    Type
REMARK                         _______ _______ _______ _____ _____    ______ ____
ROOT
ATOM      1  C   UNL     1       2.278  -4.304  -3.953  0.00  0.00    +0.058 C 
ATOM      2  C   UNL     1       3.715  -3.776  -3.975  0.00  0.00    +0.009 C 
ATOM      3  C   UNL     1       4.438  -4.341  -5.200  0.00  0.00    -0.015 C 
ATOM      4  C   UNL     1       4.382  -5.870  -5.158  0.00  0.00    -0.071 C 
ATOM      5  N   UNL     1       2.983  -6.313  -5.166  0.00  0.00    +0.388 N 
ATOM      6  C   UNL     1       2.301  -5.834  -3.957  0.00  0.00    -0.065 C 
ATOM      7  C   UNL     1       5.103  -6.440  -6.382  0.00  0.00    -0.013 C 
ATOM      8  H   UNL     1       2.518  -5.942  -5.981  0.00  0.00    -0.081 HD
ENDROOT
BRANCH   1  10
ATOM      9  N   UNL     1       1.443  -2.492  -2.490  0.00  0.00    -0.315 N 
ATOM     10  C   UNL     1       1.581  -3.815  -2.709  0.00  0.00    +0.214 C 
ATOM     11  O   UNL     1       1.144  -4.612  -1.906  0.00  0.00    -0.276 OA
ATOM     12  H   UNL     1       1.792  -1.855  -3.132  0.00  0.00    +0.149 HD
BRANCH   9  13
ATOM     13  C   UNL     1       0.765  -2.017  -1.281  0.00  0.00    +0.104 C 
BRANCH  13  14
ATOM     14  C   UNL     1       0.744  -0.487  -1.276  0.00  0.00    +0.018 C 
BRANCH  14  16
ATOM     15  C   UNL     1       0.015   1.539  -0.009  0.00  0.00    +0.004 C 
ATOM     16  C   UNL     1       0.037   0.009  -0.014  0.00  0.00    -0.002 C 
ENDBRANCH  14  16
ENDBRANCH  13  14
ENDBRANCH   9  13
ENDBRANCH   1  10
BRANCH   5  17
ATOM     17  C   UNL     1       2.935  -7.781  -5.204  0.00  0.00    +0.019 C 
BRANCH  17  18
ATOM     18  C   UNL     1       1.504  -8.234  -5.335  0.00  0.00    +0.201 C 
ATOM     19  O   UNL     1       0.611  -7.415  -5.392  0.00  0.00    -0.278 OA
ATOM     20  N   UNL     1       1.216  -9.549  -5.390  0.00  0.00    -0.286 N 
ATOM     21  H   UNL     1       1.933 -10.202  -5.411  0.00  0.00    +0.155 HD
BRANCH  20  22
ATOM     22  C   UNL     1      -0.118  -9.973  -5.417  0.00  0.00    +0.047 A 
ATOM     23  C   UNL     1      -1.075  -9.216  -6.079  0.00  0.00    +0.024 A 
ATOM     24  C   UNL     1      -2.390  -9.637  -6.104  0.00  0.00    +0.002 A 
ATOM     25  C   UNL     1      -2.754 -10.811  -5.471  0.00  0.00    +0.001 A 
ATOM     26  C   UNL     1      -1.804 -11.567  -4.810  0.00  0.00    +0.016 A 
ATOM     27  C   UNL     1      -0.485 -11.155  -4.786  0.00  0.00    +0.035 A 
ATOM     28  I   UNL     1       0.956 -12.305  -3.792  0.00  0.00    -0.042 I 
ENDBRANCH  20  22
ENDBRANCH  17  18
ENDBRANCH   5  17
TORSDOF 7
