REMARK  Name = ZINC39687244
REMARK  10 active torsions:
REMARK  status: ('A' for Active; 'I' for Inactive)
REMARK    1  A    between atoms: C_1  and  C_2
REMARK    2  A    between atoms: C_2  and  C_3
REMARK    3  A    between atoms: C_3  and  C_4
REMARK    4  A    between atoms: C_4  and  C_6
REMARK    5  A    between atoms: C_4  and  C_7
REMARK    6  A    between atoms: C_11  and  C_20
REMARK    7  A    between atoms: N_22  and  C_23
REMARK    8  A    between atoms: C_23  and  C_25
REMARK    9  A    between atoms: C_23  and  C_32
REMARK   10  A    between atoms: C_25  and  C_26
REMARK                            x       y       z     vdW  Elec       q    Type
REMARK                         _______ _______ _______ _____ _____    ______ ____
ROOT
ATOM      1  C   UNL     1       1.626  -7.115   1.335  0.00  0.00    +0.219 C 
ATOM      2  O   UNL     1       0.495  -7.549   1.392  0.00  0.00    -0.275 OA
ATOM      3  N   UNL     1       2.659  -7.952   1.115  0.00  0.00    -0.303 N 
ATOM      4  H   UNL     1       3.564  -7.604   1.068  0.00  0.00    +0.149 HD
ENDROOT
BRANCH   1   9
ATOM      5  C   UNL     1       0.262  -2.398   1.561  0.00  0.00    +0.218 C 
ATOM      6  O   UNL     1       0.268  -1.553   2.431  0.00  0.00    -0.275 OA
ATOM      7  N   UNL     1       0.543  -3.680   1.865  0.00  0.00    -0.300 N 
ATOM      8  C   UNL     1       0.699  -4.822   0.933  0.00  0.00    +0.121 C 
ATOM      9  C   UNL     1       1.876  -5.639   1.509  0.00  0.00    +0.100 C 
ATOM     10  C   UNL     1       1.915  -5.272   3.002  0.00  0.00    -0.004 C 
ATOM     11  C   UNL     1       0.773  -4.267   3.207  0.00  0.00    +0.115 C 
ATOM     12  C   UNL     1       3.250  -4.624   3.353  0.00  0.00    -0.010 C 
ATOM     13  C   UNL     1       3.286  -4.321   4.854  0.00  0.00    -0.082 C 
ATOM     14  N   UNL     1       3.110  -5.566   5.611  0.00  0.00    +0.379 N 
ATOM     15  C   UNL     1       1.785  -6.135   5.338  0.00  0.00    -0.082 C 
ATOM     16  C   UNL     1       1.685  -6.515   3.857  0.00  0.00    -0.010 C 
ATOM     17  H   UNL     1       3.822  -6.228   5.337  0.00  0.00    -0.086 HD
ATOM     18  H   UNL     1       3.196  -5.374   6.597  0.00  0.00    -0.086 HD
BRANCH   5  19
ATOM     19  C   UNL     1      -0.059  -2.013   0.140  0.00  0.00    +0.072 C 
ATOM     20  C   UNL     1       1.233  -1.649  -0.594  0.00  0.00    +0.017 C 
BRANCH  19  21
ATOM     21  C   UNL     1      -1.003  -0.809   0.138  0.00  0.00    +0.012 C 
BRANCH  21  23
ATOM     22  C   UNL     1      -2.371   0.708  -1.300  0.00  0.00    +0.004 C 
ATOM     23  C   UNL     1      -1.427  -0.496  -1.298  0.00  0.00    -0.003 C 
ENDBRANCH  21  23
ENDBRANCH  19  21
ENDBRANCH   5  19
ENDBRANCH   1   9
BRANCH   3  24
ATOM     24  C   UNL     1       2.416  -9.386   0.945  0.00  0.00    +0.163 C 
BRANCH  24  25
ATOM     25  C   UNL     1       2.355 -10.049   2.297  0.00  0.00    +0.236 C 
ATOM     26  O   UNL     1       2.915  -9.542   3.246  0.00  0.00    -0.274 OA
ATOM     27  N   UNL     1       1.679 -11.204   2.452  0.00  0.00    -0.300 N 
ATOM     28  C   UNL     1       1.102 -11.896   1.290  0.00  0.00    +0.108 C 
ATOM     29  C   UNL     1       1.600 -13.345   1.282  0.00  0.00    +0.019 C 
ATOM     30  C   UNL     1       1.275 -13.998   2.627  0.00  0.00    +0.003 C 
ATOM     31  C   UNL     1       1.996 -13.247   3.749  0.00  0.00    +0.019 C 
ATOM     32  C   UNL     1       1.508 -11.800   3.784  0.00  0.00    +0.108 C 
ENDBRANCH  24  25
BRANCH  24  33
ATOM     33  C   UNL     1       3.551 -10.003   0.126  0.00  0.00    +0.067 C 
BRANCH  33  34
ATOM     34  C   UNL     1       3.565  -9.393  -1.252  0.00  0.00    -0.045 A 
ATOM     35  C   UNL     1       2.824  -9.966  -2.269  0.00  0.00    +0.004 A 
ATOM     36  C   UNL     1       2.837  -9.406  -3.533  0.00  0.00    +0.000 A 
ATOM     37  C   UNL     1       3.590  -8.274  -3.780  0.00  0.00    +0.000 A 
ATOM     38  C   UNL     1       4.331  -7.701  -2.763  0.00  0.00    +0.000 A 
ATOM     39  C   UNL     1       4.315  -8.258  -1.498  0.00  0.00    +0.004 A 
ENDBRANCH  33  34
ENDBRANCH  24  33
ENDBRANCH   3  24
TORSDOF 8
