REMARK  Name = ZINC66873865
REMARK  5 active torsions:
REMARK  status: ('A' for Active; 'I' for Inactive)
REMARK    1  A    between atoms: C_1  and  C_2
REMARK    2  A    between atoms: N_4  and  C_5
REMARK    3  A    between atoms: C_7  and  N_13
REMARK    4  A    between atoms: C_14  and  C_16
REMARK    5  A    between atoms: C_23  and  C_25
REMARK                            x       y       z     vdW  Elec       q    Type
REMARK                         _______ _______ _______ _____ _____    ______ ____
ROOT
ATOM      1  N   UNL     1       0.134  -5.012   1.018  0.00  0.00    -0.283 N 
ATOM      2  C   UNL     1      -0.075  -4.400   2.200  0.00  0.00    +0.222 C 
ATOM      3  O   UNL     1      -0.158  -3.191   2.251  0.00  0.00    -0.275 OA
ATOM      4  H   UNL     1       0.265  -5.972   0.985  0.00  0.00    +0.155 HD
ENDROOT
BRANCH   1   7
ATOM      5  C   UNL     1       0.712  -2.233  -1.330  0.00  0.00    +0.071 A 
ATOM      6  C   UNL     1       0.684  -2.975  -0.158  0.00  0.00    +0.052 A 
ATOM      7  C   UNL     1       0.163  -4.260  -0.165  0.00  0.00    +0.071 A 
ATOM      8  C   UNL     1      -0.332  -4.803  -1.346  0.00  0.00    +0.147 A 
ATOM      9  C   UNL     1      -0.303  -4.061  -2.513  0.00  0.00    +0.080 A 
ATOM     10  C   UNL     1       0.212  -2.777  -2.507  0.00  0.00    +0.147 A 
ATOM     11  F   UNL     1       0.234  -2.053  -3.648  0.00  0.00    -0.203 F 
ATOM     12  F   UNL     1      -0.840  -6.054  -1.353  0.00  0.00    -0.203 F 
BRANCH   5  16
ATOM     13  C   UNL     1       2.909   0.736  -0.592  0.00  0.00    +0.109 C 
ATOM     14  C   UNL     1       2.279  -0.631  -0.524  0.00  0.00    +0.214 C 
ATOM     15  O   UNL     1       2.708  -1.459   0.251  0.00  0.00    -0.276 OA
ATOM     16  N   UNL     1       1.238  -0.934  -1.325  0.00  0.00    -0.283 N 
ATOM     17  H   UNL     1       0.853  -0.253  -1.899  0.00  0.00    +0.155 HD
ENDBRANCH   5  16
ENDBRANCH   1   7
BRANCH   2  18
ATOM     18  C   UNL     1      -0.206  -5.218   3.459  0.00  0.00    +0.096 C 
ATOM     19  C   UNL     1      -0.495  -4.295   4.686  0.00  0.00    +0.025 C 
ATOM     20  C   UNL     1      -2.049  -4.101   4.535  0.00  0.00    +0.016 C 
ATOM     21  C   UNL     1      -2.338  -5.646   4.579  0.00  0.00    +0.027 C 
ATOM     22  C   UNL     1      -1.451  -6.135   3.385  0.00  0.00    +0.121 C 
ATOM     23  C   UNL     1      -1.529  -6.028   5.824  0.00  0.00    -0.027 C 
ATOM     24  C   UNL     1      -0.445  -5.246   5.888  0.00  0.00    -0.027 C 
BRANCH  22  25
ATOM     25  C   UNL     1      -1.058  -7.578   3.570  0.00  0.00    +0.360 C 
ATOM     26  O   UNL     1      -1.841  -8.363   4.077  0.00  0.00    -0.246 OA
ATOM     27  O   UNL     1       0.043  -7.960   3.213  0.00  0.00    -0.246 OA
ENDBRANCH  22  25
ENDBRANCH   2  18
TORSDOF 4
