REMARK  Name = ZINC04236576
REMARK  13 active torsions:
REMARK  status: ('A' for Active; 'I' for Inactive)
REMARK    1  A    between atoms: C_1  and  C_2
REMARK    2  A    between atoms: C_5  and  O_31
REMARK    3  A    between atoms: C_7  and  C_28
REMARK    4  A    between atoms: C_7  and  C_29
REMARK    5  A    between atoms: C_12  and  O_27
REMARK    6  A    between atoms: C_14  and  C_16
REMARK    7  A    between atoms: C_16  and  C_17
REMARK    8  A    between atoms: N_19  and  C_20
REMARK    9  A    between atoms: C_20  and  C_21
REMARK   10  A    between atoms: C_29  and  O_30
REMARK   11  A    between atoms: O_31  and  C_32
REMARK   12  A    between atoms: N_34  and  C_35
REMARK   13  A    between atoms: C_35  and  C_36
REMARK                            x       y       z     vdW  Elec       q    Type
REMARK                         _______ _______ _______ _____ _____    ______ ____
ROOT
ATOM      1  C   UNL     1      -0.333   1.449  -0.317  0.00  0.00    +0.012 C 
ATOM      2  C   UNL     1      -1.049   1.942   0.942  0.00  0.00    -0.023 C 
ATOM      3  C   UNL     1      -0.617   1.095   2.140  0.00  0.00    +0.011 C 
ATOM      4  C   UNL     1       0.895   1.217   2.333  0.00  0.00    +0.046 C 
ATOM      5  C   UNL     1       1.260   2.682   2.586  0.00  0.00    +0.186 C 
ATOM      6  C   UNL     1       0.828   3.530   1.388  0.00  0.00    +0.031 C 
ATOM      7  C   UNL     1      -0.685   3.407   1.196  0.00  0.00    +0.007 C 
ATOM      8  C   UNL     1      -1.117   4.255  -0.003  0.00  0.00    +0.007 C 
ATOM      9  C   UNL     1      -2.630   4.132  -0.195  0.00  0.00    +0.032 C 
ATOM     10  C   UNL     1      -2.994   2.668  -0.449  0.00  0.00    +0.119 C 
ATOM     11  C   UNL     1      -2.562   1.820   0.749  0.00  0.00    +0.032 C 
ATOM     12  C   UNL     1       1.193   4.994   1.642  0.00  0.00    +0.017 C 
ENDROOT
BRANCH  10  13
ATOM     13  O   UNL     1      -2.325   2.207  -1.624  0.00  0.00    -0.391 OA
ATOM     14  H   UNL     1      -2.552   2.700  -2.425  0.00  0.00    +0.210 HD
ENDBRANCH  10  13
BRANCH  11  15
ATOM     15  C   UNL     1      -2.927   0.356   0.496  0.00  0.00    +0.102 C 
BRANCH  15  16
ATOM     16  C   UNL     1      -4.426   0.216   0.428  0.00  0.00    +0.214 C 
ATOM     17  O   UNL     1      -5.133   1.191   0.569  0.00  0.00    -0.276 OA
ATOM     18  N   UNL     1      -4.981  -0.993   0.212  0.00  0.00    -0.311 N 
ATOM     19  H   UNL     1      -4.415  -1.773   0.099  0.00  0.00    +0.149 HD
BRANCH  18  20
ATOM     20  C   UNL     1      -6.438  -1.129   0.146  0.00  0.00    +0.139 C 
BRANCH  20  21
ATOM     21  C   UNL     1      -6.797  -2.571  -0.104  0.00  0.00    -0.030 A 
ATOM     22  C   UNL     1      -6.932  -3.036  -1.399  0.00  0.00    +0.005 A 
ATOM     23  C   UNL     1      -7.257  -4.360  -1.628  0.00  0.00    +0.000 A 
ATOM     24  C   UNL     1      -7.457  -5.217  -0.562  0.00  0.00    +0.000 A 
ATOM     25  C   UNL     1      -7.327  -4.751   0.733  0.00  0.00    +0.000 A 
ATOM     26  C   UNL     1      -6.997  -3.428   0.962  0.00  0.00    +0.005 A 
ENDBRANCH  20  21
ENDBRANCH  18  20
ENDBRANCH  15  16
ENDBRANCH  11  15
BRANCH   6  27
ATOM     27  C   UNL     1       1.544   3.036   0.129  0.00  0.00    +0.166 C 
BRANCH  27  28
ATOM     28  O   UNL     1       2.939   3.330   0.229  0.00  0.00    -0.394 OA
ATOM     29  H   UNL     1       3.457   3.045  -0.537  0.00  0.00    +0.209 HD
ENDBRANCH  27  28
ENDBRANCH   6  27
BRANCH   5  30
ATOM     30  O   UNL     1       2.696   2.798   2.769  0.00  0.00    -0.446 OA
BRANCH  30  31
ATOM     31  C   UNL     1       3.164   2.677   4.026  0.00  0.00    +0.401 C 
ATOM     32  O   UNL     1       2.394   2.479   4.944  0.00  0.00    -0.226 OA
ATOM     33  N   UNL     1       4.487   2.775   4.264  0.00  0.00    -0.278 N 
ATOM     34  H   UNL     1       5.102   2.933   3.531  0.00  0.00    +0.152 HD
BRANCH  33  35
ATOM     35  C   UNL     1       4.996   2.643   5.632  0.00  0.00    +0.134 C 
BRANCH  35  36
ATOM     36  C   UNL     1       6.496   2.791   5.626  0.00  0.00    -0.016 C 
ATOM     37  C   UNL     1       7.069   3.688   6.390  0.00  0.00    +0.005 C 
ENDBRANCH  35  36
ENDBRANCH  33  35
ENDBRANCH  30  31
ENDBRANCH   5  30
TORSDOF 11
