REMARK  Name = ZINC40376883
REMARK  8 active torsions:
REMARK  status: ('A' for Active; 'I' for Inactive)
REMARK    1  A    between atoms: C_1  and  C_2
REMARK    2  A    between atoms: C_2  and  C_3
REMARK    3  A    between atoms: C_3  and  C_4
REMARK    4  A    between atoms: C_4  and  C_6
REMARK    5  A    between atoms: C_4  and  N_10
REMARK    6  A    between atoms: N_7  and  O_8
REMARK    7  A    between atoms: N_10  and  S_11
REMARK    8  A    between atoms: S_11  and  C_14
REMARK                            x       y       z     vdW  Elec       q    Type
REMARK                         _______ _______ _______ _____ _____    ______ ____
ROOT
ATOM      1  N   UNL     1      -0.743  -2.508  -1.376  0.00  0.00    -0.180 NA
ATOM      2  H   UNL     1      -1.436  -2.066  -1.891  0.00  0.00    +0.149 HD
ENDROOT
BRANCH   1   3
ATOM      3  S   UNL     1      -1.033  -3.990  -0.697  0.00  0.00    +0.060 S 
ATOM      4  O   UNL     1      -2.368  -4.338  -1.036  0.00  0.00    -0.153 OA
ATOM      5  O   UNL     1       0.077  -4.813  -1.029  0.00  0.00    -0.153 OA
BRANCH   3   6
ATOM      6  C   UNL     1      -0.997  -3.777   1.052  0.00  0.00    +0.120 A 
ATOM      7  C   UNL     1      -0.004  -4.380   1.801  0.00  0.00    +0.045 A 
ATOM      8  C   UNL     1       0.024  -4.213   3.174  0.00  0.00    +0.020 A 
ATOM      9  C   UNL     1      -0.942  -3.443   3.797  0.00  0.00    +0.016 A 
ATOM     10  C   UNL     1      -1.935  -2.841   3.048  0.00  0.00    +0.018 A 
ATOM     11  C   UNL     1      -1.960  -3.004   1.674  0.00  0.00    +0.044 A 
ATOM     12 BR   UNL     1      -3.314  -2.174   0.648  0.00  0.00    -0.048 Br
ATOM     13 BR   UNL     1       1.383  -5.037   4.199  0.00  0.00    -0.050 Br
ENDBRANCH   3   6
ENDBRANCH   1   3
BRANCH   1  14
ATOM     14  C   UNL     1       0.561  -1.864  -1.200  0.00  0.00    +0.143 C 
BRANCH  14  15
ATOM     15  C   UNL     1       1.445  -2.190  -2.376  0.00  0.00    +0.150 C 
ATOM     16  N   UNL     1       2.514  -2.896  -2.205  0.00  0.00    -0.075 NA
ATOM     17  N   UNL     1       1.115  -1.735  -3.633  0.00  0.00    -0.343 N 
ATOM     18  H   UNL     1       0.312  -1.205  -3.762  0.00  0.00    +0.144 HD
ATOM     19  H   UNL     1       1.684  -1.945  -4.390  0.00  0.00    +0.144 HD
BRANCH  16  20
ATOM     20  O   UNL     1       3.344  -3.202  -3.310  0.00  0.00    -0.408 OA
ATOM     21  H   UNL     1       4.119  -3.734  -3.083  0.00  0.00    +0.328 HD
ENDBRANCH  16  20
ENDBRANCH  14  15
BRANCH  14  22
ATOM     22  C   UNL     1       0.373  -0.348  -1.108  0.00  0.00    +0.028 C 
BRANCH  22  24
ATOM     23  C   UNL     1      -0.608   1.507   0.247  0.00  0.00    +0.004 C 
ATOM     24  C   UNL     1      -0.420  -0.008   0.155  0.00  0.00    -0.001 C 
ENDBRANCH  22  24
ENDBRANCH  14  22
ENDBRANCH   1  14
TORSDOF 7
