REMARK  Name = ZINC22259070
REMARK  8 active torsions:
REMARK  status: ('A' for Active; 'I' for Inactive)
REMARK    1  A    between atoms: C_1  and  C_2
REMARK    2  A    between atoms: C_5  and  S_7
REMARK    3  A    between atoms: S_7  and  C_8
REMARK    4  A    between atoms: C_8  and  C_9
REMARK    5  A    between atoms: C_17  and  C_18
REMARK    6  A    between atoms: N_20  and  N_21
REMARK    7  A    between atoms: C_22  and  C_24
REMARK    8  A    between atoms: C_29  and  O_30
REMARK                            x       y       z     vdW  Elec       q    Type
REMARK                         _______ _______ _______ _____ _____    ______ ____
ROOT
ATOM      1  C   UNL     1       0.098  -5.829   2.776  0.00  0.00    +0.021 A 
ATOM      2  C   UNL     1       1.278  -6.426   3.400  0.00  0.00    +0.025 A 
ATOM      3  C   UNL     1       2.656  -6.251   3.245  0.00  0.00    +0.012 A 
ATOM      4  C   UNL     1       3.522  -6.986   4.004  0.00  0.00    +0.001 A 
ATOM      5  C   UNL     1       3.042  -7.906   4.927  0.00  0.00    +0.004 A 
ATOM      6  C   UNL     1       1.687  -8.093   5.095  0.00  0.00    +0.047 A 
ATOM      7  C   UNL     1       0.786  -7.356   4.334  0.00  0.00    +0.136 A 
ATOM      8  O   UNL     1      -0.559  -7.320   4.275  0.00  0.00    -0.450 OA
ATOM      9  C   UNL     1      -0.976  -6.418   3.362  0.00  0.00    +0.196 A 
ENDROOT
BRANCH   9  10
ATOM     10  C   UNL     1      -2.380  -6.120   3.048  0.00  0.00    +0.296 C 
ATOM     11  O   UNL     1      -2.651  -5.288   2.203  0.00  0.00    -0.265 OA
ATOM     12  N   UNL     1      -3.368  -6.768   3.696  0.00  0.00    -0.228 N 
ATOM     13  H   UNL     1      -3.152  -7.432   4.370  0.00  0.00    +0.173 HD
BRANCH  12  14
ATOM     14  N   UNL     1      -4.707  -6.484   3.396  0.00  0.00    -0.230 N 
ATOM     15  C   UNL     1      -5.695  -7.133   4.044  0.00  0.00    +0.264 C 
ATOM     16  O   UNL     1      -5.424  -7.965   4.889  0.00  0.00    -0.269 OA
ATOM     17  H   UNL     1      -4.923  -5.821   2.722  0.00  0.00    +0.173 HD
BRANCH  15  18
ATOM     18  C   UNL     1      -7.105  -6.834   3.729  0.00  0.00    +0.079 A 
ATOM     19  C   UNL     1      -7.420  -5.883   2.755  0.00  0.00    +0.017 A 
ATOM     20  C   UNL     1      -8.739  -5.609   2.464  0.00  0.00    +0.001 A 
ATOM     21  C   UNL     1      -9.755  -6.271   3.134  0.00  0.00    +0.004 A 
ATOM     22  C   UNL     1      -9.457  -7.213   4.099  0.00  0.00    +0.046 A 
ATOM     23  C   UNL     1      -8.135  -7.506   4.400  0.00  0.00    +0.129 A 
BRANCH  23  24
ATOM     24  O   UNL     1      -7.841  -8.434   5.344  0.00  0.00    -0.506 OA
ATOM     25  H   UNL     1      -7.761  -8.075   6.238  0.00  0.00    +0.292 HD
ENDBRANCH  23  24
ENDBRANCH  15  18
ENDBRANCH  12  14
ENDBRANCH   9  10
BRANCH   1  26
ATOM     26  C   UNL     1       0.078  -4.771   1.703  0.00  0.00    +0.116 C 
BRANCH  26  27
ATOM     27  S   UNL     1       0.058  -3.129   2.474  0.00  0.00    -0.094 S 
BRANCH  27  32
ATOM     28  C   UNL     1      -0.018   1.503   0.010  0.00  0.00    +0.066 C 
ATOM     29  C   UNL     1       0.002  -0.004   0.002  0.00  0.00    +0.047 A 
ATOM     30  C   UNL     1       0.006  -0.705  -1.157  0.00  0.00    +0.070 A 
ATOM     31  S   UNL     1       0.032  -2.378  -0.535  0.00  0.00    -0.069 S 
ATOM     32  C   UNL     1       0.036  -2.016   1.108  0.00  0.00    +0.135 A 
ATOM     33  N   UNL     1       0.023  -0.700   1.125  0.00  0.00    -0.238 NA
ENDBRANCH  27  32
ENDBRANCH  26  27
ENDBRANCH   1  26
TORSDOF 7
