REMARK  Name = ZINC41642210
REMARK  11 active torsions:
REMARK  status: ('A' for Active; 'I' for Inactive)
REMARK    1  A    between atoms: C_1  and  N_2
REMARK    2  A    between atoms: N_2  and  C_3
REMARK    3  A    between atoms: N_2  and  C_4
REMARK    4  A    between atoms: C_4  and  C_6
REMARK    5  A    between atoms: C_4  and  C_24
REMARK    6  A    between atoms: C_6  and  N_7
REMARK    7  A    between atoms: C_8  and  C_10
REMARK    8  A    between atoms: N_12  and  C_13
REMARK    9  A    between atoms: C_16  and  O_19
REMARK   10  A    between atoms: O_19  and  C_20
REMARK   11  A    between atoms: C_20  and  C_21
REMARK                            x       y       z     vdW  Elec       q    Type
REMARK                         _______ _______ _______ _____ _____    ______ ____
ROOT
ATOM      1  C   UNL     1      -1.454   3.221  -2.898  0.00  0.00    +0.303 C 
ATOM      2  O   UNL     1      -0.681   3.774  -2.144  0.00  0.00    -0.265 OA
ATOM      3  N   UNL     1      -1.912   3.869  -3.988  0.00  0.00    -0.278 N 
ATOM      4  H   UNL     1      -2.577   3.451  -4.557  0.00  0.00    +0.155 HD
ENDROOT
BRANCH   3   5
ATOM      5  C   UNL     1      -1.427   5.143  -4.299  0.00  0.00    +0.034 A 
ATOM      6  C   UNL     1      -0.104   5.470  -4.026  0.00  0.00    +0.027 A 
ATOM      7  C   UNL     1       0.373   6.728  -4.333  0.00  0.00    +0.047 A 
ATOM      8  C   UNL     1      -0.467   7.666  -4.915  0.00  0.00    +0.121 A 
ATOM      9  C   UNL     1      -1.788   7.341  -5.188  0.00  0.00    +0.047 A 
ATOM     10  C   UNL     1      -2.266   6.082  -4.886  0.00  0.00    +0.027 A 
BRANCH   8  11
ATOM     11  O   UNL     1       0.005   8.905  -5.218  0.00  0.00    -0.483 OA
BRANCH  11  12
ATOM     12  C   UNL     1      -0.915   9.821  -5.815  0.00  0.00    +0.324 C 
BRANCH  12  13
ATOM     13  C   UNL     1      -0.220  11.132  -6.077  0.00  0.00    +0.248 C 
ATOM     14  O   UNL     1       0.949  11.268  -5.782  0.00  0.00    -0.272 OA
ATOM     15  N   UNL     1      -0.896  12.153  -6.640  0.00  0.00    -0.327 N 
ATOM     16  H   UNL     1      -1.830  12.044  -6.876  0.00  0.00    +0.145 HD
ATOM     17  H   UNL     1      -0.448  12.997  -6.809  0.00  0.00    +0.145 HD
ENDBRANCH  12  13
ENDBRANCH  11  12
ENDBRANCH   8  11
ENDBRANCH   3   5
BRANCH   1  19
ATOM     18  N   UNL     1      -1.442   1.175  -1.529  0.00  0.00    -0.309 N 
ATOM     19  C   UNL     1      -1.899   1.823  -2.619  0.00  0.00    +0.299 C 
ATOM     20  O   UNL     1      -2.673   1.270  -3.373  0.00  0.00    -0.265 OA
ATOM     21  H   UNL     1      -0.824   1.617  -0.926  0.00  0.00    +0.149 HD
BRANCH  18  22
ATOM     22  C   UNL     1      -1.879  -0.196  -1.255  0.00  0.00    +0.089 C 
BRANCH  22  23
ATOM     23  C   UNL     1      -1.199  -0.703   0.019  0.00  0.00    -0.049 C 
BRANCH  23  24
ATOM     24  C   UNL     1       0.288  -0.938  -0.255  0.00  0.00    -0.023 C 
ATOM     25  C   UNL     1       0.928   0.363  -0.743  0.00  0.00    +0.002 C 
ATOM     26  C   UNL     1       2.415   0.128  -1.018  0.00  0.00    +0.000 C 
ATOM     27  C   UNL     1       2.571  -0.951  -2.091  0.00  0.00    +0.000 C 
ATOM     28  C   UNL     1       1.931  -2.252  -1.603  0.00  0.00    +0.000 C 
ATOM     29  C   UNL     1       0.444  -2.017  -1.329  0.00  0.00    +0.002 C 
ENDBRANCH  23  24
BRANCH  23  31
ATOM     30  C   UNL     1      -2.772   0.465   1.403  0.00  0.00    -0.096 C 
ATOM     31  N   UNL     1      -1.348   0.298   1.085  0.00  0.00    +0.379 N 
ATOM     32  C   UNL     1      -0.628  -0.153   2.283  0.00  0.00    -0.096 C 
ATOM     33  H   UNL     1      -0.967   1.179   0.774  0.00  0.00    -0.082 HD
ENDBRANCH  23  31
ENDBRANCH  22  23
ENDBRANCH  18  22
ENDBRANCH   1  19
TORSDOF 9
