REMARK  Name = ZINC64392097
REMARK  8 active torsions:
REMARK  status: ('A' for Active; 'I' for Inactive)
REMARK    1  A    between atoms: C_1  and  O_2
REMARK    2  A    between atoms: O_2  and  C_3
REMARK    3  A    between atoms: C_6  and  C_11
REMARK    4  A    between atoms: C_8  and  O_9
REMARK    5  A    between atoms: O_9  and  C_10
REMARK    6  A    between atoms: C_13  and  C_17
REMARK    7  A    between atoms: N_27  and  C_30
REMARK    8  A    between atoms: C_30  and  C_31
REMARK                            x       y       z     vdW  Elec       q    Type
REMARK                         _______ _______ _______ _____ _____    ______ ____
ROOT
ATOM      1  C   UNL     1       2.397  -3.363  -7.563  0.00  0.00    +0.006 A 
ATOM      2  C   UNL     1       1.026  -3.438  -7.373  0.00  0.00    +0.009 A 
ATOM      3  C   UNL     1       0.201  -3.851  -8.398  0.00  0.00    +0.016 A 
ATOM      4  C   UNL     1       0.754  -4.194  -9.629  0.00  0.00    +0.063 A 
ATOM      5  C   UNL     1       2.145  -4.117  -9.821  0.00  0.00    +0.056 A 
ATOM      6  C   UNL     1       2.958  -3.694  -8.781  0.00  0.00    +0.034 A 
ATOM      7  N   UNL     1       2.668  -4.464 -11.058  0.00  0.00    -0.307 N 
ATOM      8  H   UNL     1       3.626  -4.416 -11.205  0.00  0.00    +0.170 HD
ATOM      9  C   UNL     1       1.861  -4.865 -12.055  0.00  0.00    +0.330 A 
ATOM     10  O   UNL     1       2.360  -5.161 -13.124  0.00  0.00    -0.246 OA
ATOM     11  N   UNL     1       0.529  -4.955 -11.921  0.00  0.00    -0.256 N 
ATOM     12  C   UNL     1      -0.082  -4.641 -10.758  0.00  0.00    +0.265 A 
ATOM     13  O   UNL     1      -1.289  -4.724 -10.645  0.00  0.00    -0.267 OA
ENDROOT
BRANCH   1  16
ATOM     14  C   UNL     1       2.496  -2.489  -4.367  0.00  0.00    +0.134 C 
ATOM     15  N   UNL     1       2.558  -1.979  -5.559  0.00  0.00    -0.339 N 
ATOM     16  C   UNL     1       3.284  -2.909  -6.432  0.00  0.00    +0.274 C 
ATOM     17  O   UNL     1       3.635  -4.023  -5.597  0.00  0.00    -0.243 OA
ATOM     18  N   UNL     1       3.123  -3.709  -4.311  0.00  0.00    -0.247 N 
ATOM     19  H   UNL     1       3.202  -4.267  -3.522  0.00  0.00    +0.196 HD
ATOM     20  H   UNL     1       2.186  -1.125  -5.829  0.00  0.00    +0.164 HD
BRANCH  14  24
ATOM     21  C   UNL     1       0.606  -0.607  -1.055  0.00  0.00    +0.162 A 
ATOM     22  C   UNL     1       1.172   0.163  -2.061  0.00  0.00    +0.050 A 
ATOM     23  C   UNL     1       1.786  -0.444  -3.136  0.00  0.00    +0.015 A 
ATOM     24  C   UNL     1       1.838  -1.837  -3.214  0.00  0.00    +0.021 A 
ATOM     25  C   UNL     1       1.269  -2.612  -2.203  0.00  0.00    +0.061 A 
ATOM     26  C   UNL     1       0.660  -1.998  -1.125  0.00  0.00    +0.162 A 
BRANCH  21  28
ATOM     27  C   UNL     1      -0.017   1.425   0.010  0.00  0.00    +0.277 C 
ATOM     28  O   UNL     1       0.002  -0.004   0.002  0.00  0.00    -0.491 OA
ENDBRANCH  21  28
BRANCH  26  29
ATOM     29  O   UNL     1       0.108  -2.750  -0.136  0.00  0.00    -0.491 OA
ATOM     30  C   UNL     1       0.200  -4.170  -0.273  0.00  0.00    +0.277 C 
ENDBRANCH  26  29
ENDBRANCH  14  24
ENDBRANCH   1  16
BRANCH  11  31
ATOM     31  C   UNL     1      -0.279  -5.402 -13.058  0.00  0.00    +0.165 C 
BRANCH  31  32
ATOM     32  C   UNL     1      -0.422  -6.902 -13.014  0.00  0.00    -0.027 A 
ATOM     33  C   UNL     1       0.508  -7.703 -13.649  0.00  0.00    +0.008 A 
ATOM     34  C   UNL     1       0.378  -9.079 -13.609  0.00  0.00    +0.038 A 
ATOM     35  C   UNL     1      -0.684  -9.653 -12.932  0.00  0.00    +0.123 A 
ATOM     36  C   UNL     1      -1.615  -8.850 -12.296  0.00  0.00    +0.038 A 
ATOM     37  C   UNL     1      -1.480  -7.475 -12.334  0.00  0.00    +0.008 A 
ATOM     38  F   UNL     1      -0.813 -10.998 -12.893  0.00  0.00    -0.205 F 
ENDBRANCH  31  32
ENDBRANCH  11  31
TORSDOF 6
