REMARK  Name = ZINC36313837
REMARK  19 active torsions:
REMARK  status: ('A' for Active; 'I' for Inactive)
REMARK    1  A    between atoms: C_1  and  C_2
REMARK    2  A    between atoms: C_2  and  C_3
REMARK    3  A    between atoms: C_3  and  C_4
REMARK    4  A    between atoms: C_4  and  C_5
REMARK    5  A    between atoms: C_5  and  C_7
REMARK    6  A    between atoms: C_5  and  O_36
REMARK    7  A    between atoms: C_7  and  N_8
REMARK    8  A    between atoms: N_8  and  C_9
REMARK    9  A    between atoms: N_8  and  C_13
REMARK   10  A    between atoms: C_9  and  C_10
REMARK   11  A    between atoms: C_10  and  O_11
REMARK   12  A    between atoms: O_11  and  C_12
REMARK   13  A    between atoms: C_13  and  C_14
REMARK   14  A    between atoms: C_15  and  C_33
REMARK   15  A    between atoms: N_17  and  C_27
REMARK   16  A    between atoms: C_18  and  O_19
REMARK   17  A    between atoms: O_19  and  C_20
REMARK   18  A    between atoms: C_33  and  C_34
REMARK   19  A    between atoms: C_33  and  C_35
REMARK                            x       y       z     vdW  Elec       q    Type
REMARK                         _______ _______ _______ _____ _____    ______ ____
ROOT
ATOM      1  C   UNL     1       3.628  -6.350  -5.200  0.00  0.00    +0.021 A 
ATOM      2  C   UNL     1       3.264  -6.227  -6.545  0.00  0.00    +0.071 A 
ATOM      3  N   UNL     1       4.355  -6.213  -7.269  0.00  0.00    -0.168 NA
ATOM      4  N   UNL     1       5.456  -6.326  -6.411  0.00  0.00    -0.200 N 
ATOM      5  C   UNL     1       4.985  -6.404  -5.137  0.00  0.00    +0.225 A 
ENDROOT
BRANCH   4   6
ATOM      6  C   UNL     1       6.804  -6.350  -6.796  0.00  0.00    +0.069 A 
ATOM      7  C   UNL     1       7.754  -5.671  -6.045  0.00  0.00    +0.028 A 
ATOM      8  C   UNL     1       9.081  -5.696  -6.426  0.00  0.00    +0.002 A 
ATOM      9  C   UNL     1       9.464  -6.396  -7.556  0.00  0.00    +0.000 A 
ATOM     10  C   UNL     1       8.520  -7.073  -8.306  0.00  0.00    +0.002 A 
ATOM     11  C   UNL     1       7.192  -7.057  -7.926  0.00  0.00    +0.028 A 
ENDBRANCH   4   6
BRANCH   2  12
ATOM     12  C   UNL     1       1.856  -6.128  -7.072  0.00  0.00    +0.034 C 
ATOM     13  C   UNL     1       1.684  -4.806  -7.823  0.00  0.00    +0.014 C 
ATOM     14  C   UNL     1       1.584  -7.295  -8.023  0.00  0.00    +0.014 C 
ENDBRANCH   2  12
BRANCH   1  15
ATOM     15  C   UNL     1       2.683  -6.405  -4.028  0.00  0.00    -0.036 C 
BRANCH  15  16
ATOM     16  N   UNL     1       2.426  -5.043  -3.540  0.00  0.00    +0.386 N 
ATOM     17  H   UNL     1       3.303  -4.591  -3.329  0.00  0.00    -0.081 HD
BRANCH  16  18
ATOM     18  C   UNL     1       1.602  -5.105  -2.326  0.00  0.00    -0.047 C 
BRANCH  18  19
ATOM     19  C   UNL     1       2.398  -5.771  -1.202  0.00  0.00    +0.098 C 
BRANCH  19  20
ATOM     20  O   UNL     1       3.577  -5.008  -0.936  0.00  0.00    -0.394 OA
ATOM     21  H   UNL     1       3.402  -4.123  -0.589  0.00  0.00    +0.210 HD
ENDBRANCH  19  20
BRANCH  19  22
ATOM     22  C   UNL     1       1.539  -5.839   0.061  0.00  0.00    +0.029 C 
BRANCH  22  23
ATOM     23  C   UNL     1       2.287  -6.615   1.147  0.00  0.00    +0.002 C 
BRANCH  23  25
ATOM     24  C   UNL     1       2.176  -7.459   3.496  0.00  0.00    +0.004 C 
ATOM     25  C   UNL     1       1.427  -6.683   2.410  0.00  0.00    -0.003 C 
ENDBRANCH  23  25
ENDBRANCH  22  23
ENDBRANCH  19  22
ENDBRANCH  18  19
ENDBRANCH  16  18
BRANCH  16  26
ATOM     26  C   UNL     1       1.718  -4.278  -4.575  0.00  0.00    -0.050 C 
BRANCH  26  27
ATOM     27  C   UNL     1       1.570  -2.824  -4.122  0.00  0.00    +0.141 C 
BRANCH  27  28
ATOM     28  O   UNL     1       2.863  -2.228  -4.005  0.00  0.00    -0.385 OA
ATOM     29  C   UNL     1       2.838  -0.862  -3.585  0.00  0.00    +0.193 C 
ENDBRANCH  27  28
ENDBRANCH  26  27
ENDBRANCH  16  26
ENDBRANCH  15  16
ENDBRANCH   1  15
BRANCH   5  30
ATOM     30  O   UNL     1       5.732  -6.519  -4.010  0.00  0.00    -0.435 OA
BRANCH  30  31
ATOM     31  C   UNL     1       6.119  -7.763  -3.625  0.00  0.00    +0.165 A 
ATOM     32  C   UNL     1       5.842  -8.858  -4.430  0.00  0.00    +0.049 A 
ATOM     33  C   UNL     1       6.237 -10.122  -4.037  0.00  0.00    +0.004 A 
ATOM     34  C   UNL     1       6.908 -10.298  -2.840  0.00  0.00    +0.003 A 
ATOM     35  C   UNL     1       7.186  -9.210  -2.034  0.00  0.00    +0.042 A 
ATOM     36  C   UNL     1       6.798  -7.941  -2.426  0.00  0.00    +0.165 A 
ATOM     37  F   UNL     1       7.075  -6.877  -1.641  0.00  0.00    -0.202 F 
ENDBRANCH  30  31
ENDBRANCH   5  30
TORSDOF 15
