REMARK  Name = ZINC21236821
REMARK  7 active torsions:
REMARK  status: ('A' for Active; 'I' for Inactive)
REMARK    1  A    between atoms: C_1  and  O_2
REMARK    2  A    between atoms: O_2  and  C_3
REMARK    3  A    between atoms: C_6  and  O_34
REMARK    4  A    between atoms: C_7  and  C_9
REMARK    5  A    between atoms: C_14  and  C_24
REMARK    6  A    between atoms: C_29  and  O_30
REMARK    7  A    between atoms: O_34  and  C_35
REMARK                            x       y       z     vdW  Elec       q    Type
REMARK                         _______ _______ _______ _____ _____    ______ ____
ROOT
ATOM      1  C   UNL     1      -0.073   1.280  -0.479  0.00  0.00    +0.036 C 
ATOM      2  C   UNL     1      -0.679   1.753   0.841  0.00  0.00    +0.060 C 
ATOM      3  C   UNL     1      -2.076   1.175   1.009  0.00  0.00    +0.017 C 
ATOM      4  C   UNL     1      -2.849   0.937  -0.064  0.00  0.00    +0.037 C 
ATOM      5  C   UNL     1      -4.249   0.371  -0.039  0.00  0.00    +0.139 C 
ATOM      6  N   UNL     1      -4.852   0.322   1.276  0.00  0.00    -0.331 N 
ATOM      7  C   UNL     1      -4.321  -0.488   2.276  0.00  0.00    +0.049 A 
ATOM      8  C   UNL     1      -5.027  -1.572   2.776  0.00  0.00    +0.025 A 
ATOM      9  C   UNL     1      -4.443  -2.382   3.734  0.00  0.00    +0.002 A 
ATOM     10  C   UNL     1      -3.164  -2.119   4.189  0.00  0.00    +0.002 A 
ATOM     11  C   UNL     1      -2.462  -1.027   3.705  0.00  0.00    +0.025 A 
ATOM     12  C   UNL     1      -3.056  -0.203   2.765  0.00  0.00    +0.052 A 
ATOM     13  N   UNL     1      -2.444   0.956   2.297  0.00  0.00    -0.316 N 
ATOM     14  C   UNL     1      -2.368   1.213  -1.366  0.00  0.00    +0.163 C 
ATOM     15  O   UNL     1      -3.096   1.004  -2.317  0.00  0.00    -0.292 OA
ATOM     16  C   UNL     1      -0.992   1.754  -1.612  0.00  0.00    +0.088 C 
ATOM     17  H   UNL     1      -5.741   0.931   1.496  0.00  0.00    +0.147 HD
ATOM     18  H   UNL     1      -2.264   1.727   3.060  0.00  0.00    +0.152 HD
ENDROOT
BRANCH   1  23
ATOM     19  C   UNL     1       2.726   3.793  -0.835  0.00  0.00    +0.121 A 
ATOM     20  C   UNL     1       3.829   2.962  -0.974  0.00  0.00    +0.049 A 
ATOM     21  C   UNL     1       3.667   1.591  -0.952  0.00  0.00    +0.049 A 
ATOM     22  C   UNL     1       2.403   1.044  -0.792  0.00  0.00    +0.124 A 
ATOM     23  C   UNL     1       1.300   1.874  -0.653  0.00  0.00    +0.002 A 
ATOM     24  C   UNL     1       1.462   3.246  -0.679  0.00  0.00    +0.053 A 
BRANCH  19  26
ATOM     25  C   UNL     1       4.216   5.637  -1.024  0.00  0.00    +0.277 C 
ATOM     26  O   UNL     1       2.885   5.143  -0.855  0.00  0.00    -0.495 OA
ENDBRANCH  19  26
BRANCH  22  27
ATOM     27  O   UNL     1       2.244  -0.306  -0.771  0.00  0.00    -0.495 OA
ATOM     28  C   UNL     1       3.422  -1.101  -0.920  0.00  0.00    +0.277 C 
ENDBRANCH  22  27
ENDBRANCH   1  23
BRANCH   5  29
ATOM     29  C   UNL     1      -4.210  -1.028  -0.599  0.00  0.00    +0.019 A 
ATOM     30  C   UNL     1      -3.007  -1.701  -0.693  0.00  0.00    +0.009 A 
ATOM     31  C   UNL     1      -2.971  -2.986  -1.202  0.00  0.00    +0.001 A 
ATOM     32  C   UNL     1      -4.136  -3.596  -1.628  0.00  0.00    +0.004 A 
ATOM     33  C   UNL     1      -5.340  -2.926  -1.540  0.00  0.00    +0.046 A 
ATOM     34  C   UNL     1      -5.380  -1.638  -1.025  0.00  0.00    +0.122 A 
BRANCH  34  35
ATOM     35  O   UNL     1      -6.564  -0.976  -0.938  0.00  0.00    -0.506 OA
ATOM     36  H   UNL     1      -7.491  -1.461  -1.277  0.00  0.00    +0.292 HD
ENDBRANCH  34  35
ENDBRANCH   5  29
TORSDOF 5
