REMARK  Name = ZINC64707688
REMARK  9 active torsions:
REMARK  status: ('A' for Active; 'I' for Inactive)
REMARK    1  A    between atoms: C_1  and  N_2
REMARK    2  A    between atoms: N_2  and  S_3
REMARK    3  A    between atoms: S_3  and  C_6
REMARK    4  A    between atoms: C_9  and  N_12
REMARK    5  A    between atoms: C_13  and  C_15
REMARK    6  A    between atoms: C_15  and  C_17
REMARK    7  A    between atoms: C_15  and  N_27
REMARK    8  A    between atoms: C_17  and  C_18
REMARK    9  A    between atoms: C_28  and  C_30
REMARK                            x       y       z     vdW  Elec       q    Type
REMARK                         _______ _______ _______ _____ _____    ______ ____
ROOT
ATOM      1  C   UNL     1      -4.531  -0.001  -7.517  0.00  0.00    +0.163 C 
ENDROOT
BRANCH   1   3
ATOM      2  N   UNL     1      -4.200   0.335  -5.089  0.00  0.00    -0.284 N 
ATOM      3  C   UNL     1      -3.909  -0.375  -6.196  0.00  0.00    +0.238 C 
ATOM      4  O   UNL     1      -3.145  -1.315  -6.130  0.00  0.00    -0.273 OA
ATOM      5  H   UNL     1      -4.861   1.044  -5.127  0.00  0.00    +0.155 HD
BRANCH   2   9
ATOM      6  C   UNL     1      -2.261  -0.513  -1.500  0.00  0.00    +0.105 A 
ATOM      7  C   UNL     1      -2.569  -1.537  -2.377  0.00  0.00    +0.030 A 
ATOM      8  C   UNL     1      -3.212  -1.259  -3.568  0.00  0.00    +0.025 A 
ATOM      9  C   UNL     1      -3.549   0.050  -3.883  0.00  0.00    +0.034 A 
ATOM     10  C   UNL     1      -3.239   1.076  -3.000  0.00  0.00    +0.025 A 
ATOM     11  C   UNL     1      -2.601   0.791  -1.809  0.00  0.00    +0.030 A 
BRANCH   6  12
ATOM     12  S   UNL     1      -1.441  -0.872   0.018  0.00  0.00    +0.058 S 
ATOM     13  O   UNL     1      -0.784   0.323   0.416  0.00  0.00    -0.153 OA
ATOM     14  O   UNL     1      -0.746  -2.096  -0.176  0.00  0.00    -0.153 OA
BRANCH  12  16
ATOM     15  C   UNL     1      -3.493  -2.331   1.006  0.00  0.00    +0.127 C 
ATOM     16  N   UNL     1      -2.614  -1.168   1.149  0.00  0.00    -0.193 NA
ATOM     17  H   UNL     1      -2.718  -0.571   1.907  0.00  0.00    +0.148 HD
ENDBRANCH  12  16
ENDBRANCH   6  12
ENDBRANCH   2   9
ENDBRANCH   1   3
BRANCH   1  18
ATOM     18  N   UNL     1      -4.462  -1.145  -8.430  0.00  0.00    -0.299 N 
ATOM     19  C   UNL     1      -3.266  -1.665  -8.770  0.00  0.00    +0.251 C 
ATOM     20  O   UNL     1      -2.243  -1.185  -8.318  0.00  0.00    -0.270 OA
ATOM     21  H   UNL     1      -5.277  -1.527  -8.791  0.00  0.00    +0.150 HD
BRANCH  19  22
ATOM     22  C   UNL     1      -3.197  -2.809  -9.684  0.00  0.00    +0.074 A 
ATOM     23  C   UNL     1      -2.082  -3.489 -10.150  0.00  0.00    +0.021 A 
ATOM     24  C   UNL     1      -2.336  -4.533 -11.007  0.00  0.00    +0.008 A 
ATOM     25  C   UNL     1      -3.620  -4.823 -11.332  0.00  0.00    +0.046 A 
ATOM     26  S   UNL     1      -4.525  -3.693 -10.480  0.00  0.00    -0.092 S 
ENDBRANCH  19  22
ENDBRANCH   1  18
BRANCH   1  27
ATOM     27  C   UNL     1      -3.772   1.181  -8.122  0.00  0.00    +0.065 C 
BRANCH  27  28
ATOM     28  C   UNL     1      -4.467   1.634  -9.380  0.00  0.00    -0.039 C 
ATOM     29  C   UNL     1      -5.375   2.630  -9.494  0.00  0.00    -0.001 A 
ATOM     30  C   UNL     1      -5.965   3.555  -8.519  0.00  0.00    +0.010 A 
ATOM     31  C   UNL     1      -6.870   4.465  -8.942  0.00  0.00    +0.001 A 
ATOM     32  C   UNL     1      -7.259   4.548 -10.286  0.00  0.00    +0.002 A 
ATOM     33  C   UNL     1      -6.761   3.734 -11.241  0.00  0.00    +0.026 A 
ATOM     34  C   UNL     1      -5.802   2.739 -10.908  0.00  0.00    +0.043 A 
ATOM     35  N   UNL     1      -5.182   1.844 -11.639  0.00  0.00    -0.380 N 
ATOM     36  C   UNL     1      -4.287   1.070 -10.772  0.00  0.00    +0.144 C 
ATOM     37  H   UNL     1      -5.294   1.718 -12.594  0.00  0.00    +0.160 HD
ENDBRANCH  27  28
ENDBRANCH   1  27
TORSDOF 8
