REMARK  Name = ZINC36066232
REMARK  14 active torsions:
REMARK  status: ('A' for Active; 'I' for Inactive)
REMARK    1  A    between atoms: C_1  and  C_2
REMARK    2  A    between atoms: C_7  and  N_12
REMARK    3  A    between atoms: C_9  and  C_11
REMARK    4  A    between atoms: C_13  and  C_15
REMARK    5  A    between atoms: C_23  and  C_35
REMARK    6  A    between atoms: N_29  and  C_30
REMARK    7  A    between atoms: C_30  and  C_31
REMARK    8  A    between atoms: C_31  and  C_32
REMARK    9  A    between atoms: C_32  and  O_33
REMARK   10  A    between atoms: O_33  and  C_34
REMARK   11  A    between atoms: N_37  and  C_38
REMARK   12  A    between atoms: C_41  and  C_44
REMARK   13  A    between atoms: C_44  and  C_45
REMARK   14  A    between atoms: C_44  and  C_46
REMARK                            x       y       z     vdW  Elec       q    Type
REMARK                         _______ _______ _______ _____ _____    ______ ____
ROOT
ATOM      1  C   UNL     1      -1.764  -3.915   2.265  0.00  0.00    +0.198 C 
ATOM      2  C   UNL     1      -2.736  -3.646   3.371  0.00  0.00    +0.127 C 
ATOM      3  C   UNL     1      -2.203  -4.045   4.735  0.00  0.00    +0.009 C 
ATOM      4  C   UNL     1      -3.160  -3.741   5.599  0.00  0.00    +0.004 C 
ATOM      5  C   UNL     1      -4.314  -3.207   4.741  0.00  0.00    +0.155 C 
ATOM      6  O   UNL     1      -3.572  -2.543   3.635  0.00  0.00    -0.358 OA
ATOM      7  C   UNL     1      -4.857  -4.522   4.060  0.00  0.00    +0.123 C 
ATOM      8  C   UNL     1      -3.838  -4.693   2.934  0.00  0.00    +0.128 C 
ATOM      9  C   UNL     1      -2.991  -5.873   2.679  0.00  0.00    +0.223 C 
ATOM     10  O   UNL     1      -3.292  -7.032   2.871  0.00  0.00    -0.275 OA
ATOM     11  N   UNL     1      -1.797  -5.409   2.181  0.00  0.00    -0.286 N 
ENDROOT
BRANCH   1  13
ATOM     12  N   UNL     1       0.018  -2.200   2.241  0.00  0.00    -0.311 N 
ATOM     13  C   UNL     1      -0.386  -3.426   2.628  0.00  0.00    +0.237 C 
ATOM     14  O   UNL     1       0.360  -4.136   3.268  0.00  0.00    -0.274 OA
ATOM     15  H   UNL     1      -0.579  -1.632   1.728  0.00  0.00    +0.149 HD
BRANCH  12  21
ATOM     16  C   UNL     1       0.991   1.870   1.262  0.00  0.00    +0.008 C 
ATOM     17  C   UNL     1       0.983   0.340   1.237  0.00  0.00    -0.009 C 
ATOM     18  C   UNL     1       1.990  -0.159   0.199  0.00  0.00    +0.003 C 
ATOM     19  C   UNL     1       1.982  -1.688   0.174  0.00  0.00    +0.002 C 
ATOM     20  C   UNL     1       2.365  -2.223   1.556  0.00  0.00    +0.022 C 
ATOM     21  C   UNL     1       1.358  -1.724   2.593  0.00  0.00    +0.076 C 
ATOM     22  C   UNL     1       1.366  -0.195   2.618  0.00  0.00    +0.009 C 
ATOM     23  C   UNL     1       0.358   0.304   3.656  0.00  0.00    +0.009 C 
ENDBRANCH  12  21
ENDBRANCH   1  13
BRANCH   7  24
ATOM     24  C   UNL     1      -4.828  -5.682   5.022  0.00  0.00    +0.224 C 
ATOM     25  O   UNL     1      -4.151  -6.657   4.776  0.00  0.00    -0.275 OA
ATOM     26  N   UNL     1      -5.555  -5.635   6.156  0.00  0.00    -0.285 N 
ATOM     27  H   UNL     1      -6.037  -4.826   6.390  0.00  0.00    +0.155 HD
BRANCH  26  28
ATOM     28  C   UNL     1      -5.615  -6.753   6.995  0.00  0.00    +0.033 A 
ATOM     29  C   UNL     1      -5.724  -6.585   8.370  0.00  0.00    +0.023 A 
ATOM     30  C   UNL     1      -5.783  -7.691   9.196  0.00  0.00    +0.006 A 
ATOM     31  C   UNL     1      -5.732  -8.963   8.656  0.00  0.00    -0.045 A 
ATOM     32  C   UNL     1      -5.623  -9.133   7.288  0.00  0.00    +0.006 A 
ATOM     33  C   UNL     1      -5.570  -8.031   6.456  0.00  0.00    +0.023 A 
BRANCH  31  34
ATOM     34  C   UNL     1      -5.796 -10.167   9.560  0.00  0.00    +0.013 C 
ATOM     35  C   UNL     1      -7.015 -11.016   9.194  0.00  0.00    +0.012 C 
ATOM     36  C   UNL     1      -4.524 -11.000   9.390  0.00  0.00    +0.012 C 
ENDBRANCH  31  34
ENDBRANCH  26  28
ENDBRANCH   7  24
BRANCH  11  37
ATOM     37  C   UNL     1      -0.721  -6.248   1.649  0.00  0.00    +0.111 C 
BRANCH  37  38
ATOM     38  C   UNL     1      -0.998  -6.562   0.178  0.00  0.00    +0.047 C 
BRANCH  38  39
ATOM     39  C   UNL     1       0.086  -7.501  -0.356  0.00  0.00    +0.161 C 
BRANCH  39  40
ATOM     40  O   UNL     1      -0.173  -7.795  -1.731  0.00  0.00    -0.383 OA
ATOM     41  C   UNL     1       0.786  -8.669  -2.329  0.00  0.00    +0.193 C 
ENDBRANCH  39  40
ENDBRANCH  38  39
ENDBRANCH  37  38
ENDBRANCH  11  37
TORSDOF 9
