REMARK  Name = ZINC05027733
REMARK  10 active torsions:
REMARK  status: ('A' for Active; 'I' for Inactive)
REMARK    1  A    between atoms: C_1  and  C_2
REMARK    2  A    between atoms: C_3  and  C_24
REMARK    3  A    between atoms: C_4  and  C_10
REMARK    4  A    between atoms: C_13  and  O_18
REMARK    5  A    between atoms: C_14  and  O_16
REMARK    6  A    between atoms: O_16  and  C_17
REMARK    7  A    between atoms: O_18  and  C_19
REMARK    8  A    between atoms: C_19  and  C_21
REMARK    9  A    between atoms: C_19  and  C_22
REMARK   10  A    between atoms: C_24  and  C_26
REMARK                            x       y       z     vdW  Elec       q    Type
REMARK                         _______ _______ _______ _____ _____    ______ ____
ROOT
ATOM      1  C   UNL     1       3.084   0.262   3.341  0.00  0.00    -0.019 A 
ATOM      2  C   UNL     1       2.873   0.403   4.701  0.00  0.00    +0.009 A 
ATOM      3  C   UNL     1       1.692   0.947   5.167  0.00  0.00    +0.050 A 
ATOM      4  C   UNL     1       0.715   1.354   4.272  0.00  0.00    +0.163 A 
ATOM      5  C   UNL     1       0.927   1.212   2.904  0.00  0.00    +0.162 A 
ATOM      6  C   UNL     1       2.112   0.660   2.443  0.00  0.00    +0.055 A 
ENDROOT
BRANCH   1  10
ATOM      7  C   UNL     1       7.649   1.359   3.982  0.00  0.00    +0.061 C 
ATOM      8  C   UNL     1       6.538   0.361   3.776  0.00  0.00    +0.015 C 
ATOM      9  C   UNL     1       5.467   0.701   3.017  0.00  0.00    +0.036 C 
ATOM     10  C   UNL     1       4.374  -0.333   2.838  0.00  0.00    +0.138 C 
ATOM     11  N   UNL     1       4.568  -1.630   3.509  0.00  0.00    -0.315 N 
ATOM     12  C   UNL     1       5.690  -1.818   4.231  0.00  0.00    +0.135 C 
ATOM     13  S   UNL     1       5.928  -3.321   5.015  0.00  0.00    -0.019 S 
ATOM     14  N   UNL     1       6.625  -0.868   4.356  0.00  0.00    -0.300 N 
ATOM     15  H   UNL     1       3.904  -2.333   3.432  0.00  0.00    +0.149 HD
ATOM     16  H   UNL     1       7.410  -1.067   4.891  0.00  0.00    +0.154 HD
BRANCH   9  17
ATOM     17  C   UNL     1       5.374   1.968   2.418  0.00  0.00    +0.160 C 
ATOM     18  O   UNL     1       5.301   2.964   3.111  0.00  0.00    -0.293 OA
ATOM     19  C   UNL     1       5.364   2.092   0.916  0.00  0.00    +0.091 C 
ENDBRANCH   9  17
ENDBRANCH   1  10
BRANCH   5  20
ATOM     20  O   UNL     1      -0.028   1.610   2.022  0.00  0.00    -0.491 OA
ATOM     21  C   UNL     1       0.258   1.434   0.633  0.00  0.00    +0.277 C 
ENDBRANCH   5  20
BRANCH   4  22
ATOM     22  O   UNL     1      -0.448   1.890   4.729  0.00  0.00    -0.474 OA
BRANCH  22  23
ATOM     23  C   UNL     1      -0.641   1.909   6.145  0.00  0.00    +0.283 C 
ATOM     24  C   UNL     1       0.041   3.144   6.737  0.00  0.00    +0.064 C 
BRANCH  23  25
ATOM     25  C   UNL     1      -2.116   1.955   6.450  0.00  0.00    +0.395 C 
ATOM     26  O   UNL     1      -2.920   1.970   5.548  0.00  0.00    -0.242 OA
ATOM     27  O   UNL     1      -2.538   1.979   7.724  0.00  0.00    -0.242 OA
ENDBRANCH  23  25
ENDBRANCH  22  23
ENDBRANCH   4  22
TORSDOF 6
