REMARK  Name = ZINC37418207
REMARK  6 active torsions:
REMARK  status: ('A' for Active; 'I' for Inactive)
REMARK    1  A    between atoms: C_6  and  S_7
REMARK    2  A    between atoms: S_7  and  N_10
REMARK    3  A    between atoms: N_10  and  C_11
REMARK    4  A    between atoms: C_11  and  C_13
REMARK    5  A    between atoms: C_11  and  C_20
REMARK    6  A    between atoms: C_13  and  C_14
REMARK                            x       y       z     vdW  Elec       q    Type
REMARK                         _______ _______ _______ _____ _____    ______ ____
ROOT
ATOM      1  N   UNL     1      -1.948  -1.148  -1.567  0.00  0.00    -0.176 NA
ATOM      2  H   UNL     1      -2.756  -0.738  -1.915  0.00  0.00    +0.149 HD
ENDROOT
BRANCH   1   3
ATOM      3  S   UNL     1      -1.512  -0.906   0.012  0.00  0.00    +0.059 S 
ATOM      4  O   UNL     1      -1.218  -2.186   0.553  0.00  0.00    -0.153 OA
ATOM      5  O   UNL     1      -2.492  -0.046   0.578  0.00  0.00    -0.153 OA
BRANCH   3  11
ATOM      6  C   UNL     1      -0.017   1.378   0.010  0.00  0.00    +0.029 A 
ATOM      7  C   UNL     1       1.171   2.086   0.002  0.00  0.00    +0.016 A 
ATOM      8  C   UNL     1       2.378   1.411  -0.013  0.00  0.00    +0.013 A 
ATOM      9  C   UNL     1       2.396   0.028  -0.021  0.00  0.00    +0.016 A 
ATOM     10  C   UNL     1       1.208  -0.679  -0.013  0.00  0.00    +0.029 A 
ATOM     11  C   UNL     1       0.002  -0.004   0.002  0.00  0.00    +0.105 A 
ATOM     12  I   UNL     1       4.178   2.482  -0.025  0.00  0.00    -0.044 I 
ENDBRANCH   3  11
ENDBRANCH   1   3
BRANCH   1  13
ATOM     13  C   UNL     1      -1.115  -1.980  -2.438  0.00  0.00    +0.195 C 
BRANCH  13  14
ATOM     14  C   UNL     1      -0.164  -1.102  -3.211  0.00  0.00    +0.375 C 
ATOM     15  O   UNL     1      -0.181   0.106  -3.049  0.00  0.00    -0.245 OA
ATOM     16  O   UNL     1       0.623  -1.601  -3.998  0.00  0.00    -0.245 OA
ENDBRANCH  13  14
BRANCH  13  17
ATOM     17  C   UNL     1      -2.006  -2.749  -3.414  0.00  0.00    +0.086 C 
BRANCH  17  18
ATOM     18  C   UNL     1      -2.872  -3.716  -2.648  0.00  0.00    +0.037 A 
ATOM     19  C   UNL     1      -2.532  -4.958  -2.252  0.00  0.00    +0.133 A 
ATOM     20  N   UNL     1      -3.578  -5.487  -1.601  0.00  0.00    -0.244 NA
ATOM     21  H   UNL     1      -4.675  -2.693  -2.346  0.00  0.00    +0.166 HD
ATOM     22  C   UNL     1      -4.554  -4.621  -1.579  0.00  0.00    +0.196 A 
ATOM     23  N   UNL     1      -4.153  -3.500  -2.216  0.00  0.00    -0.348 N 
ENDBRANCH  17  18
ENDBRANCH  13  17
ENDBRANCH   1  13
TORSDOF 6
