REMARK  Name = ZINC36587165
REMARK  16 active torsions:
REMARK  status: ('A' for Active; 'I' for Inactive)
REMARK    1  A    between atoms: C_1  and  C_2
REMARK    2  A    between atoms: C_2  and  C_3
REMARK    3  A    between atoms: C_2  and  C_4
REMARK    4  A    between atoms: C_2  and  N_5
REMARK    5  A    between atoms: C_6  and  C_8
REMARK    6  A    between atoms: C_8  and  C_10
REMARK    7  A    between atoms: C_8  and  N_19
REMARK    8  A    between atoms: C_11  and  O_18
REMARK    9  A    between atoms: C_13  and  O_17
REMARK   10  A    between atoms: C_15  and  O_16
REMARK   11  A    between atoms: N_19  and  C_31
REMARK   12  A    between atoms: C_20  and  C_22
REMARK   13  A    between atoms: C_22  and  C_23
REMARK   14  A    between atoms: C_31  and  C_32
REMARK   15  A    between atoms: C_31  and  C_33
REMARK   16  A    between atoms: C_31  and  C_34
REMARK                            x       y       z     vdW  Elec       q    Type
REMARK                         _______ _______ _______ _____ _____    ______ ____
ROOT
ATOM      1  C   UNL     1       2.514  -1.111  -0.747  0.00  0.00    +0.200 C 
ENDROOT
BRANCH   1   2
ATOM      2  C   UNL     1       1.140  -0.688  -1.199  0.00  0.00    +0.065 A 
ATOM      3  C   UNL     1       0.906   0.628  -1.567  0.00  0.00    +0.129 A 
ATOM      4  C   UNL     1      -0.359   1.017  -1.983  0.00  0.00    +0.091 A 
ATOM      5  C   UNL     1      -1.389   0.090  -2.031  0.00  0.00    +0.124 A 
ATOM      6  C   UNL     1      -1.154  -1.226  -1.663  0.00  0.00    +0.091 A 
ATOM      7  C   UNL     1       0.111  -1.617  -1.252  0.00  0.00    +0.129 A 
BRANCH   7   8
ATOM      8  O   UNL     1       0.342  -2.908  -0.896  0.00  0.00    -0.506 OA
ATOM      9  H   UNL     1       0.194  -3.090   0.042  0.00  0.00    +0.292 HD
ENDBRANCH   7   8
BRANCH   5  10
ATOM     10  O   UNL     1      -2.628   0.471  -2.437  0.00  0.00    -0.507 OA
ATOM     11  H   UNL     1      -2.773   0.388  -3.390  0.00  0.00    +0.292 HD
ENDBRANCH   5  10
BRANCH   3  12
ATOM     12  O   UNL     1       1.915   1.537  -1.520  0.00  0.00    -0.506 OA
ATOM     13  H   UNL     1       2.463   1.557  -2.316  0.00  0.00    +0.292 HD
ENDBRANCH   3  12
ENDBRANCH   1   2
BRANCH   1  15
ATOM     14  N   UNL     1       1.687  -0.852   1.570  0.00  0.00    -0.309 N 
ATOM     15  C   UNL     1       2.707  -0.729   0.698  0.00  0.00    +0.239 C 
ATOM     16  O   UNL     1       3.781  -0.311   1.076  0.00  0.00    -0.273 OA
ATOM     17  H   UNL     1       0.828  -1.186   1.267  0.00  0.00    +0.149 HD
BRANCH  14  19
ATOM     18  C   UNL     1       2.262   0.997   3.064  0.00  0.00    +0.031 C 
ATOM     19  C   UNL     1       1.875  -0.480   2.974  0.00  0.00    +0.026 C 
ATOM     20  C   UNL     1       2.987  -1.336   3.584  0.00  0.00    +0.031 C 
ATOM     21  C   UNL     1       0.573  -0.714   3.743  0.00  0.00    +0.031 C 
ENDBRANCH  14  19
ENDBRANCH   1  15
BRANCH   1  22
ATOM     22  N   UNL     1       3.526  -0.442  -1.569  0.00  0.00    -0.280 N 
ATOM     23  C   UNL     1       3.555  -0.645  -2.901  0.00  0.00    +0.221 C 
ATOM     24  O   UNL     1       2.560  -1.033  -3.476  0.00  0.00    -0.275 OA
BRANCH  22  25
ATOM     25  C   UNL     1       4.506   0.449  -0.942  0.00  0.00    +0.030 C 
ATOM     26  C   UNL     1       5.520  -0.382  -0.154  0.00  0.00    +0.031 C 
ATOM     27  C   UNL     1       5.234   1.248  -2.025  0.00  0.00    +0.031 C 
ATOM     28  C   UNL     1       3.788   1.411   0.006  0.00  0.00    +0.031 C 
ENDBRANCH  22  25
BRANCH  23  29
ATOM     29  C   UNL     1       4.823  -0.392  -3.674  0.00  0.00    +0.132 C 
BRANCH  29  30
ATOM     30  C   UNL     1       4.752  -1.102  -5.001  0.00  0.00    -0.019 A 
ATOM     31  C   UNL     1       5.304  -2.362  -5.141  0.00  0.00    +0.005 A 
ATOM     32  C   UNL     1       5.239  -3.015  -6.358  0.00  0.00    +0.002 A 
ATOM     33  C   UNL     1       4.624  -2.408  -7.437  0.00  0.00    +0.021 A 
ATOM     34  C   UNL     1       4.072  -1.147  -7.299  0.00  0.00    +0.060 A 
ATOM     35  C   UNL     1       4.131  -0.496  -6.078  0.00  0.00    +0.063 A 
ATOM     36 CL   UNL     1       3.432   1.083  -5.901  0.00  0.00    -0.082 Cl
ATOM     37 CL   UNL     1       3.299  -0.385  -8.654  0.00  0.00    -0.082 Cl
ENDBRANCH  29  30
ENDBRANCH  23  29
ENDBRANCH   1  22
TORSDOF 10
