REMARK  Name = ZINC59056885
REMARK  9 active torsions:
REMARK  status: ('A' for Active; 'I' for Inactive)
REMARK    1  A    between atoms: C_1  and  C_2
REMARK    2  A    between atoms: N_4  and  C_5
REMARK    3  A    between atoms: N_4  and  C_23
REMARK    4  A    between atoms: C_5  and  C_6
REMARK    5  A    between atoms: C_9  and  O_14
REMARK    6  A    between atoms: C_10  and  O_12
REMARK    7  A    between atoms: O_12  and  C_13
REMARK    8  A    between atoms: O_14  and  C_15
REMARK    9  A    between atoms: C_15  and  C_16
REMARK                            x       y       z     vdW  Elec       q    Type
REMARK                         _______ _______ _______ _____ _____    ______ ____
ROOT
ATOM      1  C   UNL     1      -1.094  -2.110   0.482  0.00  0.00    +0.148 C 
ENDROOT
BRANCH   1   2
ATOM      2  C   UNL     1      -0.855  -2.232   1.965  0.00  0.00    -0.026 A 
ATOM      3  C   UNL     1       0.437  -2.285   2.454  0.00  0.00    +0.009 A 
ATOM      4  C   UNL     1       0.661  -2.396   3.813  0.00  0.00    +0.050 A 
ATOM      5  C   UNL     1      -0.411  -2.455   4.690  0.00  0.00    +0.162 A 
ATOM      6  C   UNL     1      -1.711  -2.401   4.198  0.00  0.00    +0.162 A 
ATOM      7  C   UNL     1      -1.929  -2.285   2.834  0.00  0.00    +0.054 A 
BRANCH   6   8
ATOM      8  O   UNL     1      -2.767  -2.459   5.054  0.00  0.00    -0.491 OA
ATOM      9  C   UNL     1      -4.073  -2.399   4.478  0.00  0.00    +0.277 C 
ENDBRANCH   6   8
BRANCH   5  10
ATOM     10  O   UNL     1      -0.192  -2.565   6.027  0.00  0.00    -0.484 OA
BRANCH  10  11
ATOM     11  C   UNL     1       1.169  -2.615   6.460  0.00  0.00    +0.266 C 
BRANCH  11  12
ATOM     12  C   UNL     1       1.214  -2.736   7.962  0.00  0.00    +0.008 A 
ATOM     13  C   UNL     1       0.039  -2.788   8.687  0.00  0.00    +0.008 A 
ATOM     14  C   UNL     1       0.080  -2.899  10.064  0.00  0.00    +0.000 A 
ATOM     15  C   UNL     1       1.298  -2.959  10.717  0.00  0.00    +0.001 A 
ATOM     16  C   UNL     1       2.474  -2.908   9.993  0.00  0.00    +0.020 A 
ATOM     17  C   UNL     1       2.433  -2.802   8.614  0.00  0.00    +0.047 A 
ATOM     18 CL   UNL     1       3.909  -2.744   7.703  0.00  0.00    -0.083 Cl
ENDBRANCH  11  12
ENDBRANCH  10  11
ENDBRANCH   5  10
ENDBRANCH   1   2
BRANCH   1  22
ATOM     19  C   UNL     1      -0.061   1.437  -0.513  0.00  0.00    +0.109 C 
ATOM     20  C   UNL     1      -0.024  -0.045  -0.245  0.00  0.00    +0.217 C 
ATOM     21  O   UNL     1       1.019  -0.655  -0.351  0.00  0.00    -0.276 OA
ATOM     22  N   UNL     1      -1.150  -0.694   0.111  0.00  0.00    -0.267 N 
BRANCH  22  23
ATOM     23  C   UNL     1      -2.375  -0.014   0.127  0.00  0.00    +0.039 A 
ATOM     24  C   UNL     1      -3.369  -0.354  -0.785  0.00  0.00    +0.025 A 
ATOM     25  C   UNL     1      -4.577   0.312  -0.775  0.00  0.00    +0.029 A 
ATOM     26  C   UNL     1      -4.803   1.323   0.147  0.00  0.00    +0.067 A 
ATOM     27  C   UNL     1      -3.807   1.666   1.064  0.00  0.00    +0.069 A 
ATOM     28  C   UNL     1      -2.596   0.992   1.055  0.00  0.00    +0.051 A 
ATOM     29  N   UNL     1      -4.319   2.698   1.847  0.00  0.00    -0.306 N 
ATOM     30  H   UNL     1      -3.854   3.144   2.572  0.00  0.00    +0.170 HD
ATOM     31  C   UNL     1      -5.569   2.971   1.427  0.00  0.00    +0.325 A 
ATOM     32  O   UNL     1      -6.297   3.823   1.901  0.00  0.00    -0.247 OA
ATOM     33  N   UNL     1      -5.890   2.159   0.403  0.00  0.00    -0.306 N 
ATOM     34  H   UNL     1      -6.734   2.155  -0.076  0.00  0.00    +0.170 HD
ENDBRANCH  22  23
ENDBRANCH   1  22
TORSDOF 7
