REMARK  Name = ZINC39667185
REMARK  8 active torsions:
REMARK  status: ('A' for Active; 'I' for Inactive)
REMARK    1  A    between atoms: C_1  and  C_2
REMARK    2  A    between atoms: C_5  and  C_9
REMARK    3  A    between atoms: C_6  and  C_8
REMARK    4  A    between atoms: C_9  and  C_10
REMARK    5  A    between atoms: C_10  and  N_11
REMARK    6  A    between atoms: C_12  and  C_14
REMARK    7  A    between atoms: C_25  and  C_27
REMARK    8  A    between atoms: C_28  and  C_32
REMARK                            x       y       z     vdW  Elec       q    Type
REMARK                         _______ _______ _______ _____ _____    ______ ____
ROOT
ATOM      1  C   UNL     1      -2.476  -8.455   0.199  0.00  0.00    +0.100 C 
ATOM      2  C   UNL     1      -1.599  -9.004   1.346  0.00  0.00    +0.121 C 
ATOM      3  N   UNL     1      -2.548  -9.259   2.454  0.00  0.00    -0.296 N 
ATOM      4  C   UNL     1      -3.752  -9.811   1.789  0.00  0.00    +0.115 C 
ATOM      5  C   UNL     1      -3.888  -8.990   0.491  0.00  0.00    -0.004 C 
ATOM      6  C   UNL     1      -4.362  -9.882  -0.652  0.00  0.00    -0.010 C 
ATOM      7  C   UNL     1      -5.790 -10.355  -0.366  0.00  0.00    -0.082 C 
ATOM      8  N   UNL     1      -6.674  -9.191  -0.229  0.00  0.00    +0.379 N 
ATOM      9  C   UNL     1      -6.267  -8.387   0.930  0.00  0.00    -0.082 C 
ATOM     10  C   UNL     1      -4.859  -7.832   0.699  0.00  0.00    -0.010 C 
ATOM     11  C   UNL     1      -2.360  -9.040   3.771  0.00  0.00    +0.254 C 
ATOM     12  O   UNL     1      -1.348  -8.484   4.156  0.00  0.00    -0.269 OA
ATOM     13  H   UNL     1      -6.619  -8.627  -1.064  0.00  0.00    -0.086 HD
ATOM     14  H   UNL     1      -7.625  -9.505  -0.101  0.00  0.00    -0.086 HD
ENDROOT
BRANCH  11  15
ATOM     15  C   UNL     1      -3.373  -9.471   4.738  0.00  0.00    +0.077 A 
ATOM     16  C   UNL     1      -3.425  -9.251   6.106  0.00  0.00    -0.031 A 
ATOM     17  C   UNL     1      -4.512  -9.785   6.756  0.00  0.00    +0.011 A 
ATOM     18  C   UNL     1      -5.436 -10.471   6.040  0.00  0.00    +0.046 A 
ATOM     19  S   UNL     1      -4.864 -10.408   4.462  0.00  0.00    -0.092 S 
ATOM     20  C   UNL     1      -2.357  -8.476   6.835  0.00  0.00    +0.045 C 
ENDBRANCH  11  15
BRANCH   1  22
ATOM     21  N   UNL     1      -2.613  -6.264  -0.942  0.00  0.00    -0.315 N 
ATOM     22  C   UNL     1      -2.473  -6.948   0.211  0.00  0.00    +0.218 C 
ATOM     23  O   UNL     1      -2.345  -6.350   1.258  0.00  0.00    -0.275 OA
ATOM     24  H   UNL     1      -2.715  -6.742  -1.780  0.00  0.00    +0.149 HD
BRANCH  21  25
ATOM     25  C   UNL     1      -2.610  -4.799  -0.930  0.00  0.00    +0.109 C 
BRANCH  25  26
ATOM     26  C   UNL     1      -2.783  -4.277  -2.358  0.00  0.00    +0.054 C 
BRANCH  26  31
ATOM     27  C   UNL     1      -2.771   1.501  -2.308  0.00  0.00    +0.044 C 
ATOM     28  C   UNL     1      -2.774  -0.006  -2.321  0.00  0.00    -0.050 A 
ATOM     29  C   UNL     1      -3.972  -0.695  -2.288  0.00  0.00    +0.003 A 
ATOM     30  C   UNL     1      -3.975  -2.077  -2.300  0.00  0.00    +0.004 A 
ATOM     31  C   UNL     1      -2.780  -2.770  -2.346  0.00  0.00    -0.043 A 
ATOM     32  C   UNL     1      -1.582  -2.082  -2.380  0.00  0.00    -0.047 A 
ATOM     33  C   UNL     1      -1.579  -0.699  -2.373  0.00  0.00    +0.007 A 
ATOM     34  C   UNL     1      -0.279  -2.837  -2.430  0.00  0.00    +0.044 C 
ENDBRANCH  26  31
ENDBRANCH  25  26
ENDBRANCH  21  25
ENDBRANCH   1  22
TORSDOF 5
