REMARK  Name = ZINC20461275
REMARK  13 active torsions:
REMARK  status: ('A' for Active; 'I' for Inactive)
REMARK    1  A    between atoms: C_1  and  C_2
REMARK    2  A    between atoms: C_5  and  N_9
REMARK    3  A    between atoms: C_6  and  C_8
REMARK    4  A    between atoms: C_10  and  C_38
REMARK    5  A    between atoms: C_12  and  C_15
REMARK    6  A    between atoms: C_13  and  C_14
REMARK    7  A    between atoms: N_16  and  N_17
REMARK    8  A    between atoms: C_18  and  C_20
REMARK    9  A    between atoms: C_25  and  N_26
REMARK   10  A    between atoms: N_26  and  C_27
REMARK   11  A    between atoms: N_26  and  S_34
REMARK   12  A    between atoms: C_27  and  C_28
REMARK   13  A    between atoms: S_34  and  C_37
REMARK                            x       y       z     vdW  Elec       q    Type
REMARK                         _______ _______ _______ _____ _____    ______ ____
ROOT
ATOM      1  N   UNL     1       3.831  -8.381  -0.044  0.00  0.00    -0.203 N 
ATOM      2  C   UNL     1       5.169  -8.213  -0.043  0.00  0.00    +0.265 C 
ATOM      3  O   UNL     1       5.641  -7.092  -0.037  0.00  0.00    -0.268 OA
ATOM      4  H   UNL     1       3.454  -9.274  -0.049  0.00  0.00    +0.178 HD
ENDROOT
BRANCH   2   5
ATOM      5  C   UNL     1       6.059  -9.388  -0.050  0.00  0.00    +0.061 A 
ATOM      6  C   UNL     1       5.520 -10.678  -0.062  0.00  0.00    +0.015 A 
ATOM      7  C   UNL     1       6.358 -11.772  -0.068  0.00  0.00    +0.001 A 
ATOM      8  C   UNL     1       7.733 -11.601  -0.061  0.00  0.00    +0.002 A 
ATOM      9  C   UNL     1       8.280 -10.334  -0.048  0.00  0.00    +0.025 A 
ATOM     10  C   UNL     1       7.452  -9.219  -0.049  0.00  0.00    +0.063 A 
BRANCH  10  11
ATOM     11  N   UNL     1       8.000  -7.942  -0.042  0.00  0.00    -0.203 N 
BRANCH  11  12
ATOM     12  S   UNL     1       8.212  -7.140   1.391  0.00  0.00    +0.043 S 
ATOM     13  O   UNL     1       8.084  -5.764   1.059  0.00  0.00    -0.155 OA
ATOM     14  O   UNL     1       7.300  -7.756   2.290  0.00  0.00    -0.155 OA
ATOM     15  C   UNL     1       9.918  -7.507   1.884  0.00  0.00    +0.218 C 
ENDBRANCH  11  12
BRANCH  11  16
ATOM     16  C   UNL     1       8.391  -7.306  -1.302  0.00  0.00    +0.166 C 
BRANCH  16  17
ATOM     17  C   UNL     1       7.192  -6.631  -1.917  0.00  0.00    -0.028 A 
ATOM     18  C   UNL     1       6.375  -7.331  -2.785  0.00  0.00    +0.005 A 
ATOM     19  C   UNL     1       5.275  -6.712  -3.349  0.00  0.00    +0.000 A 
ATOM     20  C   UNL     1       4.992  -5.393  -3.045  0.00  0.00    +0.000 A 
ATOM     21  C   UNL     1       5.809  -4.694  -2.176  0.00  0.00    +0.000 A 
ATOM     22  C   UNL     1       6.906  -5.314  -1.609  0.00  0.00    +0.005 A 
ENDBRANCH  16  17
ENDBRANCH  11  16
ENDBRANCH  10  11
ENDBRANCH   2   5
BRANCH   1  24
ATOM     23  C   UNL     1       1.697  -7.425  -0.040  0.00  0.00    +0.140 C 
ATOM     24  N   UNL     1       2.985  -7.264  -0.038  0.00  0.00    -0.187 NA
BRANCH  23  28
ATOM     25  N   UNL     1       0.059  -4.172  -0.021  0.00  0.00    -0.317 N 
ATOM     26  C   UNL     1      -1.050  -4.970  -0.025  0.00  0.00    +0.022 A 
ATOM     27  C   UNL     1      -0.659  -6.258  -0.033  0.00  0.00    +0.032 A 
ATOM     28  C   UNL     1       0.807  -6.250  -0.033  0.00  0.00    +0.016 A 
ATOM     29  C   UNL     1       1.183  -4.938  -0.031  0.00  0.00    +0.030 A 
ATOM     30  C   UNL     1       2.601  -4.425  -0.035  0.00  0.00    +0.064 C 
ATOM     31  C   UNL     1      -2.477  -4.487  -0.022  0.00  0.00    +0.064 C 
BRANCH  25  36
ATOM     32  C   UNL     1      -0.018   1.503   0.010  0.00  0.00    +0.044 C 
ATOM     33  C   UNL     1       0.002  -0.004   0.002  0.00  0.00    -0.050 A 
ATOM     34  C   UNL     1       0.006  -0.688  -1.200  0.00  0.00    +0.005 A 
ATOM     35  C   UNL     1       0.025  -2.068  -1.211  0.00  0.00    +0.026 A 
ATOM     36  C   UNL     1       0.040  -2.771  -0.013  0.00  0.00    +0.049 A 
ATOM     37  C   UNL     1       0.037  -2.082   1.192  0.00  0.00    -0.026 A 
ATOM     38  C   UNL     1       0.023  -0.700   1.196  0.00  0.00    +0.008 A 
ATOM     39  C   UNL     1       0.054  -2.840   2.494  0.00  0.00    +0.046 C 
ENDBRANCH  25  36
ENDBRANCH  23  28
ENDBRANCH   1  24
TORSDOF 8
