REMARK  Name = ZINC21602470
REMARK  9 active torsions:
REMARK  status: ('A' for Active; 'I' for Inactive)
REMARK    1  A    between atoms: C_1  and  C_2
REMARK    2  A    between atoms: C_2  and  C_4
REMARK    3  A    between atoms: C_2  and  O_17
REMARK    4  A    between atoms: N_9  and  C_10
REMARK    5  A    between atoms: C_10  and  C_11
REMARK    6  A    between atoms: O_17  and  C_18
REMARK    7  A    between atoms: C_18  and  C_20
REMARK    8  A    between atoms: C_24  and  N_25
REMARK    9  A    between atoms: C_26  and  C_28
REMARK                            x       y       z     vdW  Elec       q    Type
REMARK                         _______ _______ _______ _____ _____    ______ ____
ROOT
ATOM      1  C   UNL     1       0.002  -0.004   0.002  0.00  0.00    +0.062 C 
ATOM      2  C   UNL     1      -0.019   1.526   0.010  0.00  0.00    +0.259 C 
ENDROOT
BRANCH   2   3
ATOM      3  C   UNL     1      -0.748   2.025  -1.210  0.00  0.00    +0.261 C 
ATOM      4  O   UNL     1      -0.152   2.658  -2.055  0.00  0.00    -0.271 OA
ATOM      5  N   UNL     1      -2.062   1.768  -1.363  0.00  0.00    -0.237 N 
ATOM      6  C   UNL     1      -2.713   2.214  -2.455  0.00  0.00    +0.306 C 
ATOM      7  O   UNL     1      -2.116   2.849  -3.302  0.00  0.00    -0.252 OA
ATOM      8  N   UNL     1      -4.028   1.957  -2.607  0.00  0.00    -0.295 N 
ATOM      9  H   UNL     1      -2.602   1.193  -0.596  0.00  0.00    +0.159 HD
ATOM     10  H   UNL     1      -4.568   1.382  -1.841  0.00  0.00    +0.151 HD
BRANCH   8  11
ATOM     11  C   UNL     1      -4.736   2.442  -3.794  0.00  0.00    +0.141 C 
BRANCH  11  12
ATOM     12  C   UNL     1      -6.182   2.023  -3.722  0.00  0.00    -0.030 A 
ATOM     13  C   UNL     1      -6.580   0.817  -4.269  0.00  0.00    +0.005 A 
ATOM     14  C   UNL     1      -7.906   0.431  -4.198  0.00  0.00    +0.000 A 
ATOM     15  C   UNL     1      -8.835   1.255  -3.591  0.00  0.00    +0.000 A 
ATOM     16  C   UNL     1      -8.437   2.463  -3.050  0.00  0.00    +0.000 A 
ATOM     17  C   UNL     1      -7.111   2.847  -3.115  0.00  0.00    +0.005 A 
ENDBRANCH  11  12
ENDBRANCH   8  11
ENDBRANCH   2   3
BRANCH   2  18
ATOM     18  O   UNL     1       1.343   2.028   0.000  0.00  0.00    -0.449 OA
BRANCH  18  19
ATOM     19  C   UNL     1       1.929   2.234   1.198  0.00  0.00    +0.343 C 
ATOM     20  O   UNL     1       1.318   1.999   2.222  0.00  0.00    -0.245 OA
BRANCH  19  21
ATOM     21  C   UNL     1       3.302   2.740   1.264  0.00  0.00    +0.091 A 
ATOM     22  C   UNL     1       3.579   4.166   1.303  0.00  0.00    -0.021 A 
ATOM     23  C   UNL     1       4.887   4.496   1.368  0.00  0.00    -0.004 A 
ATOM     24  S   UNL     1       5.746   2.948   1.365  0.00  0.00    -0.077 S 
ATOM     25  C   UNL     1       4.388   1.875   1.286  0.00  0.00    +0.086 A 
ATOM     26  C   UNL     1       5.468   5.875   1.423  0.00  0.00    +0.043 C 
ATOM     27  C   UNL     1       4.375   6.878   1.026  0.00  0.00    +0.005 C 
ATOM     28  C   UNL     1       3.099   6.550   1.806  0.00  0.00    +0.005 C 
ATOM     29  C   UNL     1       2.498   5.240   1.294  0.00  0.00    +0.037 C 
BRANCH  25  30
ATOM     30  N   UNL     1       4.387   0.489   1.252  0.00  0.00    -0.280 N 
ATOM     31  C   UNL     1       5.552  -0.187   1.282  0.00  0.00    +0.214 C 
ATOM     32  O   UNL     1       6.603   0.417   1.339  0.00  0.00    -0.276 OA
ATOM     33  C   UNL     1       5.551  -1.694   1.246  0.00  0.00    +0.109 C 
ATOM     34  H   UNL     1       3.434  -0.059   1.202  0.00  0.00    +0.155 HD
ENDBRANCH  25  30
ENDBRANCH  19  21
ENDBRANCH  18  19
ENDBRANCH   2  18
TORSDOF 7
