REMARK  Name = ZINC38704827
REMARK  17 active torsions:
REMARK  status: ('A' for Active; 'I' for Inactive)
REMARK    1  A    between atoms: C_1  and  C_2
REMARK    2  A    between atoms: C_2  and  C_3
REMARK    3  A    between atoms: C_3  and  C_4
REMARK    4  A    between atoms: C_4  and  C_5
REMARK    5  A    between atoms: C_5  and  O_6
REMARK    6  A    between atoms: O_6  and  C_7
REMARK    7  A    between atoms: C_10  and  C_15
REMARK    8  A    between atoms: C_12  and  O_13
REMARK    9  A    between atoms: O_13  and  C_14
REMARK   10  A    between atoms: C_18  and  C_30
REMARK   11  A    between atoms: N_25  and  C_26
REMARK   12  A    between atoms: C_26  and  C_27
REMARK   13  A    between atoms: C_27  and  C_28
REMARK   14  A    between atoms: C_28  and  O_29
REMARK   15  A    between atoms: C_31  and  C_38
REMARK   16  A    between atoms: C_33  and  C_37
REMARK   17  A    between atoms: C_35  and  O_36
REMARK                            x       y       z     vdW  Elec       q    Type
REMARK                         _______ _______ _______ _____ _____    ______ ____
ROOT
ATOM      1  C   UNL     1       4.059  -6.201   6.530  0.00  0.00    +0.141 C 
ATOM      2  C   UNL     1       5.545  -6.404   6.417  0.00  0.00    +0.035 A 
ATOM      3  C   UNL     1       6.606  -6.976   5.708  0.00  0.00    +0.102 A 
ATOM      4  N   UNL     1       7.720  -6.646   6.332  0.00  0.00    -0.173 NA
ATOM      5  N   UNL     1       7.467  -5.924   7.364  0.00  0.00    -0.272 N 
ATOM      6  H   UNL     1       8.134  -5.567   7.971  0.00  0.00    +0.189 HD
ATOM      7  C   UNL     1       6.120  -5.732   7.478  0.00  0.00    +0.126 A 
ATOM      8  C   UNL     1       5.053  -5.106   8.267  0.00  0.00    +0.265 C 
ATOM      9  O   UNL     1       5.230  -4.440   9.270  0.00  0.00    -0.268 OA
ATOM     10  N   UNL     1       3.850  -5.373   7.725  0.00  0.00    -0.285 N 
ENDROOT
BRANCH   3  11
ATOM     11  C   UNL     1       6.498  -7.801   4.479  0.00  0.00    +0.047 A 
ATOM     12  C   UNL     1       7.312  -7.531   3.381  0.00  0.00    -0.037 A 
ATOM     13  C   UNL     1       7.208  -8.302   2.241  0.00  0.00    +0.007 A 
ATOM     14  C   UNL     1       6.298  -9.343   2.184  0.00  0.00    -0.047 A 
ATOM     15  C   UNL     1       5.486  -9.619   3.268  0.00  0.00    +0.049 A 
ATOM     16  C   UNL     1       5.584  -8.857   4.421  0.00  0.00    +0.127 A 
ATOM     17  C   UNL     1       6.191 -10.179   0.935  0.00  0.00    +0.044 C 
ATOM     18  C   UNL     1       8.304  -6.398   3.438  0.00  0.00    +0.044 C 
BRANCH  16  19
ATOM     19  O   UNL     1       4.791  -9.132   5.489  0.00  0.00    -0.506 OA
ATOM     20  H   UNL     1       3.924  -8.706   5.455  0.00  0.00    +0.292 HD
ENDBRANCH  16  19
ENDBRANCH   3  11
BRANCH   1  24
ATOM     21  C   UNL     1       2.584  -4.176   3.064  0.00  0.00    +0.162 A 
ATOM     22  C   UNL     1       3.360  -3.497   3.989  0.00  0.00    +0.050 A 
ATOM     23  C   UNL     1       3.835  -4.154   5.108  0.00  0.00    +0.009 A 
ATOM     24  C   UNL     1       3.538  -5.489   5.308  0.00  0.00    -0.019 A 
ATOM     25  C   UNL     1       2.764  -6.173   4.389  0.00  0.00    +0.055 A 
ATOM     26  C   UNL     1       2.279  -5.519   3.268  0.00  0.00    +0.162 A 
BRANCH  26  27
ATOM     27  O   UNL     1       1.513  -6.188   2.366  0.00  0.00    -0.491 OA
ATOM     28  C   UNL     1       1.241  -7.564   2.641  0.00  0.00    +0.277 C 
ENDBRANCH  26  27
BRANCH  21  29
ATOM     29  O   UNL     1       2.115  -3.531   1.962  0.00  0.00    -0.488 OA
BRANCH  29  30
ATOM     30  C   UNL     1       2.467  -2.154   1.818  0.00  0.00    +0.229 C 
BRANCH  30  31
ATOM     31  C   UNL     1       1.854  -1.603   0.530  0.00  0.00    +0.041 C 
BRANCH  31  32
ATOM     32  C   UNL     1       2.231  -0.128   0.375  0.00  0.00    +0.003 C 
BRANCH  32  34
ATOM     33  C   UNL     1       1.995   1.898  -1.068  0.00  0.00    +0.004 C 
ATOM     34  C   UNL     1       1.618   0.423  -0.913  0.00  0.00    -0.003 C 
ENDBRANCH  32  34
ENDBRANCH  31  32
ENDBRANCH  30  31
ENDBRANCH  29  30
ENDBRANCH  21  29
ENDBRANCH   1  24
BRANCH  10  35
ATOM     35  C   UNL     1       2.555  -4.916   8.237  0.00  0.00    +0.111 C 
BRANCH  35  36
ATOM     36  C   UNL     1       2.004  -5.948   9.223  0.00  0.00    +0.047 C 
BRANCH  36  37
ATOM     37  C   UNL     1       0.652  -5.471   9.758  0.00  0.00    +0.157 C 
BRANCH  37  38
ATOM     38  O   UNL     1       0.137  -6.434  10.678  0.00  0.00    -0.395 OA
ATOM     39  H   UNL     1      -0.720  -6.197  11.058  0.00  0.00    +0.209 HD
ENDBRANCH  37  38
ENDBRANCH  36  37
ENDBRANCH  35  36
ENDBRANCH  10  35
TORSDOF 13
