REMARK  Name = ZINC35265770
REMARK  10 active torsions:
REMARK  status: ('A' for Active; 'I' for Inactive)
REMARK    1  A    between atoms: C_1  and  C_2
REMARK    2  A    between atoms: C_2  and  C_3
REMARK    3  A    between atoms: C_3  and  N_4
REMARK    4  A    between atoms: C_5  and  C_34
REMARK    5  A    between atoms: C_6  and  C_30
REMARK    6  A    between atoms: C_7  and  C_12
REMARK    7  A    between atoms: C_15  and  N_18
REMARK    8  A    between atoms: N_21  and  C_22
REMARK    9  A    between atoms: C_30  and  O_32
REMARK   10  A    between atoms: O_32  and  C_33
REMARK                            x       y       z     vdW  Elec       q    Type
REMARK                         _______ _______ _______ _____ _____    ______ ____
ROOT
ATOM      1  C   UNL     1      -0.119  -5.591  -0.256  0.00  0.00    -0.022 A 
ATOM      2  C   UNL     1       1.125  -5.000  -0.136  0.00  0.00    +0.007 A 
ATOM      3  C   UNL     1       2.269  -5.745  -0.347  0.00  0.00    +0.024 A 
ATOM      4  C   UNL     1       2.168  -7.089  -0.680  0.00  0.00    +0.035 A 
ATOM      5  C   UNL     1       0.917  -7.680  -0.800  0.00  0.00    +0.024 A 
ATOM      6  C   UNL     1      -0.223  -6.931  -0.582  0.00  0.00    +0.007 A 
ENDROOT
BRANCH   1  10
ATOM      7  N   UNL     1      -1.520  -2.014   0.020  0.00  0.00    -0.259 N 
ATOM      8  C   UNL     1      -1.705  -2.637  -1.181  0.00  0.00    +0.024 C 
ATOM      9  C   UNL     1      -1.645  -3.982  -1.285  0.00  0.00    +0.078 C 
ATOM     10  C   UNL     1      -1.365  -4.775  -0.025  0.00  0.00    +0.143 C 
ATOM     11  N   UNL     1      -1.180  -4.008   1.219  0.00  0.00    -0.288 N 
ATOM     12  C   UNL     1      -1.265  -2.664   1.162  0.00  0.00    +0.307 C 
ATOM     13  O   UNL     1      -1.110  -2.022   2.182  0.00  0.00    -0.252 OA
ATOM     14  C   UNL     1      -1.981  -1.810  -2.411  0.00  0.00    +0.061 C 
ATOM     15  H   UNL     1      -0.998  -4.460   2.058  0.00  0.00    +0.151 HD
BRANCH   9  16
ATOM     16  C   UNL     1      -1.837  -4.629  -2.529  0.00  0.00    +0.339 C 
ATOM     17  O   UNL     1      -2.061  -3.972  -3.528  0.00  0.00    -0.245 OA
BRANCH  16  18
ATOM     18  O   UNL     1      -1.772  -5.975  -2.606  0.00  0.00    -0.465 OA
ATOM     19  C   UNL     1      -1.977  -6.561  -3.893  0.00  0.00    +0.280 C 
ENDBRANCH  16  18
ENDBRANCH   9  16
BRANCH   7  20
ATOM     20  C   UNL     1      -1.598  -0.552   0.059  0.00  0.00    +0.114 C 
BRANCH  20  22
ATOM     21  C   UNL     1      -3.143   1.404   0.237  0.00  0.00    +0.005 C 
ATOM     22  C   UNL     1      -3.061  -0.123   0.195  0.00  0.00    +0.016 C 
ENDBRANCH  20  22
ENDBRANCH   7  20
ENDBRANCH   1  10
BRANCH   4  23
ATOM     23  N   UNL     1       3.325  -7.847  -0.896  0.00  0.00    -0.269 N 
ATOM     24  C   UNL     1       4.433  -7.606  -0.168  0.00  0.00    +0.308 C 
ATOM     25  O   UNL     1       4.455  -6.678   0.618  0.00  0.00    -0.252 OA
ATOM     26  N   UNL     1       5.518  -8.392  -0.312  0.00  0.00    -0.269 N 
ATOM     27  H   UNL     1       3.329  -8.546  -1.568  0.00  0.00    +0.156 HD
ATOM     28  H   UNL     1       5.531  -9.081  -0.995  0.00  0.00    +0.156 HD
BRANCH  26  29
ATOM     29  C   UNL     1       6.627  -8.215   0.524  0.00  0.00    +0.036 A 
ATOM     30  C   UNL     1       6.446  -7.840   1.849  0.00  0.00    +0.026 A 
ATOM     31  C   UNL     1       7.541  -7.665   2.673  0.00  0.00    +0.041 A 
ATOM     32  C   UNL     1       8.819  -7.865   2.179  0.00  0.00    +0.142 A 
ATOM     33  C   UNL     1       9.003  -8.239   0.858  0.00  0.00    +0.078 A 
ATOM     34  C   UNL     1       7.909  -8.421   0.032  0.00  0.00    +0.046 A 
ATOM     35 CL   UNL     1      10.606  -8.488   0.241  0.00  0.00    -0.081 Cl
ATOM     36  F   UNL     1       9.889  -7.694   2.987  0.00  0.00    -0.204 F 
ENDBRANCH  26  29
ENDBRANCH   4  23
TORSDOF 7
