REMARK  Name = ZINC39662230
REMARK  5 active torsions:
REMARK  status: ('A' for Active; 'I' for Inactive)
REMARK    1  A    between atoms: C_4  and  C_7
REMARK    2  A    between atoms: C_7  and  C_9
REMARK    3  A    between atoms: C_7  and  N_11
REMARK    4  A    between atoms: C_12  and  C_14
REMARK    5  A    between atoms: C_25  and  C_27
REMARK                            x       y       z     vdW  Elec       q    Type
REMARK                         _______ _______ _______ _____ _____    ______ ____
ROOT
ATOM      1  C   UNL     1       4.619  -3.561  -2.422  0.00  0.00    +0.100 C 
ATOM      2  C   UNL     1       4.211  -4.821  -1.626  0.00  0.00    +0.121 C 
ATOM      3  N   UNL     1       4.981  -5.923  -2.249  0.00  0.00    -0.296 N 
ATOM      4  C   UNL     1       6.309  -5.329  -2.536  0.00  0.00    +0.115 C 
ATOM      5  C   UNL     1       5.996  -3.899  -3.017  0.00  0.00    -0.004 C 
ATOM      6  C   UNL     1       5.938  -3.855  -4.541  0.00  0.00    -0.010 C 
ATOM      7  C   UNL     1       7.332  -4.138  -5.108  0.00  0.00    -0.082 C 
ATOM      8  N   UNL     1       8.280  -3.136  -4.606  0.00  0.00    +0.379 N 
ATOM      9  C   UNL     1       8.399  -3.246  -3.147  0.00  0.00    -0.082 C 
ATOM     10  C   UNL     1       7.050  -2.926  -2.497  0.00  0.00    -0.010 C 
ATOM     11  C   UNL     1       4.567  -7.181  -2.499  0.00  0.00    +0.249 C 
ATOM     12  O   UNL     1       5.323  -7.978  -3.020  0.00  0.00    -0.270 OA
ATOM     13  H   UNL     1       9.183  -3.288  -5.028  0.00  0.00    -0.086 HD
ATOM     14  H   UNL     1       7.950  -2.213  -4.846  0.00  0.00    -0.086 HD
ENDROOT
BRANCH  11  15
ATOM     15  C   UNL     1       3.195  -7.593  -2.140  0.00  0.00    +0.073 A 
ATOM     16  C   UNL     1       2.155  -7.449  -3.062  0.00  0.00    +0.054 A 
ATOM     17  C   UNL     1       0.874  -7.837  -2.719  0.00  0.00    +0.021 A 
ATOM     18  C   UNL     1       0.620  -8.365  -1.466  0.00  0.00    +0.003 A 
ATOM     19  C   UNL     1       1.645  -8.510  -0.547  0.00  0.00    +0.021 A 
ATOM     20  C   UNL     1       2.931  -8.133  -0.878  0.00  0.00    +0.054 A 
ATOM     21 CL   UNL     1       4.217  -8.323   0.273  0.00  0.00    -0.083 Cl
ATOM     22 CL   UNL     1       2.471  -6.785  -4.634  0.00  0.00    -0.083 Cl
ENDBRANCH  11  15
BRANCH   1  24
ATOM     23  N   UNL     1       4.492  -1.131  -1.980  0.00  0.00    -0.296 N 
ATOM     24  C   UNL     1       4.721  -2.370  -1.504  0.00  0.00    +0.219 C 
ATOM     25  O   UNL     1       5.009  -2.528  -0.337  0.00  0.00    -0.275 OA
ATOM     26  H   UNL     1       4.262  -1.004  -2.914  0.00  0.00    +0.150 HD
BRANCH  23  27
ATOM     27  C   UNL     1       4.592   0.027  -1.088  0.00  0.00    +0.207 C 
BRANCH  27  31
ATOM     28  C   UNL     1       5.483   3.519  -3.381  0.00  0.00    +0.000 A 
ATOM     29  C   UNL     1       6.089   3.325  -2.154  0.00  0.00    +0.000 A 
ATOM     30  C   UNL     1       5.801   2.195  -1.412  0.00  0.00    +0.006 A 
ATOM     31  C   UNL     1       4.906   1.259  -1.896  0.00  0.00    -0.013 A 
ATOM     32  C   UNL     1       4.298   1.454  -3.123  0.00  0.00    +0.006 A 
ATOM     33  C   UNL     1       4.588   2.584  -3.865  0.00  0.00    +0.000 A 
ENDBRANCH  27  31
BRANCH  27  34
ATOM     34  C   UNL     1       3.313   0.214  -0.383  0.00  0.00    +0.090 C 
ATOM     35  N   UNL     1       2.327   0.359   0.161  0.00  0.00    -0.194 NA
ENDBRANCH  27  34
ENDBRANCH  23  27
ENDBRANCH   1  24
TORSDOF 5
