REMARK  Name = ZINC13704054
REMARK  8 active torsions:
REMARK  status: ('A' for Active; 'I' for Inactive)
REMARK    1  A    between atoms: C_9  and  S_11
REMARK    2  A    between atoms: S_11  and  N_14
REMARK    3  A    between atoms: N_14  and  C_15
REMARK    4  A    between atoms: C_15  and  C_16
REMARK    5  A    between atoms: C_16  and  N_17
REMARK    6  A    between atoms: N_17  and  C_18
REMARK    7  A    between atoms: C_18  and  C_19
REMARK    8  A    between atoms: C_20  and  C_21
REMARK                            x       y       z     vdW  Elec       q    Type
REMARK                         _______ _______ _______ _____ _____    ______ ____
ROOT
ATOM      1  N   UNL     1       1.986  -2.629  -1.206  0.00  0.00    -0.192 NA
ATOM      2  H   UNL     1       1.316  -3.064  -1.756  0.00  0.00    +0.148 HD
ENDROOT
BRANCH   1   3
ATOM      3  S   UNL     1       1.596  -2.110   0.317  0.00  0.00    +0.059 S 
ATOM      4  O   UNL     1       2.614  -2.593   1.184  0.00  0.00    -0.153 OA
ATOM      5  O   UNL     1       0.222  -2.415   0.511  0.00  0.00    -0.153 OA
BRANCH   3  14
ATOM      6  C   UNL     1       2.779   1.654   1.105  0.00  0.00    +0.003 A 
ATOM      7  C   UNL     1       1.963   2.436   0.345  0.00  0.00    +0.010 A 
ATOM      8  C   UNL     1       0.987   1.834  -0.465  0.00  0.00    +0.002 A 
ATOM      9  C   UNL     1       0.118   2.588  -1.270  0.00  0.00    +0.119 A 
ATOM     10  N   UNL     1      -0.778   1.980  -2.012  0.00  0.00    -0.263 NA
ATOM     11  C   UNL     1      -0.910   0.661  -2.042  0.00  0.00    +0.111 A 
ATOM     12  C   UNL     1      -0.117  -0.159  -1.298  0.00  0.00    +0.030 A 
ATOM     13  C   UNL     1       0.869   0.420  -0.477  0.00  0.00    +0.011 A 
ATOM     14  C   UNL     1       1.727  -0.353   0.318  0.00  0.00    +0.113 A 
ATOM     15  C   UNL     1       2.662   0.266   1.092  0.00  0.00    +0.029 A 
ENDBRANCH   3  14
ENDBRANCH   1   3
BRANCH   1  16
ATOM     16  C   UNL     1       3.342  -2.432  -1.723  0.00  0.00    +0.087 C 
BRANCH  16  17
ATOM     17  C   UNL     1       3.558  -3.326  -2.946  0.00  0.00    -0.065 C 
BRANCH  17  18
ATOM     18  N   UNL     1       4.918  -3.128  -3.464  0.00  0.00    +0.382 N 
ATOM     19  H   UNL     1       5.040  -2.162  -3.727  0.00  0.00    -0.085 HD
ATOM     20  H   UNL     1       5.588  -3.369  -2.749  0.00  0.00    -0.085 HD
BRANCH  18  21
ATOM     21  C   UNL     1       5.124  -3.986  -4.638  0.00  0.00    -0.055 C 
BRANCH  21  22
ATOM     22  C   UNL     1       6.520  -3.783  -5.170  0.00  0.00    -0.045 C 
ATOM     23  C   UNL     1       7.314  -4.827  -5.362  0.00  0.00    +0.002 C 
BRANCH  23  24
ATOM     24  C   UNL     1       6.780  -6.198  -5.222  0.00  0.00    -0.025 A 
ATOM     25  C   UNL     1       5.497  -6.500  -5.680  0.00  0.00    +0.009 A 
ATOM     26  C   UNL     1       5.004  -7.781  -5.547  0.00  0.00    +0.016 A 
ATOM     27  C   UNL     1       5.779  -8.767  -4.960  0.00  0.00    +0.018 A 
ATOM     28  C   UNL     1       7.052  -8.473  -4.503  0.00  0.00    +0.016 A 
ATOM     29  C   UNL     1       7.559  -7.196  -4.636  0.00  0.00    +0.009 A 
ATOM     30 BR   UNL     1       5.095 -10.520  -4.780  0.00  0.00    -0.050 Br
ENDBRANCH  23  24
ENDBRANCH  21  22
ENDBRANCH  18  21
ENDBRANCH  17  18
ENDBRANCH  16  17
ENDBRANCH   1  16
TORSDOF 8
