REMARK  Name = ZINC34757237
REMARK  8 active torsions:
REMARK  status: ('A' for Active; 'I' for Inactive)
REMARK    1  A    between atoms: C_1  and  C_2
REMARK    2  A    between atoms: C_2  and  C_4
REMARK    3  A    between atoms: C_4  and  S_5
REMARK    4  A    between atoms: S_5  and  C_6
REMARK    5  A    between atoms: N_21  and  C_24
REMARK    6  A    between atoms: C_24  and  C_25
REMARK    7  A    between atoms: N_27  and  C_28
REMARK    8  A    between atoms: C_28  and  C_29
REMARK                            x       y       z     vdW  Elec       q    Type
REMARK                         _______ _______ _______ _____ _____    ______ ____
ROOT
ATOM      1  C   UNL     1      -4.736  -1.227   0.697  0.00  0.00    +0.191 A 
ATOM      2  N   UNL     1      -5.485  -1.388   1.782  0.00  0.00    -0.206 NA
ATOM      3  C   UNL     1      -5.425  -2.483   2.521  0.00  0.00    +0.134 A 
ATOM      4  C   UNL     1      -4.531  -3.524   2.145  0.00  0.00    +0.051 A 
ATOM      5  C   UNL     1      -4.301  -4.817   2.812  0.00  0.00    -0.025 A 
ATOM      6  C   UNL     1      -3.395  -5.635   2.256  0.00  0.00    -0.004 A 
ATOM      7  S   UNL     1      -2.797  -4.759   0.828  0.00  0.00    -0.073 S 
ATOM      8  C   UNL     1      -3.770  -3.287   0.987  0.00  0.00    +0.115 A 
ATOM      9  N   UNL     1      -3.890  -2.167   0.298  0.00  0.00    -0.215 NA
ATOM     10  C   UNL     1      -3.240  -6.920   3.024  0.00  0.00    +0.043 C 
ATOM     11  C   UNL     1      -3.872  -6.626   4.402  0.00  0.00    +0.010 C 
ATOM     12  C   UNL     1      -4.873  -5.507   4.055  0.00  0.00    +0.037 C 
ATOM     13  N   UNL     1      -6.220  -2.615   3.645  0.00  0.00    -0.318 N 
ATOM     14  C   UNL     1      -7.525  -3.291   3.573  0.00  0.00    +0.088 C 
ATOM     15  C   UNL     1      -8.578  -2.384   4.219  0.00  0.00    -0.059 C 
ATOM     16  N   UNL     1      -8.151  -2.033   5.580  0.00  0.00    +0.387 N 
ATOM     17  C   UNL     1      -6.920  -1.234   5.527  0.00  0.00    -0.059 C 
ATOM     18  C   UNL     1      -5.783  -2.089   4.947  0.00  0.00    +0.088 C 
ATOM     19  H   UNL     1      -7.981  -2.877   6.106  0.00  0.00    -0.081 HD
ENDROOT
BRANCH   1  20
ATOM     20  S   UNL     1      -4.875   0.262  -0.235  0.00  0.00    -0.082 S 
BRANCH  20  21
ATOM     21  C   UNL     1      -3.699   0.038  -1.597  0.00  0.00    +0.107 C 
BRANCH  21  23
ATOM     22  C   UNL     1      -4.871   1.485  -3.426  0.00  0.00    +0.039 C 
ATOM     23  C   UNL     1      -3.717   1.257  -2.483  0.00  0.00    -0.069 C 
ATOM     24  C   UNL     1      -2.732   2.118  -2.433  0.00  0.00    +0.008 C 
ENDBRANCH  21  23
ENDBRANCH  20  21
ENDBRANCH   1  20
BRANCH  16  25
ATOM     25  C   UNL     1      -9.210  -1.256   6.238  0.00  0.00    +0.019 C 
BRANCH  25  26
ATOM     26  C   UNL     1      -8.827  -0.999   7.673  0.00  0.00    +0.197 C 
ATOM     27  O   UNL     1      -7.776  -1.423   8.104  0.00  0.00    -0.278 OA
ATOM     28  N   UNL     1      -9.653  -0.300   8.476  0.00  0.00    -0.313 N 
ATOM     29  H   UNL     1     -10.493   0.039   8.130  0.00  0.00    +0.149 HD
BRANCH  28  30
ATOM     30  C   UNL     1      -9.280  -0.051   9.871  0.00  0.00    +0.139 C 
BRANCH  30  31
ATOM     31  C   UNL     1     -10.366   0.747  10.546  0.00  0.00    -0.030 A 
ATOM     32  C   UNL     1     -10.324   2.128  10.524  0.00  0.00    +0.005 A 
ATOM     33  C   UNL     1     -11.320   2.860  11.143  0.00  0.00    +0.000 A 
ATOM     34  C   UNL     1     -12.359   2.210  11.784  0.00  0.00    +0.000 A 
ATOM     35  C   UNL     1     -12.401   0.829  11.804  0.00  0.00    +0.000 A 
ATOM     36  C   UNL     1     -11.408   0.097  11.181  0.00  0.00    +0.005 A 
ENDBRANCH  30  31
ENDBRANCH  28  30
ENDBRANCH  25  26
ENDBRANCH  16  25
TORSDOF 7
