REMARK  Name = ZINC09326300
REMARK  11 active torsions:
REMARK  status: ('A' for Active; 'I' for Inactive)
REMARK    1  A    between atoms: C_1  and  C_2
REMARK    2  A    between atoms: C_2  and  O_3
REMARK    3  A    between atoms: O_3  and  C_4
REMARK    4  A    between atoms: C_4  and  C_6
REMARK    5  A    between atoms: C_6  and  N_7
REMARK    6  A    between atoms: C_9  and  O_31
REMARK    7  A    between atoms: N_16  and  C_17
REMARK    8  A    between atoms: C_17  and  C_19
REMARK    9  A    between atoms: C_19  and  S_20
REMARK   10  A    between atoms: S_20  and  C_23
REMARK   11  A    between atoms: O_31  and  C_32
REMARK                            x       y       z     vdW  Elec       q    Type
REMARK                         _______ _______ _______ _____ _____    ______ ____
ROOT
ATOM      1  N   UNL     1       1.244  -7.037  -4.360  0.00  0.00    -0.307 N 
ATOM      2  C   UNL     1       1.269  -8.418  -4.279  0.00  0.00    +0.102 A 
ATOM      3  C   UNL     1       1.272  -9.355  -5.331  0.00  0.00    +0.145 A 
ATOM      4  C   UNL     1       1.291 -10.708  -5.068  0.00  0.00    +0.049 A 
ATOM      5  C   UNL     1       1.309 -11.185  -3.768  0.00  0.00    +0.025 A 
ATOM      6  C   UNL     1       1.308 -10.285  -2.716  0.00  0.00    +0.057 A 
ATOM      7  C   UNL     1       1.288  -8.933  -2.977  0.00  0.00    +0.061 A 
ATOM      8  S   UNL     1       1.278  -7.476  -1.963  0.00  0.00    -0.050 S 
ATOM      9  C   UNL     1       1.251  -6.288  -3.226  0.00  0.00    +0.167 A 
ATOM     10  N   UNL     1       1.235  -4.962  -3.112  0.00  0.00    -0.155 NA
ATOM     11 CL   UNL     1       1.331 -10.858  -1.077  0.00  0.00    -0.082 Cl
ENDROOT
BRANCH  10  12
ATOM     12  C   UNL     1       1.239  -4.399  -1.909  0.00  0.00    +0.260 C 
ATOM     13  O   UNL     1       1.258  -5.094  -0.911  0.00  0.00    -0.272 OA
BRANCH  12  14
ATOM     14  C   UNL     1       1.220  -2.897  -1.780  0.00  0.00    +0.269 C 
BRANCH  14  15
ATOM     15  S   UNL     1       1.231  -2.441  -0.024  0.00  0.00    +0.005 S 
ATOM     16  O   UNL     1       2.477  -2.791   0.565  0.00  0.00    -0.169 OA
ATOM     17  O   UNL     1       0.008  -2.823   0.589  0.00  0.00    -0.169 OA
BRANCH  15  18
ATOM     18  C   UNL     1       1.208  -0.679  -0.014  0.00  0.00    +0.089 A 
ATOM     19  C   UNL     1       0.002  -0.004   0.002  0.00  0.00    +0.028 A 
ATOM     20  C   UNL     1      -0.017   1.378   0.010  0.00  0.00    +0.022 A 
ATOM     21  C   UNL     1       1.172   2.086   0.002  0.00  0.00    +0.041 A 
ATOM     22  C   UNL     1       2.379   1.409  -0.013  0.00  0.00    +0.022 A 
ATOM     23  C   UNL     1       2.397   0.027  -0.021  0.00  0.00    +0.028 A 
ATOM     24 CL   UNL     1       1.149   3.821   0.011  0.00  0.00    -0.084 Cl
ENDBRANCH  15  18
ENDBRANCH  14  15
ENDBRANCH  12  14
ENDBRANCH  10  12
BRANCH   3  25
ATOM     25  O   UNL     1       1.254  -8.920  -6.619  0.00  0.00    -0.493 OA
ATOM     26  C   UNL     1       1.257  -9.919  -7.641  0.00  0.00    +0.277 C 
ENDBRANCH   3  25
BRANCH   1  27
ATOM     27  C   UNL     1       1.216  -6.381  -5.669  0.00  0.00    +0.244 C 
BRANCH  27  28
ATOM     28  C   UNL     1       2.626  -6.136  -6.140  0.00  0.00    +0.327 C 
ATOM     29  O   UNL     1       3.560  -6.476  -5.452  0.00  0.00    -0.249 OA
BRANCH  28  30
ATOM     30  O   UNL     1       2.845  -5.542  -7.323  0.00  0.00    -0.464 OA
BRANCH  30  32
ATOM     31  C   UNL     1       4.279  -4.654  -9.079  0.00  0.00    +0.048 C 
ATOM     32  C   UNL     1       4.229  -5.339  -7.713  0.00  0.00    +0.229 C 
ENDBRANCH  30  32
ENDBRANCH  28  30
ENDBRANCH  27  28
ENDBRANCH   1  27
TORSDOF 9
