REMARK  Name = ZINC08156318
REMARK  6 active torsions:
REMARK  status: ('A' for Active; 'I' for Inactive)
REMARK    1  A    between atoms: C_1  and  C_2
REMARK    2  A    between atoms: C_2  and  C_4
REMARK    3  A    between atoms: C_2  and  S_19
REMARK    4  A    between atoms: N_6  and  C_7
REMARK    5  A    between atoms: C_8  and  C_17
REMARK    6  A    between atoms: S_19  and  C_20
REMARK                            x       y       z     vdW  Elec       q    Type
REMARK                         _______ _______ _______ _____ _____    ______ ____
ROOT
ATOM      1  C   UNL     1       0.731  -0.503   1.223  0.00  0.00    +0.231 C 
ATOM      2  O   UNL     1       0.105  -0.891   2.187  0.00  0.00    -0.274 OA
ATOM      3  N   UNL     1       2.079  -0.519   1.244  0.00  0.00    -0.278 N 
ATOM      4  H   UNL     1       2.579  -0.208   0.473  0.00  0.00    +0.155 HD
ENDROOT
BRANCH   3   5
ATOM      5  C   UNL     1       2.750  -0.979   2.369  0.00  0.00    +0.090 A 
ATOM      6  C   UNL     1       4.116  -1.061   2.569  0.00  0.00    +0.084 A 
ATOM      7  C   UNL     1       4.575  -1.584   3.848  0.00  0.00    -0.018 A 
ATOM      8  C   UNL     1       3.577  -1.933   4.686  0.00  0.00    -0.004 A 
ATOM      9  S   UNL     1       2.091  -1.556   3.800  0.00  0.00    -0.077 S 
ATOM     10  C   UNL     1       3.697  -2.517   6.059  0.00  0.00    +0.043 C 
ATOM     11  C   UNL     1       4.697  -1.685   6.874  0.00  0.00    +0.005 C 
ATOM     12  C   UNL     1       6.095  -2.259   6.662  0.00  0.00    +0.001 C 
ATOM     13  C   UNL     1       6.226  -2.821   5.248  0.00  0.00    +0.005 C 
ATOM     14  C   UNL     1       6.047  -1.713   4.214  0.00  0.00    +0.037 C 
BRANCH   6  15
ATOM     15  C   UNL     1       5.043  -0.648   1.559  0.00  0.00    +0.102 C 
ATOM     16  N   UNL     1       5.777  -0.320   0.757  0.00  0.00    -0.191 NA
ENDBRANCH   6  15
ENDBRANCH   3   5
BRANCH   1  18
ATOM     17  C   UNL     1      -0.019   1.526   0.010  0.00  0.00    +0.029 C 
ATOM     18  C   UNL     1       0.002  -0.004   0.002  0.00  0.00    +0.137 C 
BRANCH  18  19
ATOM     19  S   UNL     1      -1.700  -0.632   0.015  0.00  0.00    -0.072 S 
BRANCH  19  20
ATOM     20  C   UNL     1      -2.365  -0.093  -1.525  0.00  0.00    +0.211 A 
ATOM     21  N   UNL     1      -3.610  -0.323  -1.958  0.00  0.00    -0.188 NA
ATOM     22  C   UNL     1      -3.773   0.219  -3.146  0.00  0.00    +0.209 A 
ATOM     23  N   UNL     1      -2.612   0.813  -3.496  0.00  0.00    -0.246 N 
ATOM     24  H   UNL     1      -2.432   1.294  -4.318  0.00  0.00    +0.192 HD
ATOM     25  N   UNL     1      -1.721   0.602  -2.432  0.00  0.00    -0.144 NA
ATOM     26  N   UNL     1      -4.929   0.185  -3.903  0.00  0.00    -0.328 N 
ATOM     27  H   UNL     1      -5.717  -0.268  -3.565  0.00  0.00    +0.145 HD
ATOM     28  H   UNL     1      -4.953   0.616  -4.772  0.00  0.00    +0.145 HD
ENDBRANCH  19  20
ENDBRANCH  18  19
ENDBRANCH   1  18
TORSDOF 5
