REMARK  Name = ZINC23262055
REMARK  8 active torsions:
REMARK  status: ('A' for Active; 'I' for Inactive)
REMARK    1  A    between atoms: C_1  and  C_2
REMARK    2  A    between atoms: C_2  and  N_3
REMARK    3  A    between atoms: C_4  and  C_28
REMARK    4  A    between atoms: C_7  and  S_8
REMARK    5  A    between atoms: S_8  and  C_9
REMARK    6  A    between atoms: C_9  and  C_11
REMARK    7  A    between atoms: C_9  and  C_12
REMARK    8  A    between atoms: N_17  and  C_18
REMARK                            x       y       z     vdW  Elec       q    Type
REMARK                         _______ _______ _______ _____ _____    ______ ____
ROOT
ATOM      1  C   UNL     1       1.986   3.580   0.126  0.00  0.00    +0.233 C 
ATOM      2  O   UNL     1       1.095   4.357  -0.140  0.00  0.00    -0.274 OA
ATOM      3  N   UNL     1       3.183   4.043   0.538  0.00  0.00    -0.239 N 
ATOM      4  C   UNL     1       3.389   5.370   0.654  0.00  0.00    +0.306 C 
ATOM      5  O   UNL     1       2.495   6.149   0.387  0.00  0.00    -0.252 OA
ATOM      6  N   UNL     1       4.585   5.833   1.067  0.00  0.00    -0.294 N 
ATOM      7  H   UNL     1       3.992   3.338   0.780  0.00  0.00    +0.159 HD
ATOM      8  H   UNL     1       5.394   5.128   1.308  0.00  0.00    +0.151 HD
ENDROOT
BRANCH   6   9
ATOM      9  C   UNL     1       4.809   7.275   1.193  0.00  0.00    +0.037 C 
ATOM     10  C   UNL     1       4.603   7.944  -0.168  0.00  0.00    +0.029 C 
ATOM     11  C   UNL     1       4.836   9.450  -0.036  0.00  0.00    -0.008 C 
ATOM     12  C   UNL     1       6.266   9.705   0.446  0.00  0.00    +0.007 C 
ATOM     13  C   UNL     1       6.472   9.036   1.806  0.00  0.00    -0.008 C 
ATOM     14  C   UNL     1       6.239   7.529   1.674  0.00  0.00    +0.029 C 
ATOM     15  C   UNL     1       5.482   9.619   2.816  0.00  0.00    +0.007 C 
ATOM     16  C   UNL     1       4.052   9.365   2.335  0.00  0.00    -0.008 C 
ATOM     17  C   UNL     1       3.846  10.034   0.974  0.00  0.00    +0.007 C 
ATOM     18  C   UNL     1       3.819   7.858   2.203  0.00  0.00    +0.029 C 
ENDBRANCH   6   9
BRANCH   1  19
ATOM     19  C   UNL     1       1.756   2.096  -0.004  0.00  0.00    +0.137 C 
ATOM     20  C   UNL     1       2.359   1.600  -1.319  0.00  0.00    +0.029 C 
BRANCH  19  21
ATOM     21  S   UNL     1      -0.022   1.758   0.012  0.00  0.00    -0.074 S 
BRANCH  21  26
ATOM     22  N   UNL     1      -1.088  -0.830   0.013  0.00  0.00    -0.302 N 
ATOM     23  C   UNL     1      -0.583  -2.111  -0.004  0.00  0.00    +0.171 A 
ATOM     24  N   UNL     1       0.728  -2.007  -0.015  0.00  0.00    -0.128 NA
ATOM     25  N   UNL     1       1.070  -0.768  -0.012  0.00  0.00    -0.122 NA
ATOM     26  C   UNL     1       0.002  -0.004   0.002  0.00  0.00    +0.193 A 
BRANCH  23  27
ATOM     27  C   UNL     1      -1.362  -3.359  -0.003  0.00  0.00    +0.056 A 
ATOM     28  C   UNL     1      -0.943  -4.640   0.257  0.00  0.00    +0.019 A 
ATOM     29  C   UNL     1      -1.865  -5.661   0.201  0.00  0.00    +0.008 A 
ATOM     30  C   UNL     1      -3.154  -5.372  -0.118  0.00  0.00    +0.046 A 
ATOM     31  S   UNL     1      -3.097  -3.603  -0.347  0.00  0.00    -0.094 S 
ENDBRANCH  23  27
BRANCH  22  33
ATOM     32  C   UNL     1      -3.010  -0.289  -1.398  0.00  0.00    +0.027 C 
ATOM     33  C   UNL     1      -2.498  -0.434   0.036  0.00  0.00    +0.122 C 
ENDBRANCH  22  33
ENDBRANCH  21  26
ENDBRANCH  19  21
ENDBRANCH   1  19
TORSDOF 6
