REMARK  Name = ZINC34830286
REMARK  10 active torsions:
REMARK  status: ('A' for Active; 'I' for Inactive)
REMARK    1  A    between atoms: C_1  and  C_2
REMARK    2  A    between atoms: C_7  and  C_8
REMARK    3  A    between atoms: N_17  and  C_18
REMARK    4  A    between atoms: C_18  and  C_19
REMARK    5  A    between atoms: C_19  and  C_20
REMARK    6  A    between atoms: C_26  and  C_29
REMARK    7  A    between atoms: C_30  and  C_32
REMARK    8  A    between atoms: C_32  and  O_33
REMARK    9  A    between atoms: O_33  and  C_34
REMARK   10  A    between atoms: C_34  and  C_35
REMARK                            x       y       z     vdW  Elec       q    Type
REMARK                         _______ _______ _______ _____ _____    ______ ____
ROOT
ATOM      1  C   UNL     1      -2.997  -2.931   4.578  0.00  0.00    +0.214 C 
ATOM      2  O   UNL     1      -3.763  -2.494   3.746  0.00  0.00    -0.276 OA
ATOM      3  N   UNL     1      -3.413  -3.873   5.449  0.00  0.00    -0.298 N 
ATOM      4  C   UNL     1      -2.498  -4.407   6.467  0.00  0.00    +0.127 C 
ATOM      5  C   UNL     1      -2.450  -5.934   6.330  0.00  0.00    +0.127 C 
ATOM      6  N   UNL     1      -3.827  -6.444   6.278  0.00  0.00    -0.294 N 
ATOM      7  C   UNL     1      -4.742  -5.910   5.260  0.00  0.00    +0.090 C 
ATOM      8  C   UNL     1      -4.792  -4.379   5.400  0.00  0.00    +0.130 C 
ATOM      9  C   UNL     1      -4.238  -6.288   3.866  0.00  0.00    +0.029 C 
ATOM     10  C   UNL     1      -4.243  -7.385   7.148  0.00  0.00    +0.242 C 
ATOM     11  O   UNL     1      -5.382  -7.799   7.096  0.00  0.00    -0.273 OA
ENDROOT
BRANCH   1  12
ATOM     12  C   UNL     1      -1.580  -2.422   4.640  0.00  0.00    +0.077 C 
BRANCH  12  13
ATOM     13  C   UNL     1      -1.369  -1.368   3.551  0.00  0.00    -0.068 C 
BRANCH  13  22
ATOM     14  C   UNL     1       0.243   0.050   2.492  0.00  0.00    -0.006 C 
ATOM     15  C   UNL     1       1.644   0.640   2.620  0.00  0.00    -0.047 A 
ATOM     16  C   UNL     1       2.341   1.229   1.568  0.00  0.00    +0.010 A 
ATOM     17  C   UNL     1       3.583   1.725   1.772  0.00  0.00    +0.045 A 
ATOM     18  S   UNL     1       3.839   1.376   3.506  0.00  0.00    -0.101 S 
ATOM     19  C   UNL     1       2.280   0.602   3.825  0.00  0.00    -0.010 A 
ATOM     20  C   UNL     1       1.740   0.030   5.095  0.00  0.00    +0.024 C 
ATOM     21  C   UNL     1       0.230  -0.194   4.897  0.00  0.00    -0.072 C 
ATOM     22  N   UNL     1       0.012  -0.871   3.611  0.00  0.00    +0.388 N 
ATOM     23  H   UNL     1       0.648  -1.651   3.536  0.00  0.00    -0.080 HD
BRANCH  14  30
ATOM     24  C   UNL     1      -0.648   1.422   0.111  0.00  0.00    +0.044 C 
ATOM     25  C   UNL     1      -0.299  -0.043   0.050  0.00  0.00    -0.049 A 
ATOM     26  C   UNL     1      -0.400  -0.728  -1.146  0.00  0.00    +0.003 A 
ATOM     27  C   UNL     1      -0.080  -2.072  -1.202  0.00  0.00    +0.000 A 
ATOM     28  C   UNL     1       0.342  -2.730  -0.061  0.00  0.00    +0.000 A 
ATOM     29  C   UNL     1       0.443  -2.044   1.134  0.00  0.00    +0.002 A 
ATOM     30  C   UNL     1       0.127  -0.699   1.189  0.00  0.00    -0.054 A 
ENDBRANCH  14  30
ENDBRANCH  13  22
ENDBRANCH  12  13
ENDBRANCH   1  12
BRANCH  10  31
ATOM     31  C   UNL     1      -3.293  -7.924   8.187  0.00  0.00    +0.256 C 
BRANCH  31  32
ATOM     32  O   UNL     1      -3.963  -8.903   8.983  0.00  0.00    -0.366 OA
BRANCH  32  33
ATOM     33  C   UNL     1      -3.147  -9.480  10.004  0.00  0.00    +0.195 C 
BRANCH  33  34
ATOM     34  C   UNL     1      -3.951 -10.492  10.778  0.00  0.00    -0.022 A 
ATOM     35  C   UNL     1      -4.670 -10.099  11.891  0.00  0.00    +0.006 A 
ATOM     36  C   UNL     1      -5.407 -11.028  12.601  0.00  0.00    +0.000 A 
ATOM     37  C   UNL     1      -5.426 -12.350  12.198  0.00  0.00    +0.000 A 
ATOM     38  C   UNL     1      -4.708 -12.743  11.085  0.00  0.00    +0.000 A 
ATOM     39  C   UNL     1      -3.974 -11.814  10.372  0.00  0.00    +0.006 A 
ENDBRANCH  33  34
ENDBRANCH  32  33
ENDBRANCH  31  32
ENDBRANCH  10  31
TORSDOF 8
