REMARK  Name = ZINC09545734
REMARK  8 active torsions:
REMARK  status: ('A' for Active; 'I' for Inactive)
REMARK    1  A    between atoms: C_1  and  N_2
REMARK    2  A    between atoms: C_3  and  N_27
REMARK    3  A    between atoms: C_4  and  C_11
REMARK    4  A    between atoms: N_7  and  C_10
REMARK    5  A    between atoms: C_11  and  C_13
REMARK    6  A    between atoms: C_13  and  S_14
REMARK    7  A    between atoms: S_14  and  C_15
REMARK    8  A    between atoms: C_18  and  C_20
REMARK                            x       y       z     vdW  Elec       q    Type
REMARK                         _______ _______ _______ _____ _____    ______ ____
ROOT
ATOM      1  C   UNL     1      -0.014   1.212  -0.013  0.00  0.00    +0.182 C 
ATOM      2  O   UNL     1       0.004  -0.002  -0.004  0.00  0.00    -0.291 OA
ENDROOT
BRANCH   1   6
ATOM      3  C   UNL     1      -4.908   1.203  -0.144  0.00  0.00    +0.155 C 
ATOM      4  N   UNL     1      -3.632   1.917  -0.055  0.00  0.00    -0.284 N 
ATOM      5  C   UNL     1      -2.465   1.207  -0.085  0.00  0.00    +0.116 A 
ATOM      6  C   UNL     1      -1.246   1.900   0.007  0.00  0.00    +0.120 A 
ATOM      7  C   UNL     1      -1.295   3.364   0.120  0.00  0.00    +0.269 A 
ATOM      8  O   UNL     1      -0.270   4.016   0.197  0.00  0.00    -0.267 OA
ATOM      9  N   UNL     1      -2.499   3.971   0.135  0.00  0.00    -0.263 N 
ATOM     10  C   UNL     1      -3.632   3.255   0.049  0.00  0.00    +0.333 A 
ATOM     11  O   UNL     1      -4.697   3.840   0.067  0.00  0.00    -0.246 OA
ATOM     12  C   UNL     1      -2.573   5.429   0.246  0.00  0.00    +0.157 C 
BRANCH   5  13
ATOM     13  N   UNL     1      -2.483  -0.149  -0.197  0.00  0.00    -0.344 N 
ATOM     14  H   UNL     1      -1.656  -0.651  -0.133  0.00  0.00    +0.144 HD
ATOM     15  H   UNL     1      -3.323  -0.612  -0.340  0.00  0.00    +0.144 HD
ENDBRANCH   5  13
ENDBRANCH   1   6
BRANCH   1  16
ATOM     16  C   UNL     1       1.280   1.984  -0.053  0.00  0.00    +0.158 C 
BRANCH  16  17
ATOM     17  S   UNL     1       2.672   0.828  -0.080  0.00  0.00    -0.058 S 
BRANCH  17  18
ATOM     18  C   UNL     1       4.016   1.967  -0.124  0.00  0.00    +0.278 A 
ATOM     19  N   UNL     1       3.923   3.277  -0.138  0.00  0.00    -0.101 NA
ATOM     20  N   UNL     1       5.103   3.789  -0.167  0.00  0.00    -0.106 NA
ATOM     21  C   UNL     1       5.995   2.828  -0.182  0.00  0.00    +0.250 A 
ATOM     22  O   UNL     1       5.325   1.655  -0.155  0.00  0.00    -0.411 OA
BRANCH  21  23
ATOM     23  C   UNL     1       7.462   2.997  -0.221  0.00  0.00    +0.052 A 
ATOM     24  C   UNL     1       8.297   1.878  -0.228  0.00  0.00    +0.014 A 
ATOM     25  C   UNL     1       9.666   2.042  -0.269  0.00  0.00    +0.001 A 
ATOM     26  C   UNL     1      10.213   3.313  -0.294  0.00  0.00    +0.001 A 
ATOM     27  C   UNL     1       9.393   4.427  -0.282  0.00  0.00    +0.016 A 
ATOM     28  C   UNL     1       8.021   4.277  -0.246  0.00  0.00    +0.030 A 
ATOM     29 BR   UNL     1       6.901   5.801  -0.229  0.00  0.00    -0.050 Br
ENDBRANCH  21  23
ENDBRANCH  17  18
ENDBRANCH  16  17
ENDBRANCH   1  16
TORSDOF 6
