REMARK  Name = ZINC13690623
REMARK  10 active torsions:
REMARK  status: ('A' for Active; 'I' for Inactive)
REMARK    1  A    between atoms: C_1  and  C_2
REMARK    2  A    between atoms: C_3  and  C_21
REMARK    3  A    between atoms: C_9  and  O_19
REMARK    4  A    between atoms: C_15  and  C_17
REMARK    5  A    between atoms: C_15  and  C_18
REMARK    6  A    between atoms: O_19  and  C_20
REMARK    7  A    between atoms: C_21  and  C_22
REMARK    8  A    between atoms: C_22  and  C_23
REMARK    9  A    between atoms: N_25  and  C_26
REMARK   10  A    between atoms: C_33  and  O_35
REMARK                            x       y       z     vdW  Elec       q    Type
REMARK                         _______ _______ _______ _____ _____    ______ ____
ROOT
ATOM      1  C   UNL     1       6.231   1.069  -3.965  0.00  0.00    +0.045 C 
ATOM      2  C   UNL     1       5.399   1.751  -2.911  0.00  0.00    -0.026 A 
ATOM      3  C   UNL     1       5.828   2.897  -2.318  0.00  0.00    +0.041 A 
ATOM      4  C   UNL     1       5.030   3.514  -1.335  0.00  0.00    +0.341 A 
ATOM      5  O   UNL     1       5.428   4.540  -0.813  0.00  0.00    -0.245 OA
ATOM      6  O   UNL     1       3.850   3.010  -0.956  0.00  0.00    -0.421 OA
ATOM      7  C   UNL     1       3.395   1.873  -1.524  0.00  0.00    +0.149 A 
ATOM      8  C   UNL     1       4.148   1.215  -2.511  0.00  0.00    +0.063 A 
ATOM      9  C   UNL     1       3.658   0.033  -3.093  0.00  0.00    +0.134 A 
ATOM     10  C   UNL     1       2.439  -0.469  -2.689  0.00  0.00    +0.092 A 
ATOM     11  C   UNL     1       1.691   0.187  -1.709  0.00  0.00    +0.131 A 
ATOM     12  C   UNL     1       2.168   1.349  -1.129  0.00  0.00    +0.038 A 
ATOM     13  C   UNL     1       1.389   2.072  -0.059  0.00  0.00    +0.046 C 
ATOM     14  C   UNL     1      -0.070   1.609  -0.081  0.00  0.00    +0.052 C 
ATOM     15  C   UNL     1      -0.087   0.075  -0.119  0.00  0.00    +0.105 C 
ATOM     16  O   UNL     1       0.496  -0.349  -1.352  0.00  0.00    -0.486 OA
ATOM     17  C   UNL     1       0.726  -0.479   1.053  0.00  0.00    +0.055 C 
ATOM     18  C   UNL     1      -1.529  -0.426  -0.031  0.00  0.00    +0.055 C 
ENDROOT
BRANCH   9  19
ATOM     19  O   UNL     1       4.380  -0.610  -4.045  0.00  0.00    -0.494 OA
ATOM     20  C   UNL     1       3.816  -1.806  -4.589  0.00  0.00    +0.277 C 
ENDBRANCH   9  19
BRANCH   3  21
ATOM     21  C   UNL     1       7.150   3.504  -2.711  0.00  0.00    +0.052 C 
BRANCH  21  22
ATOM     22  C   UNL     1       6.938   4.485  -3.865  0.00  0.00    +0.100 C 
BRANCH  22  23
ATOM     23  C   UNL     1       8.260   5.092  -4.258  0.00  0.00    +0.214 C 
ATOM     24  O   UNL     1       9.272   4.772  -3.673  0.00  0.00    -0.276 OA
ATOM     25  N   UNL     1       8.317   5.991  -5.261  0.00  0.00    -0.308 N 
ATOM     26  H   UNL     1       7.508   6.248  -5.729  0.00  0.00    +0.149 HD
BRANCH  25  27
ATOM     27  C   UNL     1       9.603   6.581  -5.643  0.00  0.00    +0.124 C 
ATOM     28  C   UNL     1       9.883   7.819  -4.757  0.00  0.00    +0.190 C 
ATOM     29  S   UNL     1      10.838   8.914  -5.884  0.00  0.00    -0.027 S 
ATOM     30  O   UNL     1      10.100  10.108  -6.104  0.00  0.00    -0.174 OA
ATOM     31  O   UNL     1      12.180   8.997  -5.422  0.00  0.00    -0.174 OA
ATOM     32  C   UNL     1      10.792   7.891  -7.416  0.00  0.00    +0.199 C 
ATOM     33  C   UNL     1       9.554   6.996  -7.123  0.00  0.00    +0.157 C 
BRANCH  33  34
ATOM     34  O   UNL     1       9.593   5.832  -7.952  0.00  0.00    -0.388 OA
ATOM     35  H   UNL     1       9.566   6.023  -8.899  0.00  0.00    +0.210 HD
ENDBRANCH  33  34
ENDBRANCH  25  27
ENDBRANCH  22  23
ENDBRANCH  21  22
ENDBRANCH   3  21
TORSDOF 6
