REMARK  Name = ZINC49526999
REMARK  7 active torsions:
REMARK  status: ('A' for Active; 'I' for Inactive)
REMARK    1  A    between atoms: C_1  and  C_2
REMARK    2  A    between atoms: C_2  and  C_4
REMARK    3  A    between atoms: C_2  and  N_11
REMARK    4  A    between atoms: C_15  and  C_17
REMARK    5  A    between atoms: C_17  and  C_18
REMARK    6  A    between atoms: C_18  and  C_19
REMARK    7  A    between atoms: C_19  and  C_20
REMARK                            x       y       z     vdW  Elec       q    Type
REMARK                         _______ _______ _______ _____ _____    ______ ____
ROOT
ATOM      1  N   UNL     1       0.711  -0.489   1.189  0.00  0.00    -0.293 N 
ATOM      2  C   UNL     1       2.054  -0.600   1.174  0.00  0.00    +0.306 C 
ATOM      3  O   UNL     1       2.677  -0.297   0.175  0.00  0.00    -0.252 OA
ATOM      4  N   UNL     1       2.706  -1.046   2.266  0.00  0.00    -0.240 N 
ATOM      5  C   UNL     1       4.049  -1.157   2.250  0.00  0.00    +0.220 C 
ATOM      6  O   UNL     1       4.671  -0.854   1.254  0.00  0.00    -0.275 OA
ATOM      7  H   UNL     1       0.213  -0.731   1.986  0.00  0.00    +0.151 HD
ATOM      8  H   UNL     1       2.208  -1.288   3.062  0.00  0.00    +0.159 HD
ENDROOT
BRANCH   1  10
ATOM      9  C   UNL     1      -0.019   1.526   0.010  0.00  0.00    +0.033 C 
ATOM     10  C   UNL     1       0.002  -0.004   0.002  0.00  0.00    +0.102 C 
BRANCH  10  11
ATOM     11  C   UNL     1      -1.412  -0.526   0.013  0.00  0.00    -0.027 A 
ATOM     12  C   UNL     1      -2.123  -0.571   1.198  0.00  0.00    +0.006 A 
ATOM     13  C   UNL     1      -3.420  -1.049   1.208  0.00  0.00    +0.015 A 
ATOM     14  C   UNL     1      -4.006  -1.482   0.032  0.00  0.00    +0.018 A 
ATOM     15  C   UNL     1      -3.294  -1.437  -1.153  0.00  0.00    +0.015 A 
ATOM     16  C   UNL     1      -1.999  -0.954  -1.163  0.00  0.00    +0.006 A 
ATOM     17 BR   UNL     1      -5.780  -2.136   0.046  0.00  0.00    -0.050 Br
ENDBRANCH  10  11
ENDBRANCH   1  10
BRANCH   5  18
ATOM     18  C   UNL     1       4.778  -1.656   3.471  0.00  0.00    +0.097 C 
BRANCH  18  19
ATOM     19  C   UNL     1       6.282  -1.685   3.191  0.00  0.00    +0.020 C 
BRANCH  19  20
ATOM     20  C   UNL     1       7.021  -2.192   4.430  0.00  0.00    +0.125 C 
BRANCH  20  21
ATOM     21  C   UNL     1       8.503  -2.221   4.154  0.00  0.00    +0.356 C 
ATOM     22  O   UNL     1       8.927  -1.869   3.067  0.00  0.00    -0.246 OA
ATOM     23  O   UNL     1       9.277  -2.597   5.018  0.00  0.00    -0.246 OA
ENDBRANCH  20  21
ENDBRANCH  19  20
ENDBRANCH  18  19
ENDBRANCH   5  18
TORSDOF 6
