REMARK  Name = ZINC00838634
REMARK  13 active torsions:
REMARK  status: ('A' for Active; 'I' for Inactive)
REMARK    1  A    between atoms: C_1  and  C_2
REMARK    2  A    between atoms: C_3  and  C_34
REMARK    3  A    between atoms: C_4  and  C_25
REMARK    4  A    between atoms: C_10  and  C_15
REMARK    5  A    between atoms: C_18  and  O_23
REMARK    6  A    between atoms: C_19  and  O_21
REMARK    7  A    between atoms: O_21  and  C_22
REMARK    8  A    between atoms: O_23  and  C_24
REMARK    9  A    between atoms: C_28  and  O_32
REMARK   10  A    between atoms: C_29  and  O_31
REMARK   11  A    between atoms: O_32  and  C_33
REMARK   12  A    between atoms: C_34  and  O_36
REMARK   13  A    between atoms: O_36  and  C_37
REMARK                            x       y       z     vdW  Elec       q    Type
REMARK                         _______ _______ _______ _____ _____    ______ ____
ROOT
ATOM      1  C   UNL     1       2.362  -0.233   0.196  0.00  0.00    +0.061 C 
ATOM      2  C   UNL     1       2.365   1.271   0.094  0.00  0.00    +0.016 C 
ATOM      3  C   UNL     1       1.217   1.926  -0.148  0.00  0.00    +0.065 C 
ATOM      4  C   UNL     1       1.182   3.422  -0.259  0.00  0.00    +0.092 C 
ATOM      5  C   UNL     1       2.422   4.038   0.339  0.00  0.00    +0.024 C 
ATOM      6  C   UNL     1       3.525   3.292   0.559  0.00  0.00    +0.016 C 
ATOM      7  N   UNL     1       3.537   1.959   0.243  0.00  0.00    -0.321 N 
ATOM      8  C   UNL     1       4.769   3.900   1.159  0.00  0.00    +0.059 C 
ATOM      9  C   UNL     1       4.867   5.372   0.756  0.00  0.00    +0.032 C 
ATOM     10  C   UNL     1       3.604   6.094   1.238  0.00  0.00    +0.088 C 
ATOM     11  C   UNL     1       2.397   5.407   0.657  0.00  0.00    +0.162 C 
ATOM     12  O   UNL     1       1.384   6.048   0.460  0.00  0.00    -0.292 OA
ATOM     13  H   UNL     1       4.499   1.443   0.110  0.00  0.00    +0.152 HD
ENDROOT
BRANCH   9  14
ATOM     14  C   UNL     1       6.081   5.993   1.399  0.00  0.00    -0.040 A 
ATOM     15  C   UNL     1       6.205   5.999   2.775  0.00  0.00    +0.008 A 
ATOM     16  C   UNL     1       7.317   6.567   3.370  0.00  0.00    +0.049 A 
ATOM     17  C   UNL     1       8.309   7.133   2.585  0.00  0.00    +0.161 A 
ATOM     18  C   UNL     1       8.183   7.127   1.199  0.00  0.00    +0.162 A 
ATOM     19  C   UNL     1       7.069   6.551   0.610  0.00  0.00    +0.053 A 
BRANCH  18  20
ATOM     20  O   UNL     1       9.154   7.682   0.425  0.00  0.00    -0.491 OA
ATOM     21  C   UNL     1       8.958   7.640  -0.990  0.00  0.00    +0.277 C 
ENDBRANCH  18  20
BRANCH  17  22
ATOM     22  O   UNL     1       9.402   7.692   3.168  0.00  0.00    -0.491 OA
ATOM     23  C   UNL     1       9.464   7.662   4.595  0.00  0.00    +0.277 C 
ENDBRANCH  17  22
ENDBRANCH   9  14
BRANCH   4  24
ATOM     24  C   UNL     1       1.090   3.809  -1.713  0.00  0.00    -0.032 A 
ATOM     25  C   UNL     1       2.086   3.427  -2.592  0.00  0.00    +0.008 A 
ATOM     26  C   UNL     1       2.006   3.779  -3.927  0.00  0.00    +0.050 A 
ATOM     27  C   UNL     1       0.927   4.517  -4.385  0.00  0.00    +0.161 A 
ATOM     28  C   UNL     1      -0.075   4.902  -3.500  0.00  0.00    +0.159 A 
ATOM     29  C   UNL     1       0.008   4.541  -2.165  0.00  0.00    +0.053 A 
BRANCH  28  30
ATOM     30  O   UNL     1      -1.136   5.627  -3.945  0.00  0.00    -0.503 OA
ATOM     31  H   UNL     1      -1.928   5.930  -3.244  0.00  0.00    +0.292 HD
ENDBRANCH  28  30
BRANCH  27  32
ATOM     32  O   UNL     1       0.848   4.865  -5.698  0.00  0.00    -0.491 OA
ATOM     33  C   UNL     1       1.913   4.435  -6.548  0.00  0.00    +0.277 C 
ENDBRANCH  27  32
ENDBRANCH   4  24
BRANCH   3  34
ATOM     34  C   UNL     1       0.017   1.192  -0.297  0.00  0.00    +0.337 C 
ATOM     35  O   UNL     1      -0.811   1.193   0.595  0.00  0.00    -0.245 OA
BRANCH  34  36
ATOM     36  O   UNL     1      -0.207   0.486  -1.425  0.00  0.00    -0.465 OA
ATOM     37  C   UNL     1      -1.437  -0.237  -1.504  0.00  0.00    +0.280 C 
ENDBRANCH  34  36
ENDBRANCH   3  34
TORSDOF 8
