REMARK  Name = ZINC15350234
REMARK  12 active torsions:
REMARK  status: ('A' for Active; 'I' for Inactive)
REMARK    1  A    between atoms: C_1  and  C_2
REMARK    2  A    between atoms: C_5  and  C_34
REMARK    3  A    between atoms: C_9  and  C_10
REMARK    4  A    between atoms: C_9  and  N_67
REMARK    5  A    between atoms: N_12  and  C_13
REMARK    6  A    between atoms: N_12  and  C_17
REMARK    7  A    between atoms: C_13  and  C_14
REMARK    8  A    between atoms: C_14  and  C_15
REMARK    9  A    between atoms: C_14  and  C_16
REMARK   10  A    between atoms: C_18  and  N_33
REMARK   11  A    between atoms: N_19  and  C_26
REMARK   12  A    between atoms: C_26  and  C_27
REMARK                            x       y       z     vdW  Elec       q    Type
REMARK                         _______ _______ _______ _____ _____    ______ ____
ROOT
ATOM      1  C   UNL     1       4.298   3.252  -3.155  0.00  0.00    +0.140 A 
ATOM      2  C   UNL     1       2.957   3.555  -3.271  0.00  0.00    +0.128 A 
ATOM      3  N   UNL     1       2.354   4.317  -2.297  0.00  0.00    -0.276 N 
ATOM      4  C   UNL     1       3.061   4.752  -1.238  0.00  0.00    +0.331 A 
ATOM      5  O   UNL     1       2.508   5.420  -0.386  0.00  0.00    -0.246 OA
ATOM      6  N   UNL     1       4.367   4.462  -1.106  0.00  0.00    -0.273 N 
ATOM      7  H   UNL     1       4.869   4.798  -0.309  0.00  0.00    +0.173 HD
ATOM      8  C   UNL     1       5.007   3.724  -2.034  0.00  0.00    +0.277 A 
ATOM      9  O   UNL     1       6.191   3.466  -1.903  0.00  0.00    -0.266 OA
ENDROOT
BRANCH   1  12
ATOM     10  C   UNL     1       5.379   1.234  -3.843  0.00  0.00    +0.203 C 
ATOM     11  O   UNL     1       6.014   0.601  -4.660  0.00  0.00    -0.277 OA
ATOM     12  N   UNL     1       4.947   2.477  -4.139  0.00  0.00    -0.266 N 
BRANCH  10  13
ATOM     13  C   UNL     1       5.072   0.631  -2.496  0.00  0.00    +0.019 C 
BRANCH  13  21
ATOM     14  C   UNL     1       4.581  -3.869  -4.419  0.00  0.00    +0.005 C 
ATOM     15  C   UNL     1       5.387  -2.997  -3.454  0.00  0.00    -0.031 C 
ATOM     16  C   UNL     1       5.346  -3.613  -2.053  0.00  0.00    +0.003 C 
ATOM     17  C   UNL     1       6.104  -2.703  -1.082  0.00  0.00    -0.031 C 
ATOM     18  C   UNL     1       5.476  -1.308  -1.103  0.00  0.00    -0.075 C 
ATOM     19  C   UNL     1       4.780  -1.593  -3.406  0.00  0.00    -0.075 C 
ATOM     20  C   UNL     1       7.571  -2.610  -1.508  0.00  0.00    +0.005 C 
ATOM     21  N   UNL     1       5.569  -0.761  -2.474  0.00  0.00    +0.386 N 
ATOM     22  H   UNL     1       6.552  -0.769  -2.770  0.00  0.00    -0.081 HD
ENDBRANCH  13  21
ENDBRANCH  10  13
BRANCH  12  23
ATOM     23  C   UNL     1       5.151   3.022  -5.484  0.00  0.00    +0.117 C 
BRANCH  23  24
ATOM     24  C   UNL     1       6.413   3.887  -5.497  0.00  0.00    +0.001 C 
ATOM     25  C   UNL     1       7.637   3.007  -5.233  0.00  0.00    +0.009 C 
ATOM     26  C   UNL     1       6.555   4.562  -6.862  0.00  0.00    +0.009 C 
ENDBRANCH  23  24
ENDBRANCH  12  23
ENDBRANCH   1  12
BRANCH   2  27
ATOM     27  N   UNL     1       2.234   3.106  -4.350  0.00  0.00    -0.343 N 
ATOM     28  H   UNL     1       1.313   3.387  -4.468  0.00  0.00    +0.144 HD
ATOM     29  H   UNL     1       2.644   2.507  -4.993  0.00  0.00    +0.144 HD
ENDBRANCH   2  27
BRANCH   3  30
ATOM     30  C   UNL     1       0.932   4.651  -2.411  0.00  0.00    +0.163 C 
BRANCH  30  31
ATOM     31  C   UNL     1       0.780   5.950  -3.160  0.00  0.00    -0.028 A 
ATOM     32  C   UNL     1       0.650   5.943  -4.537  0.00  0.00    +0.005 A 
ATOM     33  C   UNL     1       0.510   7.134  -5.224  0.00  0.00    +0.000 A 
ATOM     34  C   UNL     1       0.504   8.332  -4.535  0.00  0.00    +0.000 A 
ATOM     35  C   UNL     1       0.629   8.339  -3.159  0.00  0.00    +0.000 A 
ATOM     36  C   UNL     1       0.768   7.148  -2.471  0.00  0.00    +0.005 A 
ENDBRANCH  30  31
ENDBRANCH   3  30
TORSDOF 8
