REMARK  Name = ZINC14157746
REMARK  6 active torsions:
REMARK  status: ('A' for Active; 'I' for Inactive)
REMARK    1  A    between atoms: C_1  and  C_2
REMARK    2  A    between atoms: C_4  and  C_30
REMARK    3  A    between atoms: N_10  and  C_11
REMARK    4  A    between atoms: N_13  and  C_14
REMARK    5  A    between atoms: N_22  and  C_23
REMARK    6  A    between atoms: C_23  and  C_24
REMARK                            x       y       z     vdW  Elec       q    Type
REMARK                         _______ _______ _______ _____ _____    ______ ____
ROOT
ATOM      1  C   UNL     1      -7.706   7.622  -3.534  0.00  0.00    +0.066 C 
ATOM      2  C   UNL     1      -7.248   7.345  -2.125  0.00  0.00    +0.044 A 
ATOM      3  C   UNL     1      -7.938   7.876  -1.046  0.00  0.00    +0.046 A 
ATOM      4  C   UNL     1      -7.483   7.596   0.233  0.00  0.00    +0.044 A 
ATOM      5  N   UNL     1      -6.412   6.835   0.385  0.00  0.00    -0.217 NA
ATOM      6  C   UNL     1      -5.776   6.343  -0.667  0.00  0.00    +0.231 A 
ATOM      7  N   UNL     1      -6.181   6.596  -1.903  0.00  0.00    -0.217 NA
ATOM      8  N   UNL     1      -4.655   5.548  -0.471  0.00  0.00    -0.297 N 
ATOM      9  C   UNL     1      -3.925   5.118  -1.545  0.00  0.00    +0.198 C 
ATOM     10  N   UNL     1      -4.343   5.373  -2.774  0.00  0.00    -0.129 NA
ATOM     11  N   UNL     1      -2.765   4.426  -1.349  0.00  0.00    -0.353 N 
ATOM     12  C   UNL     1      -8.201   8.151   1.436  0.00  0.00    +0.066 C 
ATOM     13  H   UNL     1      -4.389   5.298   0.427  0.00  0.00    +0.171 HD
ATOM     14  H   UNL     1      -2.202   4.199  -2.105  0.00  0.00    +0.163 HD
ENDROOT
BRANCH  10  15
ATOM     15  C   UNL     1      -3.756   4.772  -3.819  0.00  0.00    +0.330 C 
ATOM     16  O   UNL     1      -2.917   3.909  -3.634  0.00  0.00    -0.250 OA
ATOM     17  N   UNL     1      -4.096   5.123  -5.075  0.00  0.00    -0.268 N 
ATOM     18  H   UNL     1      -4.706   5.863  -5.224  0.00  0.00    +0.156 HD
BRANCH  17  19
ATOM     19  C   UNL     1      -3.569   4.421  -6.165  0.00  0.00    +0.036 A 
ATOM     20  C   UNL     1      -3.289   5.087  -7.352  0.00  0.00    +0.025 A 
ATOM     21  C   UNL     1      -2.764   4.393  -8.424  0.00  0.00    +0.023 A 
ATOM     22  C   UNL     1      -2.526   3.034  -8.322  0.00  0.00    +0.059 A 
ATOM     23  C   UNL     1      -2.809   2.367  -7.142  0.00  0.00    +0.061 A 
ATOM     24  C   UNL     1      -3.330   3.058  -6.064  0.00  0.00    +0.044 A 
ATOM     25 CL   UNL     1      -2.509   0.661  -7.016  0.00  0.00    -0.082 Cl
ATOM     26 CL   UNL     1      -1.872   2.164  -9.674  0.00  0.00    -0.082 Cl
ENDBRANCH  17  19
ENDBRANCH  10  15
BRANCH  11  27
ATOM     27  C   UNL     1      -2.371   4.026   0.004  0.00  0.00    +0.152 C 
BRANCH  27  28
ATOM     28  C   UNL     1      -1.006   3.389  -0.038  0.00  0.00    -0.010 A 
ATOM     29  C   UNL     1      -0.877   2.011  -0.130  0.00  0.00    +0.008 A 
ATOM     30  C   UNL     1       0.398   1.468  -0.160  0.00  0.00    +0.020 A 
ATOM     31  C   UNL     1       1.491   2.313  -0.110  0.00  0.00    +0.111 A 
ATOM     32  N   UNL     1       1.330   3.619  -0.028  0.00  0.00    -0.263 NA
ATOM     33  C   UNL     1       0.132   4.170   0.008  0.00  0.00    +0.116 A 
ENDBRANCH  27  28
ENDBRANCH  11  27
TORSDOF 4
