REMARK  Name = ZINC09300996
REMARK  5 active torsions:
REMARK  status: ('A' for Active; 'I' for Inactive)
REMARK    1  A    between atoms: C_1  and  N_47
REMARK    2  A    between atoms: C_9  and  O_29
REMARK    3  A    between atoms: C_11  and  C_14
REMARK    4  A    between atoms: C_17  and  C_19
REMARK    5  A    between atoms: C_22  and  N_26
REMARK                            x       y       z     vdW  Elec       q    Type
REMARK                         _______ _______ _______ _____ _____    ______ ____
ROOT
ATOM      1  C   UNL     1      -1.440  12.574  -3.281  0.00  0.00    -0.096 C 
ATOM      2  C   UNL     1      -3.555  11.640  -2.560  0.00  0.00    -0.074 C 
ATOM      3  C   UNL     1      -4.252  10.320  -2.219  0.00  0.00    +0.018 C 
ATOM      4  C   UNL     1      -3.596   9.745  -0.968  0.00  0.00    -0.027 A 
ATOM      5  C   UNL     1      -2.377  10.190  -0.579  0.00  0.00    -0.021 A 
ATOM      6  S   UNL     1      -2.005   9.270   0.890  0.00  0.00    -0.080 S 
ATOM      7  C   UNL     1      -3.428   8.323   0.978  0.00  0.00    +0.080 A 
ATOM      8  C   UNL     1      -4.191   8.724  -0.127  0.00  0.00    +0.067 A 
ATOM      9  C   UNL     1      -5.515   8.074  -0.310  0.00  0.00    +0.220 C 
ATOM     10  N   UNL     1      -5.774   7.018   0.409  0.00  0.00    -0.220 NA
ATOM     11  C   UNL     1      -4.837   6.389   1.332  0.00  0.00    +0.260 C 
ATOM     12  N   UNL     1      -3.859   7.360   1.857  0.00  0.00    -0.311 N 
ATOM     13  C   UNL     1      -1.550  11.232  -1.263  0.00  0.00    -0.036 C 
ATOM     14  H   UNL     1      -3.539   7.321   2.772  0.00  0.00    +0.149 HD
ATOM     15  N   UNL     1      -2.095  11.420  -2.629  0.00  0.00    +0.381 N 
ATOM     16  H   UNL     1      -1.910  10.575  -3.182  0.00  0.00    -0.082 HD
ENDROOT
BRANCH  11  17
ATOM     17  C   UNL     1      -4.101   5.289   0.612  0.00  0.00    +0.148 A 
ATOM     18  C   UNL     1      -4.581   4.566  -0.418  0.00  0.00    +0.049 A 
ATOM     19  C   UNL     1      -3.570   3.657  -0.791  0.00  0.00    +0.050 A 
ATOM     20  C   UNL     1      -2.521   3.873   0.046  0.00  0.00    +0.137 A 
ATOM     21  O   UNL     1      -2.856   4.867   0.890  0.00  0.00    -0.456 OA
BRANCH  20  22
ATOM     22  C   UNL     1      -1.235   3.145   0.030  0.00  0.00    +0.036 A 
ATOM     23  C   UNL     1      -0.030   3.851   0.023  0.00  0.00    +0.015 A 
ATOM     24  C   UNL     1       1.167   3.166   0.007  0.00  0.00    +0.033 A 
ATOM     25  C   UNL     1       1.177   1.782   0.000  0.00  0.00    +0.128 A 
ATOM     26  C   UNL     1      -0.013   1.076   0.008  0.00  0.00    +0.053 A 
ATOM     27  C   UNL     1      -1.219   1.749   0.017  0.00  0.00    +0.054 A 
ATOM     28 CL   UNL     1      -2.710   0.861   0.020  0.00  0.00    -0.083 Cl
BRANCH  25  29
ATOM     29  N   UNL     1       2.466   1.055  -0.016  0.00  0.00    +0.056 N 
ATOM     30  O   UNL     1       2.478  -0.163  -0.022  0.00  0.00    -0.126 OA
ATOM     31  O   UNL     1       3.514   1.674  -0.022  0.00  0.00    -0.126 OA
ENDBRANCH  25  29
ENDBRANCH  20  22
ENDBRANCH  11  17
BRANCH   9  32
ATOM     32  O   UNL     1      -6.418   8.561  -1.191  0.00  0.00    -0.492 OA
ATOM     33  H   UNL     1      -7.244   8.059  -1.226  0.00  0.00    +0.294 HD
ENDBRANCH   9  32
TORSDOF 4
