REMARK  Name = ZINC20695690
REMARK  5 active torsions:
REMARK  status: ('A' for Active; 'I' for Inactive)
REMARK    1  A    between atoms: C_6  and  S_7
REMARK    2  A    between atoms: S_7  and  N_10
REMARK    3  A    between atoms: N_10  and  C_11
REMARK    4  A    between atoms: C_24  and  C_27
REMARK    5  A    between atoms: C_32  and  O_33
REMARK                            x       y       z     vdW  Elec       q    Type
REMARK                         _______ _______ _______ _____ _____    ______ ____
ROOT
ATOM      1  C   UNL     1       6.334  -1.869  -0.259  0.00  0.00    +0.030 A 
ATOM      2  C   UNL     1       5.883  -0.777   0.457  0.00  0.00    +0.025 A 
ATOM      3  C   UNL     1       5.200   0.244  -0.191  0.00  0.00    +0.031 A 
ATOM      4  C   UNL     1       4.967   0.179  -1.556  0.00  0.00    -0.018 A 
ATOM      5  C   UNL     1       5.424  -0.923  -2.264  0.00  0.00    +0.034 A 
ATOM      6  C   UNL     1       6.102  -1.939  -1.620  0.00  0.00    +0.106 A 
ATOM      7  C   UNL     1       4.241   1.257  -2.296  0.00  0.00    +0.049 C 
ATOM      8  C   UNL     1       2.834   0.834  -2.648  0.00  0.00    -0.023 C 
ATOM      9  C   UNL     1       2.018   1.856  -2.560  0.00  0.00    -0.030 C 
ATOM     10  C   UNL     1       2.772   3.103  -2.141  0.00  0.00    +0.033 C 
ATOM     11  C   UNL     1       4.053   2.539  -1.461  0.00  0.00    +0.029 C 
ATOM     12  C   UNL     1       3.682   2.174  -0.021  0.00  0.00    +0.108 C 
ATOM     13  N   UNL     1       4.748   1.343   0.548  0.00  0.00    -0.336 N 
ATOM     14  H   UNL     1       5.171   1.590   1.533  0.00  0.00    +0.147 HD
ENDROOT
BRANCH  12  15
ATOM     15  C   UNL     1       2.385   1.406  -0.013  0.00  0.00    +0.015 A 
ATOM     16  C   UNL     1       2.396   0.029  -0.129  0.00  0.00    +0.024 A 
ATOM     17  C   UNL     1       1.206  -0.676  -0.122  0.00  0.00    +0.018 A 
ATOM     18  C   UNL     1       0.002  -0.004   0.002  0.00  0.00    +0.019 A 
ATOM     19  C   UNL     1      -0.013   1.372   0.118  0.00  0.00    +0.047 A 
ATOM     20  C   UNL     1       1.179   2.081   0.111  0.00  0.00    +0.122 A 
ATOM     21 BR   UNL     1       1.223  -2.560  -0.282  0.00  0.00    -0.050 Br
BRANCH  20  22
ATOM     22  O   UNL     1       1.167   3.436   0.224  0.00  0.00    -0.506 OA
ATOM     23  H   UNL     1       0.210   3.970   0.322  0.00  0.00    +0.292 HD
ENDBRANCH  20  22
ENDBRANCH  12  15
BRANCH   6  24
ATOM     24  S   UNL     1       6.675  -3.330  -2.537  0.00  0.00    +0.059 S 
ATOM     25  O   UNL     1       6.803  -4.401  -1.612  0.00  0.00    -0.153 OA
ATOM     26  O   UNL     1       5.856  -3.418  -3.695  0.00  0.00    -0.153 OA
BRANCH  24  27
ATOM     27  N   UNL     1       8.204  -2.974  -3.064  0.00  0.00    -0.187 NA
ATOM     28  H   UNL     1       8.361  -2.716  -4.121  0.00  0.00    +0.148 HD
BRANCH  27  29
ATOM     29  C   UNL     1       9.288  -2.792  -2.095  0.00  0.00    +0.077 C 
ATOM     30  C   UNL     1       9.444  -1.303  -1.779  0.00  0.00    +0.020 C 
ATOM     31  C   UNL     1      10.577  -1.112  -0.768  0.00  0.00    +0.002 C 
ATOM     32  C   UNL     1      11.883  -1.648  -1.358  0.00  0.00    +0.000 C 
ATOM     33  C   UNL     1      11.727  -3.137  -1.674  0.00  0.00    +0.002 C 
ATOM     34  C   UNL     1      10.594  -3.328  -2.685  0.00  0.00    +0.020 C 
ENDBRANCH  27  29
ENDBRANCH  24  27
ENDBRANCH   6  24
TORSDOF 5
