REMARK  Name = ZINC01445511
REMARK  8 active torsions:
REMARK  status: ('A' for Active; 'I' for Inactive)
REMARK    1  A    between atoms: C_1  and  C_2
REMARK    2  A    between atoms: C_2  and  O_3
REMARK    3  A    between atoms: O_3  and  C_4
REMARK    4  A    between atoms: C_4  and  C_6
REMARK    5  A    between atoms: C_7  and  N_34
REMARK    6  A    between atoms: N_8  and  C_25
REMARK    7  A    between atoms: C_11  and  C_13
REMARK    8  A    between atoms: C_29  and  N_31
REMARK                            x       y       z     vdW  Elec       q    Type
REMARK                         _______ _______ _______ _____ _____    ______ ____
ROOT
ATOM      1  C   UNL     1       1.161   7.251  -0.238  0.00  0.00    +0.084 C 
ATOM      2  C   UNL     1       1.111   5.943   0.134  0.00  0.00    +0.103 C 
ATOM      3  N   UNL     1      -0.064   5.239   0.021  0.00  0.00    -0.260 N 
ATOM      4  C   UNL     1      -1.263   5.896  -0.080  0.00  0.00    +0.024 C 
ATOM      5  C   UNL     1      -1.311   7.192  -0.447  0.00  0.00    +0.025 C 
ATOM      6  C   UNL     1      -0.051   7.948  -0.784  0.00  0.00    +0.094 C 
ATOM      7  C   UNL     1      -2.536   7.878  -0.532  0.00  0.00    +0.162 C 
ATOM      8  O   UNL     1      -2.544   9.042  -0.878  0.00  0.00    -0.292 OA
ATOM      9  C   UNL     1      -3.836   7.197  -0.201  0.00  0.00    +0.080 C 
ATOM     10  C   UNL     1      -3.571   6.088   0.824  0.00  0.00    +0.014 C 
ATOM     11  C   UNL     1      -2.526   5.133   0.244  0.00  0.00    +0.052 C 
ENDROOT
BRANCH   6  12
ATOM     12  C   UNL     1       0.075   8.057  -2.282  0.00  0.00    -0.035 A 
ATOM     13  C   UNL     1       0.190   6.913  -3.051  0.00  0.00    +0.005 A 
ATOM     14  C   UNL     1       0.300   7.013  -4.425  0.00  0.00    +0.015 A 
ATOM     15  C   UNL     1       0.306   8.256  -5.030  0.00  0.00    +0.018 A 
ATOM     16  C   UNL     1       0.197   9.400  -4.260  0.00  0.00    +0.015 A 
ATOM     17  C   UNL     1       0.081   9.300  -2.886  0.00  0.00    +0.005 A 
ATOM     18 BR   UNL     1       0.465   8.393  -6.910  0.00  0.00    -0.050 Br
ENDBRANCH   6  12
BRANCH   3  19
ATOM     19  C   UNL     1      -0.035   3.839   0.002  0.00  0.00    +0.042 A 
ATOM     20  C   UNL     1       0.325   3.135   1.143  0.00  0.00    +0.024 A 
ATOM     21  C   UNL     1       0.347   1.754   1.123  0.00  0.00    +0.004 A 
ATOM     22  C   UNL     1       0.021   1.073  -0.036  0.00  0.00    +0.033 A 
ATOM     23  C   UNL     1      -0.338   1.771  -1.174  0.00  0.00    +0.128 A 
ATOM     24  C   UNL     1      -0.367   3.152  -1.159  0.00  0.00    +0.056 A 
BRANCH  23  25
ATOM     25  N   UNL     1      -0.691   1.038  -2.410  0.00  0.00    +0.056 N 
ATOM     26  O   UNL     1      -0.666  -0.179  -2.425  0.00  0.00    -0.126 OA
ATOM     27  O   UNL     1      -1.008   1.653  -3.413  0.00  0.00    -0.126 OA
ENDBRANCH  23  25
ENDBRANCH   3  19
BRANCH   2  28
ATOM     28  N   UNL     1       2.234   5.327   0.623  0.00  0.00    -0.346 N 
ATOM     29  H   UNL     1       2.393   4.388   0.435  0.00  0.00    +0.143 HD
ATOM     30  H   UNL     1       2.869   5.829   1.157  0.00  0.00    +0.143 HD
ENDBRANCH   2  28
BRANCH   1  31
ATOM     31  C   UNL     1       2.365   7.960  -0.110  0.00  0.00    +0.339 C 
ATOM     32  O   UNL     1       3.377   7.381   0.241  0.00  0.00    -0.245 OA
BRANCH  31  33
ATOM     33  O   UNL     1       2.401   9.283  -0.375  0.00  0.00    -0.462 OA
BRANCH  33  35
ATOM     34  C   UNL     1       3.506  11.425  -0.566  0.00  0.00    +0.048 C 
ATOM     35  C   UNL     1       3.660   9.941  -0.224  0.00  0.00    +0.229 C 
ENDBRANCH  33  35
ENDBRANCH  31  33
ENDBRANCH   1  31
TORSDOF 7
