REMARK  Name = ZINC59122854
REMARK  14 active torsions:
REMARK  status: ('A' for Active; 'I' for Inactive)
REMARK    1  A    between atoms: C_1  and  C_2
REMARK    2  A    between atoms: C_7  and  C_8
REMARK    3  A    between atoms: C_8  and  N_9
REMARK    4  A    between atoms: C_12  and  N_15
REMARK    5  A    between atoms: C_16  and  C_18
REMARK    6  A    between atoms: C_18  and  C_19
REMARK    7  A    between atoms: C_19  and  N_20
REMARK    8  A    between atoms: N_20  and  S_21
REMARK    9  A    between atoms: S_21  and  C_24
REMARK   10  A    between atoms: C_25  and  C_34
REMARK   11  A    between atoms: C_26  and  C_33
REMARK   12  A    between atoms: C_27  and  C_32
REMARK   13  A    between atoms: C_28  and  C_31
REMARK   14  A    between atoms: C_29  and  C_30
REMARK                            x       y       z     vdW  Elec       q    Type
REMARK                         _______ _______ _______ _____ _____    ______ ____
ROOT
ATOM      1  N   UNL     1      -4.783  -0.547   6.331  0.00  0.00    -0.313 N 
ATOM      2  C   UNL     1      -5.365   0.158   7.321  0.00  0.00    +0.215 C 
ATOM      3  O   UNL     1      -4.915   0.107   8.446  0.00  0.00    -0.276 OA
ATOM      4  H   UNL     1      -5.143  -0.507   5.431  0.00  0.00    +0.149 HD
ENDROOT
BRANCH   1   8
ATOM      5  N   UNL     1      -1.068  -2.439   5.714  0.00  0.00    +0.382 N 
ATOM      6  C   UNL     1      -2.241  -3.313   5.833  0.00  0.00    -0.077 C 
ATOM      7  C   UNL     1      -3.514  -2.501   5.580  0.00  0.00    +0.003 C 
ATOM      8  C   UNL     1      -3.607  -1.374   6.613  0.00  0.00    +0.069 C 
ATOM      9  C   UNL     1      -2.344  -0.513   6.530  0.00  0.00    +0.003 C 
ATOM     10  C   UNL     1      -1.115  -1.398   6.748  0.00  0.00    -0.077 C 
ATOM     11  H   UNL     1      -1.064  -2.006   4.802  0.00  0.00    -0.081 HD
BRANCH   5  12
ATOM     12  C   UNL     1       0.154  -3.237   5.880  0.00  0.00    -0.043 C 
BRANCH  12  19
ATOM     13  C   UNL     1       1.150  -2.381   3.307  0.00  0.00    +0.044 C 
ATOM     14  C   UNL     1       0.742  -3.816   3.517  0.00  0.00    -0.049 A 
ATOM     15  C   UNL     1       0.850  -4.724   2.480  0.00  0.00    +0.003 A 
ATOM     16  C   UNL     1       0.476  -6.041   2.673  0.00  0.00    +0.000 A 
ATOM     17  C   UNL     1      -0.005  -6.450   3.903  0.00  0.00    +0.000 A 
ATOM     18  C   UNL     1      -0.112  -5.542   4.940  0.00  0.00    +0.002 A 
ATOM     19  C   UNL     1       0.266  -4.226   4.748  0.00  0.00    -0.061 A 
ENDBRANCH  12  19
ENDBRANCH   5  12
ENDBRANCH   1   8
BRANCH   2  20
ATOM     20  C   UNL     1      -6.575   1.008   7.031  0.00  0.00    +0.112 C 
BRANCH  20  21
ATOM     21  C   UNL     1      -7.035   1.697   8.317  0.00  0.00    +0.115 C 
BRANCH  21  22
ATOM     22  N   UNL     1      -8.210   2.524   8.034  0.00  0.00    -0.189 NA
ATOM     23  H   UNL     1      -8.442   2.741   7.118  0.00  0.00    +0.148 HD
BRANCH  22  24
ATOM     24  S   UNL     1      -9.145   3.088   9.280  0.00  0.00    +0.059 S 
ATOM     25  O   UNL     1     -10.177   3.869   8.693  0.00  0.00    -0.153 OA
ATOM     26  O   UNL     1      -9.416   1.975  10.121  0.00  0.00    -0.153 OA
BRANCH  24  27
ATOM     27  C   UNL     1      -8.147   4.197  10.219  0.00  0.00    +0.112 A 
ATOM     28  C   UNL     1      -8.246   5.560  10.011  0.00  0.00    -0.021 A 
ATOM     29  C   UNL     1      -7.463   6.430  10.747  0.00  0.00    -0.043 A 
ATOM     30  C   UNL     1      -6.583   5.936  11.692  0.00  0.00    -0.044 A 
ATOM     31  C   UNL     1      -6.485   4.574  11.900  0.00  0.00    -0.043 A 
ATOM     32  C   UNL     1      -7.270   3.704  11.167  0.00  0.00    -0.021 A 
ATOM     33  C   UNL     1      -7.167   2.218  11.398  0.00  0.00    +0.046 C 
ATOM     34  C   UNL     1      -5.524   4.036  12.929  0.00  0.00    +0.044 C 
ATOM     35  C   UNL     1      -5.729   6.885  12.494  0.00  0.00    +0.044 C 
ATOM     36  C   UNL     1      -7.570   7.916  10.520  0.00  0.00    +0.044 C 
ATOM     37  C   UNL     1      -9.206   6.098   8.981  0.00  0.00    +0.046 C 
ENDBRANCH  24  27
ENDBRANCH  22  24
ENDBRANCH  21  22
ENDBRANCH  20  21
ENDBRANCH   2  20
TORSDOF 8
