REMARK  Name = ZINC03211208
REMARK  5 active torsions:
REMARK  status: ('A' for Active; 'I' for Inactive)
REMARK    1  A    between atoms: C_1  and  C_2
REMARK    2  A    between atoms: C_4  and  C_19
REMARK    3  A    between atoms: C_7  and  N_8
REMARK    4  A    between atoms: C_9  and  C_10
REMARK    5  A    between atoms: C_15  and  O_16
REMARK                            x       y       z     vdW  Elec       q    Type
REMARK                         _______ _______ _______ _____ _____    ______ ____
ROOT
ATOM      1  C   UNL     1       7.096   1.652   0.124  0.00  0.00    +0.046 C 
ATOM      2  C   UNL     1       7.194   0.148   0.104  0.00  0.00    -0.024 A 
ATOM      3  C   UNL     1       8.416  -0.458   0.167  0.00  0.00    +0.018 A 
ATOM      4  C   UNL     1       8.507  -1.852   0.148  0.00  0.00    +0.037 A 
ATOM      5  C   UNL     1       7.346  -2.627   0.065  0.00  0.00    +0.015 A 
ATOM      6  C   UNL     1       6.123  -2.023   0.008  0.00  0.00    +0.029 A 
ATOM      7  C   UNL     1       6.032  -0.627   0.021  0.00  0.00    +0.067 A 
ENDROOT
BRANCH   4   8
ATOM      8  C   UNL     1       9.828  -2.507   0.217  0.00  0.00    +0.228 A 
ATOM      9  N   UNL     1      10.027  -3.801   0.207  0.00  0.00    -0.209 NA
ATOM     10  C   UNL     1      11.361  -4.039   0.283  0.00  0.00    +0.110 A 
ATOM     11  C   UNL     1      12.134  -5.203   0.309  0.00  0.00    +0.031 A 
ATOM     12  C   UNL     1      13.505  -5.111   0.394  0.00  0.00    +0.002 A 
ATOM     13  C   UNL     1      14.123  -3.870   0.453  0.00  0.00    +0.004 A 
ATOM     14  C   UNL     1      13.373  -2.712   0.427  0.00  0.00    +0.048 A 
ATOM     15  C   UNL     1      11.991  -2.785   0.344  0.00  0.00    +0.156 A 
ATOM     16  O   UNL     1      11.007  -1.860   0.294  0.00  0.00    -0.435 OA
ENDBRANCH   4   8
BRANCH   7  17
ATOM     17  N   UNL     1       4.810  -0.021  -0.043  0.00  0.00    -0.255 NA
ATOM     18  C   UNL     1       3.843  -0.420   0.738  0.00  0.00    +0.123 C 
BRANCH  18  19
ATOM     19  C   UNL     1       2.497   0.151   0.591  0.00  0.00    +0.037 A 
ATOM     20  C   UNL     1       1.457  -0.274   1.426  0.00  0.00    +0.028 A 
ATOM     21  C   UNL     1       0.197   0.267   1.283  0.00  0.00    +0.020 A 
ATOM     22  C   UNL     1      -0.045   1.230   0.316  0.00  0.00    +0.039 A 
ATOM     23  C   UNL     1       0.972   1.659  -0.516  0.00  0.00    +0.084 A 
ATOM     24  C   UNL     1       2.247   1.126  -0.387  0.00  0.00    +0.144 A 
ATOM     25 CL   UNL     1       0.655   2.866  -1.722  0.00  0.00    -0.080 Cl
ATOM     26 BR   UNL     1      -1.207  -0.308   2.411  0.00  0.00    -0.050 Br
BRANCH  24  27
ATOM     27  O   UNL     1       3.247   1.546  -1.203  0.00  0.00    -0.505 OA
ATOM     28  H   UNL     1       3.330   1.034  -2.018  0.00  0.00    +0.292 HD
ENDBRANCH  24  27
ENDBRANCH  18  19
ENDBRANCH   7  17
TORSDOF 4
