REMARK  Name = ZINC09706014
REMARK  15 active torsions:
REMARK  status: ('A' for Active; 'I' for Inactive)
REMARK    1  A    between atoms: C_1  and  C_2
REMARK    2  A    between atoms: C_2  and  N_69
REMARK    3  A    between atoms: C_3  and  C_4
REMARK    4  A    between atoms: C_3  and  N_69
REMARK    5  A    between atoms: C_5  and  C_6
REMARK    6  A    between atoms: C_5  and  N_69
REMARK    7  A    between atoms: C_6  and  C_7
REMARK    8  A    between atoms: C_7  and  C_8
REMARK    9  A    between atoms: C_8  and  C_10
REMARK   10  A    between atoms: C_8  and  N_11
REMARK   11  A    between atoms: C_12  and  C_14
REMARK   12  A    between atoms: N_16  and  C_17
REMARK   13  A    between atoms: C_25  and  C_26
REMARK   14  A    between atoms: N_28  and  C_29
REMARK   15  A    between atoms: C_32  and  C_35
REMARK                            x       y       z     vdW  Elec       q    Type
REMARK                         _______ _______ _______ _____ _____    ______ ____
ROOT
ATOM      1  C   UNL     1      -1.030  -1.831  -0.038  0.00  0.00    +0.093 A 
ATOM      2  C   UNL     1      -1.194  -0.534   0.630  0.00  0.00    +0.042 A 
ATOM      3  C   UNL     1      -0.430   0.190   1.545  0.00  0.00    +0.013 A 
ATOM      4  C   UNL     1      -0.873   1.405   1.987  0.00  0.00    +0.001 A 
ATOM      5  C   UNL     1      -2.077   1.922   1.531  0.00  0.00    +0.004 A 
ATOM      6  C   UNL     1      -2.846   1.222   0.627  0.00  0.00    +0.047 A 
ATOM      7  C   UNL     1      -2.416  -0.017   0.164  0.00  0.00    +0.138 A 
ATOM      8  O   UNL     1      -2.937  -0.907  -0.704  0.00  0.00    -0.448 OA
ATOM      9  C   UNL     1      -2.135  -1.987  -0.831  0.00  0.00    +0.212 A 
ENDROOT
BRANCH   1  12
ATOM     10  C   UNL     1       1.280  -2.251   0.284  0.00  0.00    +0.303 C 
ATOM     11  O   UNL     1       1.469  -1.060   0.421  0.00  0.00    -0.265 OA
ATOM     12  N   UNL     1       0.028  -2.718   0.105  0.00  0.00    -0.274 N 
ATOM     13  H   UNL     1      -0.133  -3.675   0.077  0.00  0.00    +0.155 HD
BRANCH  10  15
ATOM     14  N   UNL     1       3.685  -2.732   0.494  0.00  0.00    -0.305 N 
ATOM     15  C   UNL     1       2.433  -3.199   0.315  0.00  0.00    +0.300 C 
ATOM     16  O   UNL     1       2.244  -4.390   0.179  0.00  0.00    -0.265 OA
ATOM     17  H   UNL     1       3.836  -1.780   0.603  0.00  0.00    +0.149 HD
BRANCH  14  18
ATOM     18  C   UNL     1       4.816  -3.661   0.524  0.00  0.00    +0.070 C 
ATOM     19  C   UNL     1       5.283  -3.943  -0.906  0.00  0.00    +0.028 C 
BRANCH  18  20
ATOM     20  C   UNL     1       5.965  -3.042   1.323  0.00  0.00    +0.020 C 
BRANCH  20  21
ATOM     21  C   UNL     1       5.539  -2.875   2.783  0.00  0.00    -0.017 C 
BRANCH  21  22
ATOM     22  C   UNL     1       6.687  -2.255   3.582  0.00  0.00    -0.079 C 
BRANCH  22  23
ATOM     23  N   UNL     1       6.294  -2.194   5.005  0.00  0.00    +0.379 N 
ATOM     24  H   UNL     1       5.317  -1.886   5.069  0.00  0.00    -0.082 HD
BRANCH  23  26
ATOM     25  C   UNL     1       5.797  -3.490   7.019  0.00  0.00    -0.017 C 
ATOM     26  C   UNL     1       6.417  -3.532   5.621  0.00  0.00    -0.082 C 
ENDBRANCH  23  26
BRANCH  23  27
ATOM     27  C   UNL     1       7.151  -1.227   5.724  0.00  0.00    -0.082 C 
ATOM     28  C   UNL     1       6.676   0.189   5.392  0.00  0.00    -0.017 C 
ENDBRANCH  23  27
ENDBRANCH  22  23
ENDBRANCH  21  22
ENDBRANCH  20  21
ENDBRANCH  18  20
ENDBRANCH  14  18
ENDBRANCH  10  15
ENDBRANCH   1  12
BRANCH   9  29
ATOM     29  C   UNL     1      -2.402  -3.140  -1.689  0.00  0.00    +0.285 C 
ATOM     30  O   UNL     1      -1.656  -4.102  -1.666  0.00  0.00    -0.266 OA
ATOM     31  N   UNL     1      -3.476  -3.139  -2.504  0.00  0.00    -0.279 N 
ATOM     32  H   UNL     1      -4.110  -2.406  -2.470  0.00  0.00    +0.155 HD
BRANCH  31  33
ATOM     33  C   UNL     1      -3.678  -4.198  -3.394  0.00  0.00    +0.034 A 
ATOM     34  C   UNL     1      -2.592  -4.910  -3.888  0.00  0.00    +0.023 A 
ATOM     35  C   UNL     1      -2.796  -5.958  -4.763  0.00  0.00    +0.005 A 
ATOM     36  C   UNL     1      -4.079  -6.293  -5.157  0.00  0.00    -0.050 A 
ATOM     37  C   UNL     1      -5.162  -5.582  -4.672  0.00  0.00    +0.005 A 
ATOM     38  C   UNL     1      -4.965  -4.536  -3.792  0.00  0.00    +0.023 A 
ATOM     39  C   UNL     1      -4.297  -7.434  -6.117  0.00  0.00    +0.044 C 
ENDBRANCH  31  33
ENDBRANCH   9  29
TORSDOF 11
