REMARK  Name = ZINC24861038
REMARK  9 active torsions:
REMARK  status: ('A' for Active; 'I' for Inactive)
REMARK    1  A    between atoms: C_1  and  N_2
REMARK    2  A    between atoms: N_2  and  S_3
REMARK    3  A    between atoms: S_3  and  C_6
REMARK    4  A    between atoms: C_9  and  C_12
REMARK    5  A    between atoms: C_13  and  C_14
REMARK    6  A    between atoms: N_16  and  C_17
REMARK    7  A    between atoms: N_16  and  C_18
REMARK    8  A    between atoms: C_18  and  C_19
REMARK    9  A    between atoms: N_21  and  C_22
REMARK                            x       y       z     vdW  Elec       q    Type
REMARK                         _______ _______ _______ _____ _____    ______ ____
ROOT
ATOM      1  C   UNL     1      -8.015  -4.035   5.894  0.00  0.00    +0.240 C 
ATOM      2  O   UNL     1      -7.715  -2.956   5.418  0.00  0.00    -0.271 OA
ATOM      3  N   UNL     1      -8.142  -4.171   7.229  0.00  0.00    -0.292 N 
ATOM      4  C   UNL     1      -8.504  -5.470   7.802  0.00  0.00    +0.133 C 
ENDROOT
BRANCH   1   6
ATOM      5  C   UNL     1      -8.111  -5.050   3.682  0.00  0.00    +0.013 C 
ATOM      6  C   UNL     1      -8.238  -5.186   5.017  0.00  0.00    +0.068 C 
BRANCH   5  10
ATOM      7  C   UNL     1      -8.758  -8.384   1.140  0.00  0.00    +0.105 A 
ATOM      8  C   UNL     1      -8.895  -8.527   2.510  0.00  0.00    +0.029 A 
ATOM      9  C   UNL     1      -8.681  -7.449   3.343  0.00  0.00    +0.010 A 
ATOM     10  C   UNL     1      -8.336  -6.207   2.800  0.00  0.00    -0.025 A 
ATOM     11  C   UNL     1      -8.205  -6.071   1.414  0.00  0.00    +0.010 A 
ATOM     12  C   UNL     1      -8.417  -7.159   0.594  0.00  0.00    +0.029 A 
BRANCH   7  13
ATOM     13  S   UNL     1      -9.028  -9.769   0.084  0.00  0.00    +0.058 S 
ATOM     14  O   UNL     1      -9.378  -9.246  -1.190  0.00  0.00    -0.153 OA
ATOM     15  O   UNL     1      -9.868 -10.666   0.797  0.00  0.00    -0.153 OA
BRANCH  13  17
ATOM     16  C   UNL     1      -6.920 -11.162   1.050  0.00  0.00    +0.127 C 
ATOM     17  N   UNL     1      -7.570 -10.533  -0.103  0.00  0.00    -0.193 NA
ATOM     18  H   UNL     1      -7.023 -10.423  -1.050  0.00  0.00    +0.148 HD
ENDBRANCH  13  17
ENDBRANCH   7  13
ENDBRANCH   5  10
ENDBRANCH   1   6
BRANCH   3  19
ATOM     19  C   UNL     1      -7.919  -3.019   8.107  0.00  0.00    +0.203 C 
BRANCH  19  20
ATOM     20  C   UNL     1      -9.218  -2.284   8.311  0.00  0.00    +0.235 C 
ATOM     21  O   UNL     1     -10.231  -2.683   7.777  0.00  0.00    -0.274 OA
ATOM     22  N   UNL     1      -9.255  -1.184   9.089  0.00  0.00    -0.282 N 
ATOM     23  H   UNL     1      -8.356  -0.869   9.639  0.00  0.00    +0.155 HD
BRANCH  22  24
ATOM     24  C   UNL     1     -10.437  -0.441   9.195  0.00  0.00    +0.070 A 
ATOM     25  C   UNL     1     -10.694   0.590   8.300  0.00  0.00    +0.064 A 
ATOM     26  C   UNL     1     -11.864   1.319   8.405  0.00  0.00    +0.022 A 
ATOM     27  C   UNL     1     -12.773   1.030   9.406  0.00  0.00    +0.003 A 
ATOM     28  C   UNL     1     -12.518   0.008  10.302  0.00  0.00    +0.022 A 
ATOM     29  C   UNL     1     -11.352  -0.728  10.200  0.00  0.00    +0.064 A 
ATOM     30 CL   UNL     1     -11.032  -2.010  11.326  0.00  0.00    -0.082 Cl
ATOM     31 CL   UNL     1      -9.551   0.958   7.046  0.00  0.00    -0.082 Cl
ENDBRANCH  22  24
ENDBRANCH  19  20
ENDBRANCH   3  19
TORSDOF 7
