REMARK  Name = ZINC39671369
REMARK  4 active torsions:
REMARK  status: ('A' for Active; 'I' for Inactive)
REMARK    1  A    between atoms: C_6  and  C_11
REMARK    2  A    between atoms: C_11  and  N_12
REMARK    3  A    between atoms: C_13  and  C_15
REMARK    4  A    between atoms: C_26  and  C_28
REMARK                            x       y       z     vdW  Elec       q    Type
REMARK                         _______ _______ _______ _____ _____    ______ ____
ROOT
ATOM      1  C   UNL     1      -8.311   0.160   3.115  0.00  0.00    +0.100 C 
ATOM      2  C   UNL     1      -7.817   1.334   3.990  0.00  0.00    +0.121 C 
ATOM      3  N   UNL     1      -8.933   2.309   3.973  0.00  0.00    -0.296 N 
ATOM      4  C   UNL     1     -10.155   1.473   4.049  0.00  0.00    +0.115 C 
ATOM      5  C   UNL     1      -9.846   0.253   3.160  0.00  0.00    -0.004 C 
ATOM      6  C   UNL     1     -10.434  -1.013   3.776  0.00  0.00    -0.010 C 
ATOM      7  C   UNL     1     -11.963  -0.922   3.756  0.00  0.00    -0.082 C 
ATOM      8  N   UNL     1     -12.427  -0.766   2.372  0.00  0.00    +0.379 N 
ATOM      9  C   UNL     1     -11.932   0.500   1.818  0.00  0.00    -0.082 C 
ATOM     10  C   UNL     1     -10.403   0.469   1.756  0.00  0.00    -0.010 C 
ATOM     11  C   UNL     1      -8.854   3.653   3.903  0.00  0.00    +0.248 C 
ATOM     12  O   UNL     1      -7.776   4.191   3.747  0.00  0.00    -0.270 OA
ATOM     13  H   UNL     1     -12.083  -1.533   1.814  0.00  0.00    -0.086 HD
ATOM     14  H   UNL     1     -13.436  -0.768   2.355  0.00  0.00    -0.086 HD
ENDROOT
BRANCH  11  15
ATOM     15  C   UNL     1     -10.079   4.471   4.016  0.00  0.00    +0.055 A 
ATOM     16  C   UNL     1     -11.115   4.069   4.862  0.00  0.00    +0.016 A 
ATOM     17  C   UNL     1     -12.255   4.837   4.963  0.00  0.00    +0.021 A 
ATOM     18  C   UNL     1     -12.376   6.006   4.229  0.00  0.00    +0.042 A 
ATOM     19  C   UNL     1     -11.353   6.411   3.388  0.00  0.00    +0.040 A 
ATOM     20  C   UNL     1     -10.203   5.654   3.283  0.00  0.00    +0.054 A 
ATOM     21 CL   UNL     1      -8.917   6.166   2.234  0.00  0.00    -0.083 Cl
ATOM     22 CL   UNL     1     -13.816   6.966   4.363  0.00  0.00    -0.083 Cl
ENDBRANCH  11  15
BRANCH   1  24
ATOM     23  N   UNL     1      -7.575  -0.775   0.947  0.00  0.00    -0.309 N 
ATOM     24  C   UNL     1      -7.817   0.316   1.700  0.00  0.00    +0.219 C 
ATOM     25  O   UNL     1      -7.636   1.423   1.240  0.00  0.00    -0.275 OA
ATOM     26  H   UNL     1      -7.720  -1.660   1.315  0.00  0.00    +0.149 HD
BRANCH  23  27
ATOM     27  C   UNL     1      -7.095  -0.623  -0.429  0.00  0.00    +0.157 C 
BRANCH  27  33
ATOM     28  C   UNL     1      -5.781  -6.083  -2.774  0.00  0.00    +0.001 A 
ATOM     29  C   UNL     1      -7.128  -6.072  -3.106  0.00  0.00    +0.002 A 
ATOM     30  C   UNL     1      -7.924  -4.996  -2.779  0.00  0.00    +0.026 A 
ATOM     31  C   UNL     1      -7.374  -3.909  -2.108  0.00  0.00    +0.047 A 
ATOM     32  N   UNL     1      -7.890  -2.716  -1.653  0.00  0.00    -0.357 N 
ATOM     33  C   UNL     1      -6.905  -1.984  -1.048  0.00  0.00    +0.034 A 
ATOM     34  H   UNL     1      -8.813  -2.435  -1.748  0.00  0.00    +0.166 HD
ATOM     35  C   UNL     1      -5.745  -2.658  -1.086  0.00  0.00    +0.032 A 
ATOM     36  C   UNL     1      -6.008  -3.925  -1.773  0.00  0.00    -0.000 A 
ATOM     37  C   UNL     1      -5.221  -5.028  -2.110  0.00  0.00    +0.010 A 
ENDBRANCH  27  33
ENDBRANCH  23  27
ENDBRANCH   1  24
TORSDOF 4
