REMARK  Name = ZINC15947325
REMARK  7 active torsions:
REMARK  status: ('A' for Active; 'I' for Inactive)
REMARK    1  A    between atoms: C_4  and  C_7
REMARK    2  A    between atoms: C_7  and  N_8
REMARK    3  A    between atoms: C_16  and  O_37
REMARK    4  A    between atoms: C_18  and  C_21
REMARK    5  A    between atoms: C_24  and  O_27
REMARK    6  A    between atoms: O_27  and  C_28
REMARK    7  A    between atoms: C_28  and  C_30
REMARK                            x       y       z     vdW  Elec       q    Type
REMARK                         _______ _______ _______ _____ _____    ______ ____
ROOT
ATOM      1  N   UNL     1       4.611  -0.747   1.301  0.00  0.00    +0.386 N 
ATOM      2  C   UNL     1       5.920  -1.410   1.355  0.00  0.00    -0.073 C 
ATOM      3  C   UNL     1       6.435  -1.448   2.798  0.00  0.00    +0.018 C 
ATOM      4  C   UNL     1       5.340  -2.045   3.670  0.00  0.00    -0.027 A 
ATOM      5  C   UNL     1       4.067  -2.109   3.211  0.00  0.00    -0.021 A 
ATOM      6  S   UNL     1       3.151  -2.861   4.526  0.00  0.00    -0.080 S 
ATOM      7  C   UNL     1       4.375  -3.075   5.624  0.00  0.00    +0.080 A 
ATOM      8  C   UNL     1       5.528  -2.579   5.004  0.00  0.00    +0.067 A 
ATOM      9  C   UNL     1       6.802  -2.658   5.764  0.00  0.00    +0.220 C 
ATOM     10  N   UNL     1       6.732  -2.946   7.036  0.00  0.00    -0.223 NA
ATOM     11  C   UNL     1       5.489  -3.132   7.774  0.00  0.00    +0.224 C 
ATOM     12  N   UNL     1       4.402  -3.601   6.896  0.00  0.00    -0.313 N 
ATOM     13  C   UNL     1       3.583  -1.633   1.878  0.00  0.00    -0.035 C 
ATOM     14  H   UNL     1       3.741  -4.244   7.199  0.00  0.00    +0.149 HD
ATOM     15  H   UNL     1       4.649   0.113   1.828  0.00  0.00    -0.081 HD
ENDROOT
BRANCH  11  16
ATOM     16  C   UNL     1       5.086  -1.820   8.397  0.00  0.00    -0.005 A 
ATOM     17  C   UNL     1       3.749  -1.537   8.603  0.00  0.00    +0.011 A 
ATOM     18  C   UNL     1       3.376  -0.335   9.174  0.00  0.00    +0.047 A 
ATOM     19  C   UNL     1       4.346   0.587   9.541  0.00  0.00    +0.132 A 
ATOM     20  C   UNL     1       5.687   0.300   9.333  0.00  0.00    +0.047 A 
ATOM     21  C   UNL     1       6.054  -0.905   8.767  0.00  0.00    +0.011 A 
BRANCH  19  22
ATOM     22  O   UNL     1       3.982   1.770  10.103  0.00  0.00    -0.422 OA
BRANCH  22  23
ATOM     23  C   UNL     1       3.466   1.747  11.347  0.00  0.00    +0.345 C 
ATOM     24  O   UNL     1       3.433   0.706  11.972  0.00  0.00    -0.245 OA
BRANCH  23  25
ATOM     25  C   UNL     1       2.938   2.988  11.950  0.00  0.00    +0.062 A 
ATOM     26  C   UNL     1       2.969   4.185  11.232  0.00  0.00    +0.015 A 
ATOM     27  C   UNL     1       2.475   5.341  11.800  0.00  0.00    +0.004 A 
ATOM     28  C   UNL     1       1.950   5.317  13.080  0.00  0.00    +0.038 A 
ATOM     29  C   UNL     1       1.917   4.134  13.800  0.00  0.00    +0.124 A 
ATOM     30  C   UNL     1       2.402   2.968  13.239  0.00  0.00    +0.053 A 
ATOM     31  F   UNL     1       1.403   4.119  15.049  0.00  0.00    -0.205 F 
ENDBRANCH  23  25
ENDBRANCH  22  23
ENDBRANCH  19  22
ENDBRANCH  11  16
BRANCH   9  32
ATOM     32  O   UNL     1       7.993  -2.439   5.160  0.00  0.00    -0.492 OA
ATOM     33  H   UNL     1       8.754  -2.517   5.752  0.00  0.00    +0.294 HD
ENDBRANCH   9  32
BRANCH   1  34
ATOM     34  C   UNL     1       4.271  -0.449  -0.097  0.00  0.00    -0.043 C 
BRANCH  34  38
ATOM     35  C   UNL     1       0.639   1.796  -0.234  0.00  0.00    +0.000 A 
ATOM     36  C   UNL     1       1.853   2.450  -0.146  0.00  0.00    +0.000 A 
ATOM     37  C   UNL     1       3.029   1.724  -0.101  0.00  0.00    +0.002 A 
ATOM     38  C   UNL     1       2.990   0.343  -0.144  0.00  0.00    -0.064 A 
ATOM     39  C   UNL     1       1.776  -0.312  -0.231  0.00  0.00    +0.002 A 
ATOM     40  C   UNL     1       0.600   0.414  -0.277  0.00  0.00    +0.000 A 
ENDBRANCH  34  38
ENDBRANCH   1  34
TORSDOF 7
