REMARK  Name = ZINC39667579
REMARK  10 active torsions:
REMARK  status: ('A' for Active; 'I' for Inactive)
REMARK    1  A    between atoms: C_1  and  C_2
REMARK    2  A    between atoms: C_6  and  C_9
REMARK    3  A    between atoms: C_7  and  C_8
REMARK    4  A    between atoms: C_9  and  N_10
REMARK    5  A    between atoms: C_11  and  C_13
REMARK    6  A    between atoms: C_24  and  C_26
REMARK    7  A    between atoms: C_30  and  O_33
REMARK    8  A    between atoms: C_31  and  C_32
REMARK    9  A    between atoms: O_33  and  C_34
REMARK   10  A    between atoms: C_34  and  C_36
REMARK                            x       y       z     vdW  Elec       q    Type
REMARK                         _______ _______ _______ _____ _____    ______ ____
ROOT
ATOM      1  C   UNL     1      -2.645  -4.300   5.117  0.00  0.00    +0.100 C 
ATOM      2  C   UNL     1      -3.673  -4.769   4.064  0.00  0.00    +0.121 C 
ATOM      3  N   UNL     1      -3.766  -6.235   4.258  0.00  0.00    -0.296 N 
ATOM      4  C   UNL     1      -3.715  -6.416   5.729  0.00  0.00    +0.115 C 
ATOM      5  C   UNL     1      -2.677  -5.382   6.210  0.00  0.00    -0.004 C 
ATOM      6  C   UNL     1      -1.306  -6.036   6.347  0.00  0.00    -0.010 C 
ATOM      7  C   UNL     1      -1.349  -7.068   7.478  0.00  0.00    -0.082 C 
ATOM      8  N   UNL     1      -1.725  -6.406   8.733  0.00  0.00    +0.379 N 
ATOM      9  C   UNL     1      -3.083  -5.859   8.623  0.00  0.00    -0.082 C 
ATOM     10  C   UNL     1      -3.114  -4.776   7.541  0.00  0.00    -0.010 C 
ATOM     11  C   UNL     1      -3.874  -7.189   3.312  0.00  0.00    +0.247 C 
ATOM     12  O   UNL     1      -4.036  -8.349   3.634  0.00  0.00    -0.270 OA
ATOM     13  H   UNL     1      -1.694  -7.075   9.487  0.00  0.00    -0.086 HD
ATOM     14  H   UNL     1      -1.077  -5.657   8.924  0.00  0.00    -0.086 HD
ENDROOT
BRANCH  11  15
ATOM     15  C   UNL     1      -3.794  -6.823   1.881  0.00  0.00    +0.043 A 
ATOM     16  C   UNL     1      -4.337  -5.617   1.435  0.00  0.00    +0.013 A 
ATOM     17  C   UNL     1      -4.261  -5.278   0.100  0.00  0.00    +0.004 A 
ATOM     18  C   UNL     1      -3.647  -6.131  -0.800  0.00  0.00    +0.047 A 
ATOM     19  C   UNL     1      -3.105  -7.333  -0.365  0.00  0.00    +0.135 A 
ATOM     20  C   UNL     1      -3.171  -7.680   0.974  0.00  0.00    +0.004 A 
ATOM     21  C   UNL     1      -2.578  -8.981   1.448  0.00  0.00    +0.048 C 
BRANCH  19  22
ATOM     22  O   UNL     1      -2.503  -8.167  -1.254  0.00  0.00    -0.426 OA
BRANCH  22  23
ATOM     23  C   UNL     1      -3.245  -9.141  -1.806  0.00  0.00    +0.309 C 
ATOM     24  O   UNL     1      -4.430  -9.200  -1.579  0.00  0.00    -0.251 OA
ATOM     25  C   UNL     1      -2.598 -10.162  -2.706  0.00  0.00    +0.136 C 
ENDBRANCH  22  23
ENDBRANCH  19  22
ENDBRANCH  11  15
BRANCH   1  27
ATOM     26  N   UNL     1      -0.365  -3.346   5.003  0.00  0.00    -0.311 N 
ATOM     27  C   UNL     1      -1.270  -4.213   4.506  0.00  0.00    +0.218 C 
ATOM     28  O   UNL     1      -0.977  -4.923   3.567  0.00  0.00    -0.275 OA
ATOM     29  H   UNL     1      -0.599  -2.779   5.754  0.00  0.00    +0.149 HD
BRANCH  26  30
ATOM     30  C   UNL     1       0.972  -3.262   4.409  0.00  0.00    +0.139 C 
BRANCH  30  36
ATOM     31  C   UNL     1       3.767  -1.933   8.342  0.00  0.00    +0.044 C 
ATOM     32  C   UNL     1       3.119  -1.590   7.025  0.00  0.00    -0.047 A 
ATOM     33  C   UNL     1       3.270  -0.324   6.491  0.00  0.00    +0.003 A 
ATOM     34  C   UNL     1       2.676  -0.009   5.283  0.00  0.00    +0.001 A 
ATOM     35  C   UNL     1       1.933  -0.960   4.609  0.00  0.00    +0.005 A 
ATOM     36  C   UNL     1       1.783  -2.225   5.143  0.00  0.00    -0.027 A 
ATOM     37  C   UNL     1       2.380  -2.542   6.349  0.00  0.00    -0.043 A 
ATOM     38  C   UNL     1       2.221  -3.924   6.929  0.00  0.00    +0.044 C 
ENDBRANCH  30  36
ENDBRANCH  26  30
ENDBRANCH   1  27
TORSDOF 6
