REMARK  Name = ZINC16566506
REMARK  20 active torsions:
REMARK  status: ('A' for Active; 'I' for Inactive)
REMARK    1  A    between atoms: C_1  and  C_2
REMARK    2  A    between atoms: C_2  and  C_3
REMARK    3  A    between atoms: C_3  and  N_4
REMARK    4  A    between atoms: N_4  and  C_5
REMARK    5  A    between atoms: C_5  and  C_6
REMARK    6  A    between atoms: N_10  and  C_11
REMARK    7  A    between atoms: C_11  and  C_12
REMARK    8  A    between atoms: C_14  and  C_17
REMARK    9  A    between atoms: N_19  and  C_20
REMARK   10  A    between atoms: C_20  and  C_22
REMARK   11  A    between atoms: C_20  and  C_23
REMARK   12  A    between atoms: C_23  and  C_24
REMARK   13  A    between atoms: C_24  and  C_25
REMARK   14  A    between atoms: C_25  and  N_81
REMARK   15  A    between atoms: C_26  and  C_27
REMARK   16  A    between atoms: C_26  and  N_81
REMARK   17  A    between atoms: C_28  and  C_29
REMARK   18  A    between atoms: C_28  and  N_81
REMARK   19  A    between atoms: C_30  and  C_32
REMARK   20  A    between atoms: C_37  and  C_38
REMARK                            x       y       z     vdW  Elec       q    Type
REMARK                         _______ _______ _______ _____ _____    ______ ____
ROOT
ATOM      1  C   UNL     1       0.979  -2.497   1.977  0.00  0.00    +0.184 C 
ENDROOT
BRANCH   1   6
ATOM      2  C   UNL     1      -1.468  -2.820   1.489  0.00  0.00    +0.036 A 
ATOM      3  C   UNL     1      -2.525  -3.377   2.115  0.00  0.00    +0.024 A 
ATOM      4  C   UNL     1      -2.067  -3.876   3.351  0.00  0.00    +0.019 A 
ATOM      5  C   UNL     1      -0.749  -3.605   3.433  0.00  0.00    +0.086 A 
ATOM      6  N   UNL     1      -0.374  -2.962   2.290  0.00  0.00    -0.343 N 
BRANCH   2   7
ATOM      7  C   UNL     1      -1.492  -2.160   0.134  0.00  0.00    +0.161 C 
BRANCH   7   8
ATOM      8  N   UNL     1      -2.604  -2.698  -0.652  0.00  0.00    -0.292 N 
ATOM      9  C   UNL     1      -3.787  -2.052  -0.677  0.00  0.00    +0.247 C 
ATOM     10  O   UNL     1      -3.902  -0.974  -0.126  0.00  0.00    -0.270 OA
BRANCH   9  11
ATOM     11  C   UNL     1      -4.944  -2.653  -1.373  0.00  0.00    +0.040 A 
ATOM     12  C   UNL     1      -5.379  -3.935  -1.031  0.00  0.00    +0.013 A 
ATOM     13  C   UNL     1      -6.462  -4.488  -1.682  0.00  0.00    +0.001 A 
ATOM     14  C   UNL     1      -7.110  -3.780  -2.679  0.00  0.00    +0.000 A 
ATOM     15  C   UNL     1      -6.680  -2.512  -3.027  0.00  0.00    +0.004 A 
ATOM     16  C   UNL     1      -5.601  -1.945  -2.380  0.00  0.00    -0.038 A 
ATOM     17  C   UNL     1      -5.134  -0.564  -2.760  0.00  0.00    +0.044 C 
ENDBRANCH   9  11
BRANCH   8  18
ATOM     18  C   UNL     1      -2.432  -3.939  -1.411  0.00  0.00    +0.108 C 
BRANCH  18  20
ATOM     19  C   UNL     1      -1.884  -4.900  -3.652  0.00  0.00    +0.005 C 
ATOM     20  C   UNL     1      -2.064  -3.604  -2.858  0.00  0.00    +0.016 C 
ENDBRANCH  18  20
ENDBRANCH   8  18
ENDBRANCH   7   8
ENDBRANCH   2   7
ENDBRANCH   1   6
BRANCH   1  21
ATOM     21  C   UNL     1       1.123  -1.054   2.389  0.00  0.00    +0.099 A 
ATOM     22  N   UNL     1       1.595  -0.568   3.507  0.00  0.00    -0.238 NA
ATOM     23  C   UNL     1       1.643   0.752   3.692  0.00  0.00    +0.133 A 
ATOM     24  C   UNL     1       1.184   1.552   2.677  0.00  0.00    +0.080 A 
ATOM     25  S   UNL     1       0.709   0.373   1.496  0.00  0.00    -0.078 S 
BRANCH  23  26
ATOM     26  C   UNL     1       2.171   1.330   4.940  0.00  0.00    +0.263 C 
ATOM     27  O   UNL     1       2.204   2.537   5.084  0.00  0.00    -0.269 OA
ATOM     28  N   UNL     1       2.616   0.521   5.922  0.00  0.00    -0.307 N 
ATOM     29  H   UNL     1       2.589  -0.442   5.806  0.00  0.00    +0.149 HD
BRANCH  28  30
ATOM     30  C   UNL     1       3.140   1.095   7.163  0.00  0.00    +0.070 C 
ATOM     31  C   UNL     1       1.983   1.380   8.122  0.00  0.00    +0.028 C 
BRANCH  30  32
ATOM     32  C   UNL     1       4.110   0.107   7.813  0.00  0.00    +0.020 C 
BRANCH  32  33
ATOM     33  C   UNL     1       5.329  -0.082   6.907  0.00  0.00    -0.017 C 
BRANCH  33  34
ATOM     34  C   UNL     1       6.299  -1.071   7.557  0.00  0.00    -0.079 C 
BRANCH  34  35
ATOM     35  N   UNL     1       7.511  -1.167   6.716  0.00  0.00    +0.379 N 
ATOM     36  H   UNL     1       7.230  -1.196   5.729  0.00  0.00    -0.082 HD
BRANCH  35  37
ATOM     37  C   UNL     1       8.373   0.013   6.935  0.00  0.00    -0.082 C 
ATOM     38  C   UNL     1       9.499   0.001   5.899  0.00  0.00    -0.017 C 
ENDBRANCH  35  37
BRANCH  35  39
ATOM     39  C   UNL     1       8.254  -2.403   7.040  0.00  0.00    -0.082 C 
ATOM     40  C   UNL     1       7.545  -3.588   6.381  0.00  0.00    -0.017 C 
ENDBRANCH  35  39
ENDBRANCH  34  35
ENDBRANCH  33  34
ENDBRANCH  32  33
ENDBRANCH  30  32
ENDBRANCH  28  30
ENDBRANCH  23  26
ENDBRANCH   1  21
TORSDOF 15
