REMARK  Name = ZINC41586671
REMARK  10 active torsions:
REMARK  status: ('A' for Active; 'I' for Inactive)
REMARK    1  A    between atoms: C_1  and  C_2
REMARK    2  A    between atoms: C_2  and  O_3
REMARK    3  A    between atoms: O_3  and  C_4
REMARK    4  A    between atoms: C_4  and  C_6
REMARK    5  A    between atoms: N_11  and  C_13
REMARK    6  A    between atoms: C_13  and  C_14
REMARK    7  A    between atoms: C_15  and  O_34
REMARK    8  A    between atoms: C_21  and  C_33
REMARK    9  A    between atoms: C_22  and  O_25
REMARK   10  A    between atoms: O_25  and  C_26
REMARK                            x       y       z     vdW  Elec       q    Type
REMARK                         _______ _______ _______ _____ _____    ______ ____
ROOT
ATOM      1  C   UNL     1       2.760  -6.522   4.849  0.00  0.00    +0.020 A 
ATOM      2  C   UNL     1       4.119  -6.767   4.943  0.00  0.00    +0.122 A 
ATOM      3  C   UNL     1       4.677  -7.227   6.134  0.00  0.00    +0.046 A 
ATOM      4  C   UNL     1       3.888  -7.441   7.228  0.00  0.00    +0.019 A 
ATOM      5  C   UNL     1       2.516  -7.199   7.151  0.00  0.00    +0.068 A 
ATOM      6  C   UNL     1       1.945  -6.730   5.954  0.00  0.00    +0.144 A 
ATOM      7  O   UNL     1       0.619  -6.495   5.891  0.00  0.00    -0.456 OA
ATOM      8  C   UNL     1      -0.194  -6.686   6.939  0.00  0.00    +0.148 A 
ATOM      9  C   UNL     1       0.248  -7.127   8.133  0.00  0.00    +0.213 A 
ATOM     10  C   UNL     1       1.631  -7.418   8.307  0.00  0.00    +0.235 A 
ATOM     11  O   UNL     1       2.066  -7.819   9.373  0.00  0.00    -0.283 OA
ATOM     12  C   UNL     1      -1.663  -6.396   6.774  0.00  0.00    +0.090 C 
ENDROOT
BRANCH   2  13
ATOM     13  O   UNL     1       4.916  -6.559   3.864  0.00  0.00    -0.506 OA
ATOM     14  H   UNL     1       5.280  -5.664   3.810  0.00  0.00    +0.292 HD
ENDBRANCH   2  13
BRANCH   1  15
ATOM     15  C   UNL     1       2.168  -6.025   3.556  0.00  0.00    -0.036 C 
BRANCH  15  20
ATOM     16  C   UNL     1       1.446  -2.542   2.358  0.00  0.00    +0.081 C 
ATOM     17  C   UNL     1       2.874  -1.989   2.385  0.00  0.00    +0.011 C 
ATOM     18  C   UNL     1       3.609  -2.560   3.600  0.00  0.00    -0.018 C 
ATOM     19  C   UNL     1       3.580  -4.089   3.535  0.00  0.00    -0.078 C 
ATOM     20  N   UNL     1       2.189  -4.556   3.540  0.00  0.00    +0.383 N 
ATOM     21  C   UNL     1       1.496  -4.072   2.340  0.00  0.00    -0.064 C 
ATOM     22  H   UNL     1       1.720  -4.206   4.362  0.00  0.00    -0.081 HD
BRANCH  16  23
ATOM     23  C   UNL     1       0.737  -2.047   1.124  0.00  0.00    +0.308 C 
ATOM     24  O   UNL     1       0.314  -2.837   0.313  0.00  0.00    -0.251 OA
BRANCH  23  25
ATOM     25  O   UNL     1       0.576  -0.730   0.925  0.00  0.00    -0.465 OA
BRANCH  25  27
ATOM     26  C   UNL     1      -0.192   1.195  -0.318  0.00  0.00    +0.048 C 
ATOM     27  C   UNL     1      -0.104  -0.331  -0.266  0.00  0.00    +0.229 C 
ENDBRANCH  25  27
ENDBRANCH  23  25
ENDBRANCH  16  23
ENDBRANCH  15  20
ENDBRANCH   1  15
BRANCH   9  28
ATOM     28  O   UNL     1      -0.624  -7.303   9.164  0.00  0.00    -0.448 OA
BRANCH  28  29
ATOM     29  C   UNL     1      -0.509  -6.487  10.244  0.00  0.00    +0.143 A 
ATOM     30  C   UNL     1       0.397  -5.436  10.227  0.00  0.00    +0.047 A 
ATOM     31  C   UNL     1       0.512  -4.607  11.326  0.00  0.00    +0.004 A 
ATOM     32  C   UNL     1      -0.275  -4.823  12.442  0.00  0.00    +0.001 A 
ATOM     33  C   UNL     1      -1.178  -5.870  12.463  0.00  0.00    +0.019 A 
ATOM     34  C   UNL     1      -1.301  -6.699  11.364  0.00  0.00    +0.060 A 
ATOM     35 BR   UNL     1      -2.542  -8.125  11.389  0.00  0.00    -0.046 Br
ENDBRANCH  28  29
ENDBRANCH   9  28
TORSDOF 8
