REMARK  Name = ZINC14066285
REMARK  13 active torsions:
REMARK  status: ('A' for Active; 'I' for Inactive)
REMARK    1  A    between atoms: C_1  and  C_2
REMARK    2  A    between atoms: C_2  and  O_3
REMARK    3  A    between atoms: O_3  and  C_4
REMARK    4  A    between atoms: C_4  and  C_6
REMARK    5  A    between atoms: C_8  and  C_27
REMARK    6  A    between atoms: C_10  and  N_11
REMARK    7  A    between atoms: C_12  and  C_14
REMARK    8  A    between atoms: C_14  and  N_57
REMARK    9  A    between atoms: C_15  and  C_16
REMARK   10  A    between atoms: C_15  and  N_57
REMARK   11  A    between atoms: C_16  and  C_17
REMARK   12  A    between atoms: C_20  and  S_23
REMARK   13  A    between atoms: S_23  and  N_26
REMARK                            x       y       z     vdW  Elec       q    Type
REMARK                         _______ _______ _______ _____ _____    ______ ____
ROOT
ATOM      1  N   UNL     1       2.496  -0.213  -0.034  0.00  0.00    -0.281 N 
ATOM      2  C   UNL     1       3.544  -1.060  -0.053  0.00  0.00    +0.201 C 
ATOM      3  O   UNL     1       3.355  -2.258  -0.057  0.00  0.00    -0.278 OA
ATOM      4  H   UNL     1       2.647   0.746  -0.030  0.00  0.00    +0.155 HD
ENDROOT
BRANCH   1   9
ATOM      5  C   UNL     1       0.002  -0.004   0.002  0.00  0.00    +0.088 A 
ATOM      6  C   UNL     1      -1.182  -0.743   0.009  0.00  0.00    +0.033 A 
ATOM      7  C   UNL     1      -1.080  -2.099   0.000  0.00  0.00    +0.022 A 
ATOM      8  S   UNL     1       0.683  -2.362  -0.018  0.00  0.00    -0.073 S 
ATOM      9  C   UNL     1       1.204  -0.710  -0.019  0.00  0.00    +0.086 A 
BRANCH   7  10
ATOM     10  C   UNL     1      -2.163  -3.106   0.005  0.00  0.00    -0.011 A 
ATOM     11  C   UNL     1      -3.498  -2.699   0.027  0.00  0.00    +0.009 A 
ATOM     12  C   UNL     1      -4.504  -3.643   0.026  0.00  0.00    +0.001 A 
ATOM     13  C   UNL     1      -4.191  -4.991   0.016  0.00  0.00    +0.000 A 
ATOM     14  C   UNL     1      -2.870  -5.401  -0.000  0.00  0.00    +0.001 A 
ATOM     15  C   UNL     1      -1.855  -4.467  -0.006  0.00  0.00    +0.009 A 
ENDBRANCH   7  10
BRANCH   5  16
ATOM     16  C   UNL     1      -0.018   1.461   0.010  0.00  0.00    +0.342 C 
ATOM     17  O   UNL     1       1.027   2.083   0.003  0.00  0.00    -0.245 OA
BRANCH  16  18
ATOM     18  O   UNL     1      -1.195   2.119   0.019  0.00  0.00    -0.461 OA
BRANCH  18  20
ATOM     19  C   UNL     1      -2.560   4.136   0.037  0.00  0.00    +0.048 C 
ATOM     20  C   UNL     1      -1.139   3.570   0.027  0.00  0.00    +0.229 C 
ENDBRANCH  18  20
ENDBRANCH  16  18
ENDBRANCH   5  16
ENDBRANCH   1   9
BRANCH   2  21
ATOM     21  C   UNL     1       4.951  -0.519  -0.069  0.00  0.00    +0.015 C 
BRANCH  21  22
ATOM     22  N   UNL     1       5.902  -1.646  -0.089  0.00  0.00    +0.385 N 
ATOM     23  H   UNL     1       5.737  -2.214  -0.928  0.00  0.00    -0.085 HD
ATOM     24  H   UNL     1       5.760  -2.224   0.748  0.00  0.00    -0.085 HD
BRANCH  22  25
ATOM     25  C   UNL     1       7.289  -1.145  -0.105  0.00  0.00    -0.077 C 
BRANCH  25  26
ATOM     26  C   UNL     1       8.252  -2.334  -0.125  0.00  0.00    +0.016 C 
BRANCH  26  27
ATOM     27  C   UNL     1       9.672  -1.831  -0.142  0.00  0.00    -0.049 A 
ATOM     28  C   UNL     1      10.309  -1.599  -1.347  0.00  0.00    +0.005 A 
ATOM     29  C   UNL     1      11.610  -1.133  -1.362  0.00  0.00    +0.029 A 
ATOM     30  C   UNL     1      12.278  -0.908  -0.173  0.00  0.00    +0.105 A 
ATOM     31  C   UNL     1      11.643  -1.145   1.032  0.00  0.00    +0.029 A 
ATOM     32  C   UNL     1      10.340  -1.607   1.047  0.00  0.00    +0.005 A 
BRANCH  30  33
ATOM     33  S   UNL     1      13.938  -0.318  -0.193  0.00  0.00    +0.056 S 
ATOM     34  O   UNL     1      14.120   0.343  -1.438  0.00  0.00    -0.153 OA
ATOM     35  O   UNL     1      14.153   0.331   1.053  0.00  0.00    -0.153 OA
BRANCH  33  36
ATOM     36  N   UNL     1      14.929  -1.645  -0.213  0.00  0.00    -0.204 NA
ATOM     37  H   UNL     1      14.546  -2.536  -0.212  0.00  0.00    +0.144 HD
ATOM     38  H   UNL     1      15.892  -1.531  -0.225  0.00  0.00    +0.144 HD
ENDBRANCH  33  36
ENDBRANCH  30  33
ENDBRANCH  26  27
ENDBRANCH  25  26
ENDBRANCH  22  25
ENDBRANCH  21  22
ENDBRANCH   2  21
TORSDOF 12
