REMARK  Name = ZINC01825866
REMARK  13 active torsions:
REMARK  status: ('A' for Active; 'I' for Inactive)
REMARK    1  A    between atoms: C_1  and  C_2
REMARK    2  A    between atoms: C_3  and  C_31
REMARK    3  A    between atoms: C_9  and  O_13
REMARK    4  A    between atoms: O_13  and  C_14
REMARK    5  A    between atoms: C_14  and  C_15
REMARK    6  A    between atoms: N_17  and  C_18
REMARK    7  A    between atoms: C_18  and  C_20
REMARK    8  A    between atoms: C_18  and  C_24
REMARK    9  A    between atoms: C_20  and  C_21
REMARK   10  A    between atoms: C_21  and  C_22
REMARK   11  A    between atoms: C_21  and  C_23
REMARK   12  A    between atoms: N_26  and  C_27
REMARK   13  A    between atoms: C_27  and  C_28
REMARK                            x       y       z     vdW  Elec       q    Type
REMARK                         _______ _______ _______ _____ _____    ______ ____
ROOT
ATOM      1  C   UNL     1       0.683   2.431   0.806  0.00  0.00    +0.087 C 
ATOM      2  C   UNL     1       0.678   0.974   0.423  0.00  0.00    +0.114 A 
ATOM      3  C   UNL     1      -0.484   0.419  -0.009  0.00  0.00    +0.067 A 
ATOM      4  C   UNL     1      -0.482  -1.013  -0.365  0.00  0.00    +0.200 A 
ATOM      5  O   UNL     1      -1.407  -1.531  -0.967  0.00  0.00    -0.286 OA
ATOM      6  C   UNL     1       0.708  -1.780   0.050  0.00  0.00    +0.065 A 
ATOM      7  C   UNL     1       0.727  -3.174   0.006  0.00  0.00    +0.019 A 
ATOM      8  C   UNL     1       1.846  -3.848   0.405  0.00  0.00    +0.046 A 
ATOM      9  C   UNL     1       2.965  -3.149   0.855  0.00  0.00    +0.125 A 
ATOM     10  C   UNL     1       2.960  -1.766   0.903  0.00  0.00    +0.092 A 
ATOM     11  C   UNL     1       1.833  -1.064   0.497  0.00  0.00    +0.142 A 
ATOM     12  O   UNL     1       1.817   0.284   0.517  0.00  0.00    -0.459 OA
ENDROOT
BRANCH   3  13
ATOM     13  C   UNL     1      -1.721   1.229  -0.119  0.00  0.00    -0.007 A 
ATOM     14  C   UNL     1      -2.307   1.768   1.025  0.00  0.00    +0.012 A 
ATOM     15  C   UNL     1      -3.459   2.521   0.921  0.00  0.00    +0.050 A 
ATOM     16  C   UNL     1      -4.038   2.745  -0.321  0.00  0.00    +0.162 A 
ATOM     17  C   UNL     1      -3.456   2.211  -1.466  0.00  0.00    +0.163 A 
ATOM     18  C   UNL     1      -2.297   1.459  -1.367  0.00  0.00    +0.058 A 
ATOM     19  O   UNL     1      -4.006   2.427  -2.692  0.00  0.00    -0.485 OA
ATOM     20  C   UNL     1      -5.365   2.876  -2.718  0.00  0.00    +0.270 C 
ATOM     21  C   UNL     1      -5.518   4.005  -1.690  0.00  0.00    +0.270 C 
ATOM     22  O   UNL     1      -5.176   3.487  -0.400  0.00  0.00    -0.485 OA
ENDBRANCH   3  13
BRANCH   9  23
ATOM     23  O   UNL     1       4.069  -3.832   1.252  0.00  0.00    -0.483 OA
BRANCH  23  24
ATOM     24  C   UNL     1       4.011  -5.258   1.179  0.00  0.00    +0.324 C 
BRANCH  24  25
ATOM     25  C   UNL     1       5.317  -5.838   1.657  0.00  0.00    +0.251 C 
ATOM     26  O   UNL     1       6.210  -5.104   2.022  0.00  0.00    -0.272 OA
ATOM     27  N   UNL     1       5.493  -7.175   1.677  0.00  0.00    -0.301 N 
ATOM     28  H   UNL     1       4.756  -7.764   1.454  0.00  0.00    +0.150 HD
BRANCH  27  29
ATOM     29  C   UNL     1       6.798  -7.736   2.035  0.00  0.00    +0.159 C 
BRANCH  29  30
ATOM     30  C   UNL     1       6.979  -9.065   1.347  0.00  0.00    +0.234 C 
ATOM     31  O   UNL     1       6.014  -9.664   0.922  0.00  0.00    -0.274 OA
ATOM     32  N   UNL     1       8.213  -9.587   1.204  0.00  0.00    -0.305 N 
ATOM     33  H   UNL     1       8.977  -9.143   1.605  0.00  0.00    +0.149 HD
BRANCH  32  34
ATOM     34  C   UNL     1       8.401 -10.824   0.443  0.00  0.00    +0.199 C 
BRANCH  34  35
ATOM     35  C   UNL     1       9.863 -11.191   0.434  0.00  0.00    +0.228 C 
ATOM     36  O   UNL     1      10.668 -10.488   1.007  0.00  0.00    -0.274 OA
ATOM     37  N   UNL     1      10.275 -12.300  -0.211  0.00  0.00    -0.328 N 
ATOM     38  H   UNL     1       9.632 -12.863  -0.669  0.00  0.00    +0.145 HD
ATOM     39  H   UNL     1      11.216 -12.537  -0.216  0.00  0.00    +0.145 HD
ENDBRANCH  34  35
ENDBRANCH  32  34
ENDBRANCH  29  30
BRANCH  29  40
ATOM     40  C   UNL     1       6.869  -7.933   3.551  0.00  0.00    +0.034 C 
BRANCH  40  41
ATOM     41  C   UNL     1       8.275  -8.395   3.939  0.00  0.00    -0.015 C 
ATOM     42  C   UNL     1       9.275  -7.269   3.668  0.00  0.00    +0.007 C 
ATOM     43  C   UNL     1       8.302  -8.753   5.426  0.00  0.00    +0.007 C 
ENDBRANCH  40  41
ENDBRANCH  29  40
ENDBRANCH  27  29
ENDBRANCH  24  25
ENDBRANCH  23  24
ENDBRANCH   9  23
TORSDOF 10
