REMARK  Name = ZINC43769437
REMARK  10 active torsions:
REMARK  status: ('A' for Active; 'I' for Inactive)
REMARK    1  A    between atoms: C_1  and  C_2
REMARK    2  A    between atoms: C_7  and  C_9
REMARK    3  A    between atoms: C_16  and  C_40
REMARK    4  A    between atoms: C_19  and  O_39
REMARK    5  A    between atoms: C_21  and  C_25
REMARK    6  A    between atoms: C_25  and  C_27
REMARK    7  A    between atoms: C_25  and  C_28
REMARK    8  A    between atoms: N_30  and  C_31
REMARK    9  A    between atoms: N_30  and  C_32
REMARK   10  A    between atoms: C_32  and  C_33
REMARK                            x       y       z     vdW  Elec       q    Type
REMARK                         _______ _______ _______ _____ _____    ______ ____
ROOT
ATOM      1  C   UNL     1      -2.649   0.018  -0.245  0.00  0.00    +0.014 C 
ATOM      2  C   UNL     1      -2.114  -1.411  -0.121  0.00  0.00    +0.042 C 
ATOM      3  C   UNL     1      -3.236  -2.337   0.324  0.00  0.00    +0.055 A 
ATOM      4  C   UNL     1      -3.318  -2.746   1.617  0.00  0.00    +0.013 A 
ATOM      5  S   UNL     1      -4.759  -3.776   1.601  0.00  0.00    -0.076 S 
ATOM      6  C   UNL     1      -5.132  -3.603  -0.034  0.00  0.00    +0.082 A 
ATOM      7  N   UNL     1      -4.189  -2.807  -0.472  0.00  0.00    -0.248 NA
ATOM      8  C   UNL     1      -2.407  -2.398   2.743  0.00  0.00    +0.051 C 
ATOM      9  C   UNL     1      -1.543  -1.194   2.325  0.00  0.00    -0.022 C 
ATOM     10  C   UNL     1      -0.994  -1.447   0.914  0.00  0.00    +0.033 C 
ATOM     11  C   UNL     1      -0.278  -2.797   0.886  0.00  0.00    +0.123 C 
ATOM     12  C   UNL     1       0.899  -2.759   1.865  0.00  0.00    +0.029 C 
ATOM     13  C   UNL     1       0.390  -2.458   3.275  0.00  0.00    +0.007 C 
ATOM     14  C   UNL     1      -0.350  -1.114   3.290  0.00  0.00    +0.008 C 
ATOM     15  C   UNL     1      -2.361   0.097   2.373  0.00  0.00    +0.012 C 
ENDROOT
BRANCH   6  16
ATOM     16  C   UNL     1      -6.274  -4.215  -0.803  0.00  0.00    +0.041 C 
ATOM     17  C   UNL     1      -7.603  -3.766  -0.191  0.00  0.00    -0.009 C 
ATOM     18  C   UNL     1      -8.756  -4.453  -0.927  0.00  0.00    -0.082 C 
ATOM     19  N   UNL     1      -8.623  -5.909  -0.799  0.00  0.00    +0.379 N 
ATOM     20  C   UNL     1      -7.385  -6.356  -1.447  0.00  0.00    -0.082 C 
ATOM     21  C   UNL     1      -6.179  -5.742  -0.732  0.00  0.00    -0.009 C 
ATOM     22  H   UNL     1      -8.599  -6.159   0.178  0.00  0.00    -0.086 HD
ATOM     23  H   UNL     1      -9.413  -6.358  -1.239  0.00  0.00    -0.086 HD
ENDBRANCH   6  16
BRANCH  12  24
ATOM     24  C   UNL     1       1.608  -4.115   1.860  0.00  0.00    +0.078 C 
ATOM     25  C   UNL     1       2.785  -4.078   2.838  0.00  0.00    +0.017 C 
BRANCH  24  26
ATOM     26  C   UNL     1       2.117  -4.411   0.473  0.00  0.00    +0.219 C 
ATOM     27  O   UNL     1       2.069  -3.556  -0.386  0.00  0.00    -0.275 OA
ATOM     28  N   UNL     1       2.625  -5.626   0.187  0.00  0.00    -0.300 N 
ATOM     29  C   UNL     1       2.588  -6.691   1.192  0.00  0.00    +0.132 C 
BRANCH  28  30
ATOM     30  C   UNL     1       3.213  -5.882  -1.130  0.00  0.00    +0.142 C 
BRANCH  30  31
ATOM     31  C   UNL     1       4.684  -5.554  -1.095  0.00  0.00    -0.030 A 
ATOM     32  C   UNL     1       5.114  -4.277  -1.401  0.00  0.00    +0.005 A 
ATOM     33  C   UNL     1       6.463  -3.976  -1.369  0.00  0.00    +0.000 A 
ATOM     34  C   UNL     1       7.381  -4.952  -1.031  0.00  0.00    +0.000 A 
ATOM     35  C   UNL     1       6.951  -6.229  -0.724  0.00  0.00    +0.000 A 
ATOM     36  C   UNL     1       5.602  -6.529  -0.752  0.00  0.00    +0.005 A 
ENDBRANCH  30  31
ENDBRANCH  28  30
ENDBRANCH  24  26
ENDBRANCH  12  24
BRANCH  11  37
ATOM     37  O   UNL     1      -1.189  -3.829   1.271  0.00  0.00    -0.391 OA
ATOM     38  H   UNL     1      -0.801  -4.715   1.276  0.00  0.00    +0.210 HD
ENDBRANCH  11  37
TORSDOF 6
