REMARK  Name = ZINC39940217
REMARK  6 active torsions:
REMARK  status: ('A' for Active; 'I' for Inactive)
REMARK    1  A    between atoms: C_9  and  C_12
REMARK    2  A    between atoms: N_14  and  C_15
REMARK    3  A    between atoms: C_19  and  S_21
REMARK    4  A    between atoms: S_21  and  N_24
REMARK    5  A    between atoms: N_24  and  C_25
REMARK    6  A    between atoms: C_25  and  C_26
REMARK                            x       y       z     vdW  Elec       q    Type
REMARK                         _______ _______ _______ _____ _____    ______ ____
ROOT
ATOM      1  C   UNL     1      -0.963  -4.941  -0.192  0.00  0.00    +0.036 A 
ATOM      2  C   UNL     1      -2.187  -4.289  -0.277  0.00  0.00    +0.023 A 
ATOM      3  C   UNL     1      -3.354  -5.023  -0.357  0.00  0.00    +0.004 A 
ATOM      4  C   UNL     1      -3.305  -6.405  -0.352  0.00  0.00    +0.028 A 
ATOM      5  C   UNL     1      -2.089  -7.058  -0.267  0.00  0.00    +0.107 A 
ATOM      6  C   UNL     1      -0.917  -6.330  -0.193  0.00  0.00    +0.051 A 
ENDROOT
BRANCH   1   9
ATOM      7  C   UNL     1       0.239  -3.034   0.560  0.00  0.00    +0.245 C 
ATOM      8  O   UNL     1      -0.743  -2.671   1.177  0.00  0.00    -0.270 OA
ATOM      9  N   UNL     1       0.220  -4.203  -0.111  0.00  0.00    -0.282 N 
ATOM     10  H   UNL     1       1.027  -4.531  -0.537  0.00  0.00    +0.155 HD
BRANCH   7  19
ATOM     11  C   UNL     1       0.351   0.833   2.344  0.00  0.00    +0.001 A 
ATOM     12  C   UNL     1       1.528   1.590   2.302  0.00  0.00    +0.002 A 
ATOM     13  C   UNL     1       2.663   1.147   1.710  0.00  0.00    +0.024 A 
ATOM     14  C   UNL     1       2.702  -0.125   1.099  0.00  0.00    +0.041 A 
ATOM     15  N   UNL     1       3.816  -0.552   0.522  0.00  0.00    -0.285 N 
ATOM     16  C   UNL     1       3.923  -1.734  -0.071  0.00  0.00    +0.222 C 
ATOM     17  O   UNL     1       4.976  -2.066  -0.582  0.00  0.00    -0.275 OA
ATOM     18  C   UNL     1       2.736  -2.670  -0.110  0.00  0.00    +0.137 C 
ATOM     19  C   UNL     1       1.454  -2.195   0.546  0.00  0.00    +0.032 C 
ATOM     20  C   UNL     1       1.472  -0.944   1.129  0.00  0.00    +0.005 A 
ATOM     21  C   UNL     1       0.283  -0.401   1.786  0.00  0.00    +0.010 A 
ATOM     22  H   UNL     1       4.592   0.030   0.533  0.00  0.00    +0.155 HD
ENDBRANCH   7  19
ENDBRANCH   1   9
BRANCH   5  23
ATOM     23  S   UNL     1      -2.034  -8.819  -0.260  0.00  0.00    +0.059 S 
ATOM     24  O   UNL     1      -0.817  -9.184   0.377  0.00  0.00    -0.153 OA
ATOM     25  O   UNL     1      -3.301  -9.263   0.205  0.00  0.00    -0.153 OA
BRANCH  23  26
ATOM     26  N   UNL     1      -1.909  -9.311  -1.837  0.00  0.00    -0.183 NA
ATOM     27  H   UNL     1      -2.628  -9.818  -2.245  0.00  0.00    +0.148 HD
BRANCH  26  28
ATOM     28  C   UNL     1      -0.712  -8.980  -2.615  0.00  0.00    +0.180 C 
BRANCH  28  29
ATOM     29  C   UNL     1      -0.671  -9.829  -3.859  0.00  0.00    +0.120 A 
ATOM     30  C   UNL     1      -1.208  -9.507  -5.050  0.00  0.00    +0.046 A 
ATOM     31  C   UNL     1      -0.937 -10.582  -5.926  0.00  0.00    +0.041 A 
ATOM     32  C   UNL     1      -0.252 -11.498  -5.218  0.00  0.00    +0.195 A 
ATOM     33  O   UNL     1      -0.089 -11.034  -3.968  0.00  0.00    -0.466 OA
ENDBRANCH  28  29
ENDBRANCH  26  28
ENDBRANCH  23  26
ENDBRANCH   5  23
TORSDOF 6
