REMARK  Name = ZINC33139530
REMARK  7 active torsions:
REMARK  status: ('A' for Active; 'I' for Inactive)
REMARK    1  A    between atoms: C_3  and  O_13
REMARK    2  A    between atoms: C_6  and  C_7
REMARK    3  A    between atoms: N_9  and  C_10
REMARK    4  A    between atoms: O_13  and  C_14
REMARK    5  A    between atoms: C_17  and  N_20
REMARK    6  A    between atoms: N_20  and  S_21
REMARK    7  A    between atoms: S_21  and  C_24
REMARK                            x       y       z     vdW  Elec       q    Type
REMARK                         _______ _______ _______ _____ _____    ______ ____
ROOT
ATOM      1  C   UNL     1       4.683  -1.837  -3.792  0.00  0.00    +0.221 A 
ATOM      2  C   UNL     1       4.069  -3.055  -4.054  0.00  0.00    +0.069 A 
ATOM      3  C   UNL     1       2.903  -3.381  -3.385  0.00  0.00    +0.031 A 
ATOM      4  C   UNL     1       2.387  -2.467  -2.468  0.00  0.00    +0.066 A 
ATOM      5  C   UNL     1       3.052  -1.267  -2.263  0.00  0.00    +0.139 A 
ATOM      6  N   UNL     1       4.165  -0.993  -2.916  0.00  0.00    -0.219 NA
ENDROOT
BRANCH   4   7
ATOM      7  N   UNL     1       1.209  -2.753  -1.768  0.00  0.00    -0.215 N 
ATOM      8  H   UNL     1       0.237  -2.687  -2.278  0.00  0.00    +0.174 HD
BRANCH   7   9
ATOM      9  S   UNL     1       1.280  -3.193  -0.173  0.00  0.00    +0.072 S 
ATOM     10  O   UNL     1      -0.055  -3.455   0.235  0.00  0.00    -0.150 OA
ATOM     11  O   UNL     1       2.102  -2.233   0.477  0.00  0.00    -0.150 OA
BRANCH   9  12
ATOM     12  C   UNL     1       2.141  -4.728  -0.094  0.00  0.00    +0.109 A 
ATOM     13  C   UNL     1       3.522  -4.743  -0.025  0.00  0.00    +0.030 A 
ATOM     14  C   UNL     1       4.198  -5.947   0.038  0.00  0.00    +0.017 A 
ATOM     15  C   UNL     1       3.493  -7.137   0.031  0.00  0.00    +0.018 A 
ATOM     16  C   UNL     1       2.111  -7.122  -0.038  0.00  0.00    +0.017 A 
ATOM     17  C   UNL     1       1.436  -5.917  -0.101  0.00  0.00    +0.030 A 
ATOM     18 BR   UNL     1       4.417  -8.785   0.117  0.00  0.00    -0.050 Br
ENDBRANCH   9  12
ENDBRANCH   7   9
ENDBRANCH   4   7
BRANCH   1  19
ATOM     19  O   UNL     1       5.828  -1.508  -4.444  0.00  0.00    -0.438 OA
BRANCH  19  22
ATOM     20  C   UNL     1       7.566   1.258  -2.852  0.00  0.00    +0.016 A 
ATOM     21  C   UNL     1       7.039   0.004  -3.065  0.00  0.00    +0.047 A 
ATOM     22  C   UNL     1       6.346  -0.271  -4.238  0.00  0.00    +0.130 A 
ATOM     23  C   UNL     1       6.186   0.717  -5.203  0.00  0.00    +0.047 A 
ATOM     24  C   UNL     1       6.705   1.975  -4.995  0.00  0.00    +0.016 A 
ATOM     25  C   UNL     1       7.403   2.256  -3.817  0.00  0.00    +0.037 A 
BRANCH  25  26
ATOM     26  C   UNL     1       7.966   3.601  -3.593  0.00  0.00    +0.244 C 
ATOM     27  O   UNL     1       8.573   3.843  -2.568  0.00  0.00    -0.270 OA
ATOM     28  N   UNL     1       7.808   4.562  -4.525  0.00  0.00    -0.308 N 
ATOM     29  H   UNL     1       7.258   4.343  -5.453  0.00  0.00    +0.149 HD
BRANCH  28  30
ATOM     30  C   UNL     1       8.367   5.898  -4.303  0.00  0.00    +0.073 C 
ATOM     31  C   UNL     1       7.488   7.099  -4.656  0.00  0.00    +0.024 C 
ATOM     32  C   UNL     1       8.687   6.744  -5.537  0.00  0.00    +0.024 C 
ENDBRANCH  28  30
ENDBRANCH  25  26
ENDBRANCH  19  22
ENDBRANCH   1  19
TORSDOF 7
