REMARK  Name = ZINC19880013
REMARK  9 active torsions:
REMARK  status: ('A' for Active; 'I' for Inactive)
REMARK    1  A    between atoms: C_5  and  C_7
REMARK    2  A    between atoms: C_9  and  C_27
REMARK    3  A    between atoms: C_11  and  C_22
REMARK    4  A    between atoms: C_11  and  O_26
REMARK    5  A    between atoms: C_13  and  S_17
REMARK    6  A    between atoms: C_14  and  C_15
REMARK    7  A    between atoms: S_17  and  C_18
REMARK    8  A    between atoms: C_18  and  C_19
REMARK    9  A    between atoms: C_27  and  C_29
REMARK                            x       y       z     vdW  Elec       q    Type
REMARK                         _______ _______ _______ _____ _____    ______ ____
ROOT
ATOM      1  C   UNL     1       2.384   1.125  -0.624  0.00  0.00    +0.078 C 
ATOM      2  C   UNL     1       1.510   0.580   0.508  0.00  0.00    +0.132 C 
ATOM      3  C   UNL     1       2.159   0.943   1.850  0.00  0.00    +0.239 C 
ATOM      4  N   UNL     1       3.474   0.290   1.907  0.00  0.00    -0.303 N 
ATOM      5  C   UNL     1       4.291   0.339   0.801  0.00  0.00    +0.078 C 
ATOM      6  C   UNL     1       3.817   0.722  -0.412  0.00  0.00    +0.065 C 
ATOM      7  H   UNL     1       3.792  -0.228   2.824  0.00  0.00    +0.150 HD
ENDROOT
BRANCH   1  12
ATOM      8  C   UNL     1       1.579  -1.290  -3.412  0.00  0.00    +0.000 A 
ATOM      9  C   UNL     1       1.017  -0.449  -4.354  0.00  0.00    +0.001 A 
ATOM     10  C   UNL     1       0.897   0.902  -4.089  0.00  0.00    +0.020 A 
ATOM     11  C   UNL     1       1.339   1.413  -2.881  0.00  0.00    +0.045 A 
ATOM     12  C   UNL     1       1.901   0.570  -1.939  0.00  0.00    -0.020 A 
ATOM     13  C   UNL     1       2.026  -0.780  -2.207  0.00  0.00    +0.006 A 
ATOM     14 CL   UNL     1       1.188   3.110  -2.548  0.00  0.00    -0.083 Cl
ENDBRANCH   1  12
BRANCH   3  15
ATOM     15  C   UNL     1       1.283   0.444   3.001  0.00  0.00    +0.436 C 
ATOM     16  F   UNL     1       1.146  -0.945   2.914  0.00  0.00    -0.166 F 
ATOM     17  F   UNL     1       1.881   0.778   4.221  0.00  0.00    -0.166 F 
ATOM     18  F   UNL     1       0.021   1.043   2.920  0.00  0.00    -0.166 F 
ENDBRANCH   3  15
BRANCH   6  19
ATOM     19  C   UNL     1       4.712   0.743  -1.529  0.00  0.00    +0.098 C 
ATOM     20  N   UNL     1       5.423   0.759  -2.416  0.00  0.00    -0.191 NA
ENDBRANCH   6  19
BRANCH   3  21
ATOM     21  O   UNL     1       2.319   2.360   1.942  0.00  0.00    -0.364 OA
ATOM     22  H   UNL     1       2.770   2.806   2.841  0.00  0.00    +0.212 HD
ENDBRANCH   3  21
BRANCH   2  23
ATOM     23  C   UNL     1       1.403  -0.918   0.387  0.00  0.00    +0.178 C 
ATOM     24  O   UNL     1       2.398  -1.608   0.480  0.00  0.00    -0.291 OA
BRANCH  23  25
ATOM     25  C   UNL     1       0.145  -1.520   0.159  0.00  0.00    +0.055 A 
ATOM     26  C   UNL     1      -0.167  -2.868   0.008  0.00  0.00    +0.019 A 
ATOM     27  C   UNL     1      -1.484  -3.181  -0.202  0.00  0.00    +0.008 A 
ATOM     28  C   UNL     1      -2.405  -2.180  -0.261  0.00  0.00    +0.046 A 
ATOM     29  S   UNL     1      -1.455  -0.751  -0.017  0.00  0.00    -0.094 S 
ENDBRANCH  23  25
ENDBRANCH   2  23
BRANCH   5  30
ATOM     30  S   UNL     1       5.989  -0.103   0.963  0.00  0.00    -0.100 S 
BRANCH  30  31
ATOM     31  C   UNL     1       6.042  -0.507   2.727  0.00  0.00    +0.171 C 
BRANCH  31  32
ATOM     32  C   UNL     1       7.439  -0.925   3.105  0.00  0.00    +0.221 C 
ATOM     33  O   UNL     1       8.313  -0.948   2.264  0.00  0.00    -0.275 OA
ATOM     34  N   UNL     1       7.718  -1.274   4.376  0.00  0.00    -0.329 N 
ATOM     35  H   UNL     1       8.738  -1.579   4.652  0.00  0.00    +0.145 HD
ATOM     36  H   UNL     1       6.925  -1.253   5.139  0.00  0.00    +0.145 HD
ENDBRANCH  31  32
ENDBRANCH  30  31
ENDBRANCH   5  30
TORSDOF 9
