REMARK  Name = ZINC31173649
REMARK  16 active torsions:
REMARK  status: ('A' for Active; 'I' for Inactive)
REMARK    1  A    between atoms: C_1  and  C_2
REMARK    2  A    between atoms: C_2  and  N_3
REMARK    3  A    between atoms: N_3  and  C_4
REMARK    4  A    between atoms: N_3  and  C_16
REMARK    5  A    between atoms: C_4  and  C_5
REMARK    6  A    between atoms: C_16  and  C_17
REMARK    7  A    between atoms: N_19  and  C_20
REMARK    8  A    between atoms: N_19  and  C_24
REMARK    9  A    between atoms: C_20  and  C_21
REMARK   10  A    between atoms: C_21  and  C_22
REMARK   11  A    between atoms: C_21  and  C_23
REMARK   12  A    between atoms: C_25  and  N_37
REMARK   13  A    between atoms: N_26  and  C_33
REMARK   14  A    between atoms: C_33  and  C_34
REMARK   15  A    between atoms: C_34  and  C_35
REMARK   16  A    between atoms: C_34  and  C_36
REMARK                            x       y       z     vdW  Elec       q    Type
REMARK                         _______ _______ _______ _____ _____    ______ ____
ROOT
ATOM      1  C   UNL     1      -1.826   0.292   2.913  0.00  0.00    +0.203 C 
ATOM      2  O   UNL     1      -2.486   0.464   3.917  0.00  0.00    -0.277 OA
ATOM      3  N   UNL     1      -1.127   1.316   2.381  0.00  0.00    -0.266 N 
ENDROOT
BRANCH   3   4
ATOM      4  C   UNL     1      -1.079   2.559   3.047  0.00  0.00    +0.140 A 
ATOM      5  C   UNL     1      -2.226   3.303   3.228  0.00  0.00    +0.127 A 
ATOM      6  N   UNL     1      -2.148   4.508   3.887  0.00  0.00    -0.280 N 
ATOM      7  C   UNL     1      -0.965   4.961   4.339  0.00  0.00    +0.331 A 
ATOM      8  O   UNL     1      -0.915   6.032   4.914  0.00  0.00    -0.246 OA
ATOM      9  N   UNL     1       0.165   4.252   4.167  0.00  0.00    -0.273 N 
ATOM     10  H   UNL     1       1.122   4.641   4.545  0.00  0.00    +0.173 HD
ATOM     11  C   UNL     1       0.142   3.063   3.533  0.00  0.00    +0.277 A 
ATOM     12  O   UNL     1       1.172   2.428   3.382  0.00  0.00    -0.266 OA
BRANCH   5  13
ATOM     13  N   UNL     1      -3.434   2.844   2.761  0.00  0.00    -0.343 N 
ATOM     14  H   UNL     1      -4.345   3.442   2.909  0.00  0.00    +0.144 HD
ATOM     15  H   UNL     1      -3.490   1.877   2.239  0.00  0.00    +0.144 HD
ENDBRANCH   5  13
BRANCH   6  16
ATOM     16  C   UNL     1      -3.359   5.306   4.092  0.00  0.00    +0.131 C 
BRANCH  16  17
ATOM     17  C   UNL     1      -3.555   6.250   2.903  0.00  0.00    +0.003 C 
ATOM     18  C   UNL     1      -4.883   6.994   3.056  0.00  0.00    +0.009 C 
ATOM     19  C   UNL     1      -2.407   7.261   2.860  0.00  0.00    +0.009 C 
ENDBRANCH  16  17
ENDBRANCH   6  16
ENDBRANCH   3   4
BRANCH   1  20
ATOM     20  C   UNL     1      -1.788  -1.066   2.261  0.00  0.00    +0.019 C 
BRANCH  20  21
ATOM     21  N   UNL     1      -2.624  -2.000   3.026  0.00  0.00    +0.388 N 
ATOM     22  H   UNL     1      -2.312  -1.948   4.079  0.00  0.00    -0.081 HD
BRANCH  21  24
ATOM     23  C   UNL     1      -4.819  -2.336   4.060  0.00  0.00    -0.017 C 
ATOM     24  C   UNL     1      -4.041  -1.618   2.955  0.00  0.00    -0.081 C 
ENDBRANCH  21  24
BRANCH  21  25
ATOM     25  C   UNL     1      -2.428  -3.381   2.565  0.00  0.00    -0.030 C 
BRANCH  25  26
ATOM     26  C   UNL     1      -1.094  -3.911   3.094  0.00  0.00    +0.195 C 
ATOM     27  C   UNL     1      -0.918  -5.378   2.679  0.00  0.00    +0.271 C 
ATOM     28  O   UNL     1       0.331  -5.844   3.201  0.00  0.00    -0.485 OA
ATOM     29  C   UNL     1       0.601  -5.544   4.501  0.00  0.00    +0.162 A 
ATOM     30  C   UNL     1       1.592  -6.247   5.170  0.00  0.00    +0.049 A 
ATOM     31  C   UNL     1       1.879  -5.952   6.489  0.00  0.00    +0.004 A 
ATOM     32  C   UNL     1       1.181  -4.955   7.145  0.00  0.00    +0.004 A 
ATOM     33  C   UNL     1       0.193  -4.252   6.484  0.00  0.00    +0.049 A 
ATOM     34  C   UNL     1      -0.102  -4.544   5.161  0.00  0.00    +0.162 A 
ATOM     35  O   UNL     1      -1.081  -3.845   4.524  0.00  0.00    -0.484 OA
ENDBRANCH  25  26
ENDBRANCH  21  25
ENDBRANCH  20  21
ENDBRANCH   1  20
BRANCH   3  36
ATOM     36  C   UNL     1      -0.419   1.137   1.111  0.00  0.00    +0.117 C 
BRANCH  36  37
ATOM     37  C   UNL     1      -1.375   1.417  -0.050  0.00  0.00    +0.001 C 
ATOM     38  C   UNL     1      -1.772   2.895  -0.039  0.00  0.00    +0.009 C 
ATOM     39  C   UNL     1      -0.681   1.086  -1.373  0.00  0.00    +0.009 C 
ENDBRANCH  36  37
ENDBRANCH   3  36
TORSDOF 11
