REMARK  Name = ZINC59060971
REMARK  10 active torsions:
REMARK  status: ('A' for Active; 'I' for Inactive)
REMARK    1  A    between atoms: C_1  and  C_2
REMARK    2  A    between atoms: C_5  and  C_33
REMARK    3  A    between atoms: N_8  and  C_10
REMARK    4  A    between atoms: C_10  and  C_11
REMARK    5  A    between atoms: C_16  and  C_17
REMARK    6  A    between atoms: C_17  and  N_18
REMARK    7  A    between atoms: C_19  and  C_21
REMARK    8  A    between atoms: C_23  and  S_28
REMARK    9  A    between atoms: S_28  and  N_31
REMARK   10  A    between atoms: N_31  and  C_32
REMARK                            x       y       z     vdW  Elec       q    Type
REMARK                         _______ _______ _______ _____ _____    ______ ____
ROOT
ATOM      1  C   UNL     1       0.505  -1.607   3.748  0.00  0.00    +0.140 C 
ENDROOT
BRANCH   1   7
ATOM      2  C   UNL     1       2.363   0.068   3.842  0.00  0.00    -0.059 A 
ATOM      3  C   UNL     1       2.950   1.201   4.373  0.00  0.00    +0.002 A 
ATOM      4  C   UNL     1       2.326   1.888   5.397  0.00  0.00    +0.000 A 
ATOM      5  C   UNL     1       1.113   1.442   5.890  0.00  0.00    +0.000 A 
ATOM      6  C   UNL     1       0.526   0.309   5.358  0.00  0.00    +0.005 A 
ATOM      7  C   UNL     1       1.149  -0.375   4.331  0.00  0.00    -0.029 A 
BRANCH   2   8
ATOM      8  C   UNL     1       3.044  -0.681   2.725  0.00  0.00    -0.043 C 
BRANCH   8  14
ATOM      9  C   UNL     1       5.750   2.540   2.398  0.00  0.00    +0.005 C 
ATOM     10  C   UNL     1       4.912   2.179   1.170  0.00  0.00    -0.031 C 
ATOM     11  C   UNL     1       5.769   1.383   0.181  0.00  0.00    +0.003 C 
ATOM     12  C   UNL     1       6.200   0.068   0.838  0.00  0.00    -0.031 C 
ATOM     13  C   UNL     1       4.957  -0.706   1.281  0.00  0.00    -0.075 C 
ATOM     14  N   UNL     1       4.194   0.097   2.244  0.00  0.00    +0.383 N 
ATOM     15  C   UNL     1       3.716   1.328   1.601  0.00  0.00    -0.075 C 
ATOM     16  C   UNL     1       6.993  -0.769  -0.168  0.00  0.00    +0.005 C 
ATOM     17  H   UNL     1       4.786   0.335   3.025  0.00  0.00    -0.081 HD
ENDBRANCH   8  14
ENDBRANCH   2   8
ENDBRANCH   1   7
BRANCH   1  18
ATOM     18  N   UNL     1       1.208  -2.799   4.228  0.00  0.00    -0.307 N 
ATOM     19  C   UNL     1       0.805  -4.024   3.835  0.00  0.00    +0.246 C 
ATOM     20  O   UNL     1      -0.141  -4.139   3.081  0.00  0.00    -0.270 OA
ATOM     21  H   UNL     1       1.964  -2.707   4.830  0.00  0.00    +0.149 HD
BRANCH  19  22
ATOM     22  C   UNL     1       1.514  -5.226   4.320  0.00  0.00    +0.057 A 
ATOM     23  C   UNL     1       2.598  -5.098   5.190  0.00  0.00    +0.043 A 
ATOM     24  C   UNL     1       3.255  -6.224   5.639  0.00  0.00    +0.106 A 
ATOM     25  C   UNL     1       2.843  -7.480   5.229  0.00  0.00    +0.030 A 
ATOM     26  C   UNL     1       1.771  -7.616   4.367  0.00  0.00    +0.022 A 
ATOM     27  C   UNL     1       1.099  -6.497   3.914  0.00  0.00    +0.053 A 
ATOM     28 CL   UNL     1      -0.252  -6.669   2.838  0.00  0.00    -0.083 Cl
BRANCH  24  29
ATOM     29  S   UNL     1       4.624  -6.063   6.738  0.00  0.00    +0.058 S 
ATOM     30  O   UNL     1       5.410  -7.237   6.582  0.00  0.00    -0.153 OA
ATOM     31  O   UNL     1       5.153  -4.760   6.539  0.00  0.00    -0.153 OA
BRANCH  29  32
ATOM     32  N   UNL     1       4.021  -6.099   8.280  0.00  0.00    -0.193 NA
ATOM     33  C   UNL     1       3.376  -7.313   8.786  0.00  0.00    +0.127 C 
ATOM     34  H   UNL     1       4.094  -5.316   8.848  0.00  0.00    +0.148 HD
ENDBRANCH  29  32
ENDBRANCH  24  29
ENDBRANCH  19  22
ENDBRANCH   1  18
TORSDOF 7
