REMARK  Name = ZINC39883515
REMARK  11 active torsions:
REMARK  status: ('A' for Active; 'I' for Inactive)
REMARK    1  A    between atoms: C_1  and  C_2
REMARK    2  A    between atoms: C_2  and  C_3
REMARK    3  A    between atoms: C_9  and  C_12
REMARK    4  A    between atoms: C_12  and  C_13
REMARK    5  A    between atoms: N_15  and  C_16
REMARK    6  A    between atoms: C_24  and  C_25
REMARK    7  A    between atoms: N_27  and  C_28
REMARK    8  A    between atoms: C_31  and  C_34
REMARK    9  A    between atoms: C_34  and  O_36
REMARK   10  A    between atoms: O_36  and  C_37
REMARK   11  A    between atoms: C_37  and  C_38
REMARK                            x       y       z     vdW  Elec       q    Type
REMARK                         _______ _______ _______ _____ _____    ______ ____
ROOT
ATOM      1  C   UNL     1       6.535  -4.040   0.596  0.00  0.00    +0.092 A 
ATOM      2  C   UNL     1       7.344  -4.302   1.792  0.00  0.00    +0.042 A 
ATOM      3  C   UNL     1       8.146  -3.509   2.614  0.00  0.00    +0.013 A 
ATOM      4  C   UNL     1       8.786  -4.072   3.683  0.00  0.00    +0.001 A 
ATOM      5  C   UNL     1       8.644  -5.425   3.954  0.00  0.00    +0.004 A 
ATOM      6  C   UNL     1       7.856  -6.225   3.154  0.00  0.00    +0.047 A 
ATOM      7  C   UNL     1       7.196  -5.674   2.062  0.00  0.00    +0.138 A 
ATOM      8  O   UNL     1       6.378  -6.192   1.124  0.00  0.00    -0.448 OA
ATOM      9  C   UNL     1       5.974  -5.240   0.253  0.00  0.00    +0.212 A 
ENDROOT
BRANCH   1  12
ATOM     10  C   UNL     1       7.387  -1.942  -0.106  0.00  0.00    +0.222 C 
ATOM     11  O   UNL     1       8.417  -2.170   0.492  0.00  0.00    -0.275 OA
ATOM     12  N   UNL     1       6.367  -2.822  -0.052  0.00  0.00    -0.282 N 
ATOM     13  H   UNL     1       5.517  -2.606  -0.466  0.00  0.00    +0.155 HD
BRANCH  10  14
ATOM     14  C   UNL     1       7.247  -0.675  -0.910  0.00  0.00    +0.135 C 
BRANCH  14  21
ATOM     15  C   UNL     1      11.334  -0.745  -3.236  0.00  0.00    -0.047 A 
ATOM     16  C   UNL     1      12.226   0.211  -2.772  0.00  0.00    +0.007 A 
ATOM     17  C   UNL     1      11.880   1.053  -1.737  0.00  0.00    +0.047 A 
ATOM     18  C   UNL     1      10.625   0.947  -1.151  0.00  0.00    +0.135 A 
ATOM     19  C   UNL     1       9.726  -0.023  -1.625  0.00  0.00    +0.024 A 
ATOM     20  C   UNL     1      10.092  -0.862  -2.676  0.00  0.00    +0.015 A 
ATOM     21  C   UNL     1       8.517   0.129  -0.806  0.00  0.00    +0.007 A 
ATOM     22  C   UNL     1       8.770   1.126   0.052  0.00  0.00    +0.200 A 
ATOM     23  O   UNL     1      10.009   1.607  -0.149  0.00  0.00    -0.463 OA
BRANCH  15  25
ATOM     24  C   UNL     1      11.352  -1.010  -5.702  0.00  0.00    +0.009 C 
ATOM     25  C   UNL     1      11.735  -1.655  -4.368  0.00  0.00    +0.032 C 
ENDBRANCH  15  25
ENDBRANCH  14  21
ENDBRANCH  10  14
ENDBRANCH   1  12
BRANCH   9  26
ATOM     26  C   UNL     1       5.079  -5.460  -0.881  0.00  0.00    +0.285 C 
ATOM     27  O   UNL     1       4.853  -4.554  -1.662  0.00  0.00    -0.266 OA
ATOM     28  N   UNL     1       4.503  -6.665  -1.062  0.00  0.00    -0.279 N 
ATOM     29  H   UNL     1       4.736  -7.406  -0.480  0.00  0.00    +0.155 HD
BRANCH  28  30
ATOM     30  C   UNL     1       3.574  -6.847  -2.083  0.00  0.00    +0.034 A 
ATOM     31  C   UNL     1       2.486  -7.693  -1.890  0.00  0.00    +0.024 A 
ATOM     32  C   UNL     1       1.567  -7.875  -2.897  0.00  0.00    +0.017 A 
ATOM     33  C   UNL     1       1.726  -7.208  -4.116  0.00  0.00    +0.059 A 
ATOM     34  C   UNL     1       2.820  -6.359  -4.307  0.00  0.00    +0.017 A 
ATOM     35  C   UNL     1       3.733  -6.177  -3.293  0.00  0.00    +0.024 A 
BRANCH  33  36
ATOM     36  C   UNL     1       0.743  -7.400  -5.198  0.00  0.00    +0.339 C 
ATOM     37  O   UNL     1      -0.207  -8.139  -5.031  0.00  0.00    -0.245 OA
BRANCH  36  38
ATOM     38  O   UNL     1       0.898  -6.757  -6.372  0.00  0.00    -0.461 OA
BRANCH  38  39
ATOM     39  C   UNL     1      -0.093  -6.990  -7.375  0.00  0.00    +0.229 C 
ATOM     40  C   UNL     1       0.250  -6.181  -8.627  0.00  0.00    +0.048 C 
ENDBRANCH  38  39
ENDBRANCH  36  38
ENDBRANCH  33  36
ENDBRANCH  28  30
ENDBRANCH   9  26
TORSDOF 9
