REMARK  Name = ZINC39652945
REMARK  5 active torsions:
REMARK  status: ('A' for Active; 'I' for Inactive)
REMARK    1  A    between atoms: C_6  and  C_7
REMARK    2  A    between atoms: C_7  and  C_8
REMARK    3  A    between atoms: C_8  and  N_9
REMARK    4  A    between atoms: C_10  and  C_12
REMARK    5  A    between atoms: C_23  and  C_25
REMARK                            x       y       z     vdW  Elec       q    Type
REMARK                         _______ _______ _______ _____ _____    ______ ____
ROOT
ATOM      1  C   UNL     1      -4.234  -2.186  -2.726  0.00  0.00    +0.100 C 
ATOM      2  C   UNL     1      -5.559  -1.889  -1.987  0.00  0.00    +0.121 C 
ATOM      3  N   UNL     1      -6.381  -1.152  -2.976  0.00  0.00    -0.300 N 
ATOM      4  C   UNL     1      -6.106  -1.831  -4.264  0.00  0.00    +0.115 C 
ATOM      5  C   UNL     1      -4.598  -2.151  -4.220  0.00  0.00    -0.004 C 
ATOM      6  C   UNL     1      -4.327  -3.508  -4.862  0.00  0.00    -0.010 C 
ATOM      7  C   UNL     1      -4.641  -3.431  -6.358  0.00  0.00    -0.082 C 
ATOM      8  N   UNL     1      -3.808  -2.397  -6.983  0.00  0.00    +0.379 N 
ATOM      9  C   UNL     1      -4.142  -1.081  -6.425  0.00  0.00    -0.082 C 
ATOM     10  C   UNL     1      -3.807  -1.058  -4.931  0.00  0.00    -0.010 C 
ATOM     11  C   UNL     1      -7.196  -0.101  -2.753  0.00  0.00    +0.219 C 
ATOM     12  O   UNL     1      -7.258   0.395  -1.648  0.00  0.00    -0.275 OA
ATOM     13  H   UNL     1      -2.835  -2.598  -6.807  0.00  0.00    -0.086 HD
ATOM     14  H   UNL     1      -3.972  -2.390  -7.978  0.00  0.00    -0.086 HD
ENDROOT
BRANCH  11  15
ATOM     15  C   UNL     1      -8.029   0.458  -3.877  0.00  0.00    +0.079 C 
ATOM     16  C   UNL     1      -8.351   1.931  -3.598  0.00  0.00    +0.017 C 
ATOM     17  C   UNL     1      -9.041   2.518  -4.831  0.00  0.00    +0.027 C 
ATOM     18  C   UNL     1     -10.161   1.623  -5.272  0.00  0.00    -0.031 C 
ATOM     19  C   UNL     1     -10.292   0.389  -4.903  0.00  0.00    -0.030 C 
ATOM     20  C   UNL     1      -9.344  -0.319  -3.978  0.00  0.00    +0.039 C 
ENDBRANCH  11  15
BRANCH   1  22
ATOM     21  N   UNL     1      -1.897  -1.433  -2.431  0.00  0.00    -0.315 N 
ATOM     22  C   UNL     1      -3.209  -1.127  -2.410  0.00  0.00    +0.218 C 
ATOM     23  O   UNL     1      -3.565  -0.000  -2.139  0.00  0.00    -0.275 OA
ATOM     24  H   UNL     1      -1.612  -2.335  -2.648  0.00  0.00    +0.149 HD
BRANCH  21  25
ATOM     25  C   UNL     1      -0.900  -0.404  -2.124  0.00  0.00    +0.109 C 
BRANCH  25  26
ATOM     26  C   UNL     1       0.502  -1.009  -2.217  0.00  0.00    +0.054 C 
BRANCH  26  32
ATOM     27  C   UNL     1       1.947   0.239  -0.598  0.00  0.00    +0.005 A 
ATOM     28  C   UNL     1       2.887   1.210  -0.308  0.00  0.00    +0.015 A 
ATOM     29  C   UNL     1       3.409   1.992  -1.323  0.00  0.00    +0.018 A 
ATOM     30  C   UNL     1       2.989   1.802  -2.627  0.00  0.00    +0.015 A 
ATOM     31  C   UNL     1       2.049   0.831  -2.916  0.00  0.00    +0.005 A 
ATOM     32  C   UNL     1       1.528   0.049  -1.902  0.00  0.00    -0.046 A 
ATOM     33 BR   UNL     1       4.695   3.320  -0.927  0.00  0.00    -0.050 Br
ENDBRANCH  26  32
ENDBRANCH  25  26
ENDBRANCH  21  25
ENDBRANCH   1  22
TORSDOF 5
