REMARK  Name = ZINC40688818
REMARK  11 active torsions:
REMARK  status: ('A' for Active; 'I' for Inactive)
REMARK    1  A    between atoms: C_1  and  C_2
REMARK    2  A    between atoms: C_5  and  O_9
REMARK    3  A    between atoms: C_7  and  C_8
REMARK    4  A    between atoms: O_9  and  C_10
REMARK    5  A    between atoms: C_11  and  N_36
REMARK    6  A    between atoms: C_12  and  N_16
REMARK    7  A    between atoms: N_16  and  C_17
REMARK    8  A    between atoms: C_20  and  C_24
REMARK    9  A    between atoms: C_22  and  C_23
REMARK   10  A    between atoms: C_24  and  C_26
REMARK   11  A    between atoms: C_24  and  C_28
REMARK                            x       y       z     vdW  Elec       q    Type
REMARK                         _______ _______ _______ _____ _____    ______ ____
ROOT
ATOM      1  N   UNL     1      -0.296  -7.480  -3.014  0.00  0.00    -0.298 N 
ATOM      2  H   UNL     1      -0.339  -7.922  -2.152  0.00  0.00    +0.154 HD
ENDROOT
BRANCH   1   3
ATOM      3  C   UNL     1      -0.304  -8.237  -4.189  0.00  0.00    +0.037 A 
ATOM      4  C   UNL     1      -0.743  -7.670  -5.379  0.00  0.00    +0.043 A 
ATOM      5  C   UNL     1      -0.749  -8.422  -6.539  0.00  0.00    +0.047 A 
ATOM      6  C   UNL     1      -0.319  -9.738  -6.515  0.00  0.00    -0.008 A 
ATOM      7  C   UNL     1       0.117 -10.303  -5.331  0.00  0.00    +0.011 A 
ATOM      8  C   UNL     1       0.132  -9.556  -4.170  0.00  0.00    -0.029 A 
ATOM      9  C   UNL     1       0.615 -10.172  -2.882  0.00  0.00    +0.045 C 
ATOM     10 CL   UNL     1      -1.298  -7.716  -8.027  0.00  0.00    -0.083 Cl
BRANCH   6  11
ATOM     11  C   UNL     1      -0.328 -10.555  -7.781  0.00  0.00    +0.153 C 
BRANCH  11  12
ATOM     12  C   UNL     1       1.089 -10.875  -8.181  0.00  0.00    -0.026 A 
ATOM     13  C   UNL     1       1.813 -11.813  -7.468  0.00  0.00    +0.006 A 
ATOM     14  C   UNL     1       3.113 -12.108  -7.835  0.00  0.00    +0.020 A 
ATOM     15  C   UNL     1       3.690 -11.464  -8.915  0.00  0.00    +0.041 A 
ATOM     16  C   UNL     1       2.965 -10.525  -9.628  0.00  0.00    +0.020 A 
ATOM     17  C   UNL     1       1.663 -10.236  -9.264  0.00  0.00    +0.006 A 
ATOM     18 CL   UNL     1       5.322 -11.833  -9.376  0.00  0.00    -0.084 Cl
ENDBRANCH  11  12
BRANCH  11  19
ATOM     19  C   UNL     1      -1.068 -11.806  -7.552  0.00  0.00    +0.075 C 
ATOM     20  N   UNL     1      -1.639 -12.772  -7.376  0.00  0.00    -0.196 NA
ENDBRANCH  11  19
ENDBRANCH   6  11
ENDBRANCH   1   3
BRANCH   1  23
ATOM     21  C   UNL     1      -0.278  -3.933  -2.049  0.00  0.00    +0.246 A 
ATOM     22  C   UNL     1      -0.356  -5.319  -1.925  0.00  0.00    +0.128 A 
ATOM     23  C   UNL     1      -0.227  -6.093  -3.082  0.00  0.00    +0.151 A 
ATOM     24  N   UNL     1      -0.037  -5.482  -4.248  0.00  0.00    -0.218 NA
ATOM     25  C   UNL     1       0.030  -4.168  -4.320  0.00  0.00    +0.227 A 
ATOM     26  N   UNL     1      -0.092  -3.402  -3.254  0.00  0.00    -0.199 NA
BRANCH  22  27
ATOM     27  N   UNL     1      -0.556  -5.921  -0.674  0.00  0.00    -0.351 N 
ATOM     28  H   UNL     1      -0.643  -5.371   0.120  0.00  0.00    +0.143 HD
ATOM     29  H   UNL     1      -0.608  -6.887  -0.603  0.00  0.00    +0.143 HD
ENDBRANCH  22  27
BRANCH  21  30
ATOM     30  O   UNL     1      -0.396  -3.136  -0.957  0.00  0.00    -0.436 OA
BRANCH  30  35
ATOM     31  C   UNL     1      -0.485   2.440  -1.748  0.00  0.00    +0.044 C 
ATOM     32  C   UNL     1      -0.462   0.948  -1.536  0.00  0.00    -0.047 A 
ATOM     33  C   UNL     1      -1.573   0.188  -1.853  0.00  0.00    +0.007 A 
ATOM     34  C   UNL     1      -1.554  -1.179  -1.660  0.00  0.00    +0.046 A 
ATOM     35  C   UNL     1      -0.418  -1.791  -1.148  0.00  0.00    +0.131 A 
ATOM     36  C   UNL     1       0.696  -1.026  -0.831  0.00  0.00    +0.050 A 
ATOM     37  C   UNL     1       0.673   0.341  -1.031  0.00  0.00    -0.044 A 
ATOM     38  C   UNL     1       1.884   1.171  -0.693  0.00  0.00    +0.044 C 
ENDBRANCH  30  35
ENDBRANCH  21  30
ENDBRANCH   1  23
TORSDOF 8
