REMARK  Name = ZINC32623139
REMARK  11 active torsions:
REMARK  status: ('A' for Active; 'I' for Inactive)
REMARK    1  A    between atoms: C_1  and  C_2
REMARK    2  A    between atoms: C_2  and  O_3
REMARK    3  A    between atoms: O_3  and  C_4
REMARK    4  A    between atoms: C_6  and  C_11
REMARK    5  A    between atoms: C_9  and  O_10
REMARK    6  A    between atoms: N_26  and  C_27
REMARK    7  A    between atoms: C_27  and  C_28
REMARK    8  A    between atoms: C_28  and  C_29
REMARK    9  A    between atoms: C_29  and  N_30
REMARK   10  A    between atoms: N_30  and  C_31
REMARK   11  A    between atoms: N_30  and  C_32
REMARK                            x       y       z     vdW  Elec       q    Type
REMARK                         _______ _______ _______ _____ _____    ______ ____
ROOT
ATOM      1  C   UNL     1      -1.020  -0.878  -0.587  0.00  0.00    +0.145 C 
ATOM      2  C   UNL     1      -0.552  -2.289  -0.341  0.00  0.00    +0.072 A 
ATOM      3  C   UNL     1      -1.119  -3.597  -0.678  0.00  0.00    +0.199 A 
ATOM      4  O   UNL     1      -2.176  -3.700  -1.277  0.00  0.00    -0.287 OA
ATOM      5  C   UNL     1      -0.347  -4.783  -0.258  0.00  0.00    +0.066 A 
ATOM      6  C   UNL     1      -0.795  -6.075  -0.527  0.00  0.00    +0.035 A 
ATOM      7  C   UNL     1      -0.043  -7.154  -0.116  0.00  0.00    +0.042 A 
ATOM      8  C   UNL     1       1.153  -6.954   0.562  0.00  0.00    +0.023 A 
ATOM      9  C   UNL     1       1.605  -5.682   0.833  0.00  0.00    +0.048 A 
ATOM     10  C   UNL     1       0.862  -4.577   0.427  0.00  0.00    +0.140 A 
ATOM     11  O   UNL     1       1.294  -3.329   0.688  0.00  0.00    -0.450 OA
ATOM     12  C   UNL     1       0.627  -2.216   0.326  0.00  0.00    +0.199 A 
ATOM     13  C   UNL     1       0.962  -0.785   0.527  0.00  0.00    +0.283 C 
ATOM     14  O   UNL     1       1.960  -0.377   1.088  0.00  0.00    -0.267 OA
ATOM     15  N   UNL     1       0.002  -0.004   0.002  0.00  0.00    -0.284 N 
ATOM     16 CL   UNL     1      -0.591  -8.768  -0.447  0.00  0.00    -0.084 Cl
ENDROOT
BRANCH   1  19
ATOM     17  C   UNL     1      -2.484  -0.368  -4.032  0.00  0.00    +0.162 A 
ATOM     18  C   UNL     1      -2.377  -0.605  -2.671  0.00  0.00    +0.055 A 
ATOM     19  C   UNL     1      -1.134  -0.620  -2.067  0.00  0.00    -0.019 A 
ATOM     20  C   UNL     1       0.005  -0.392  -2.817  0.00  0.00    +0.009 A 
ATOM     21  C   UNL     1      -0.094  -0.160  -4.176  0.00  0.00    +0.049 A 
ATOM     22  C   UNL     1      -1.337  -0.144  -4.788  0.00  0.00    +0.158 A 
BRANCH  22  23
ATOM     23  O   UNL     1      -1.437   0.089  -6.124  0.00  0.00    -0.503 OA
ATOM     24  H   UNL     1      -0.530   0.266  -6.720  0.00  0.00    +0.292 HD
ENDBRANCH  22  23
BRANCH  17  25
ATOM     25  O   UNL     1      -3.707  -0.354  -4.627  0.00  0.00    -0.489 OA
BRANCH  25  27
ATOM     26  C   UNL     1      -6.116  -0.537  -4.630  0.00  0.00    +0.048 C 
ATOM     27  C   UNL     1      -4.839  -0.592  -3.789  0.00  0.00    +0.226 C 
ENDBRANCH  25  27
ENDBRANCH  17  25
ENDBRANCH   1  19
BRANCH  15  28
ATOM     28  C   UNL     1      -0.018   1.461   0.010  0.00  0.00    +0.107 C 
BRANCH  28  29
ATOM     29  C   UNL     1      -0.734   1.954   1.269  0.00  0.00    +0.000 C 
BRANCH  29  30
ATOM     30  C   UNL     1      -0.755   3.484   1.277  0.00  0.00    -0.078 C 
BRANCH  30  31
ATOM     31  N   UNL     1      -1.442   3.958   2.486  0.00  0.00    +0.376 N 
ATOM     32  C   UNL     1      -1.277   5.408   2.651  0.00  0.00    -0.097 C 
ATOM     33  C   UNL     1      -2.864   3.589   2.461  0.00  0.00    -0.097 C 
ATOM     34  H   UNL     1      -0.980   3.464   3.353  0.00  0.00    -0.083 HD
ENDBRANCH  30  31
ENDBRANCH  29  30
ENDBRANCH  28  29
ENDBRANCH  15  28
TORSDOF 8
