REMARK  Name = ZINC38223212
REMARK  6 active torsions:
REMARK  status: ('A' for Active; 'I' for Inactive)
REMARK    1  A    between atoms: C_1  and  C_2
REMARK    2  A    between atoms: C_6  and  N_8
REMARK    3  A    between atoms: C_13  and  C_17
REMARK    4  A    between atoms: C_13  and  N_18
REMARK    5  A    between atoms: N_18  and  C_19
REMARK    6  A    between atoms: C_22  and  C_25
REMARK                            x       y       z     vdW  Elec       q    Type
REMARK                         _______ _______ _______ _____ _____    ______ ____
ROOT
ATOM      1  N   UNL     1       0.188  -2.735   2.482  0.00  0.00    -0.216 N 
ATOM      2  C   UNL     1      -0.443  -3.916   2.675  0.00  0.00    +0.142 A 
ATOM      3  C   UNL     1      -0.203  -4.295   3.991  0.00  0.00    +0.055 A 
ATOM      4  C   UNL     1       0.570  -3.317   4.583  0.00  0.00    +0.144 A 
ATOM      5  N   UNL     1       0.814  -2.383   3.690  0.00  0.00    -0.172 NA
ATOM      6  C   UNL     1      -0.752  -5.590   4.540  0.00  0.00    +0.126 C 
ATOM      7  N   UNL     1      -1.897  -5.948   3.680  0.00  0.00    -0.312 N 
ATOM      8  C   UNL     1      -1.856  -5.695   2.337  0.00  0.00    +0.158 C 
ATOM      9  N   UNL     1      -1.185  -4.692   1.834  0.00  0.00    -0.334 N 
ATOM     10  C   UNL     1       0.316  -6.683   4.476  0.00  0.00    +0.058 C 
ATOM     11  H   UNL     1      -1.214  -4.504   0.882  0.00  0.00    +0.168 HD
ATOM     12  H   UNL     1      -2.681  -6.365   4.070  0.00  0.00    +0.149 HD
ENDROOT
BRANCH   1  18
ATOM     13  C   UNL     1       0.253   1.620   0.199  0.00  0.00    +0.044 C 
ATOM     14  C   UNL     1       0.249   0.114   0.156  0.00  0.00    -0.048 A 
ATOM     15  C   UNL     1       0.274  -0.543  -1.061  0.00  0.00    +0.003 A 
ATOM     16  C   UNL     1       0.270  -1.925  -1.105  0.00  0.00    +0.002 A 
ATOM     17  C   UNL     1       0.241  -2.654   0.068  0.00  0.00    +0.028 A 
ATOM     18  C   UNL     1       0.217  -1.998   1.291  0.00  0.00    +0.068 A 
ATOM     19  C   UNL     1       0.226  -0.610   1.332  0.00  0.00    +0.031 A 
ENDBRANCH   1  18
BRANCH   6  20
ATOM     20  N   UNL     1      -1.200  -5.401   5.922  0.00  0.00    -0.320 N 
ATOM     21  H   UNL     1      -0.848  -5.966   6.628  0.00  0.00    +0.148 HD
BRANCH  20  22
ATOM     22  C   UNL     1      -2.135  -4.409   6.224  0.00  0.00    +0.029 A 
ATOM     23  C   UNL     1      -2.752  -3.702   5.198  0.00  0.00    +0.023 A 
ATOM     24  C   UNL     1      -3.675  -2.722   5.494  0.00  0.00    +0.010 A 
ATOM     25  C   UNL     1      -3.990  -2.440   6.822  0.00  0.00    -0.018 A 
ATOM     26  C   UNL     1      -3.370  -3.151   7.849  0.00  0.00    +0.010 A 
ATOM     27  C   UNL     1      -2.451  -4.133   7.549  0.00  0.00    +0.023 A 
BRANCH  25  28
ATOM     28  C   UNL     1      -4.983  -1.386   7.143  0.00  0.00    -0.018 A 
ATOM     29  C   UNL     1      -5.607  -0.678   6.117  0.00  0.00    +0.008 A 
ATOM     30  C   UNL     1      -6.530   0.302   6.421  0.00  0.00    +0.001 A 
ATOM     31  C   UNL     1      -6.836   0.582   7.741  0.00  0.00    +0.000 A 
ATOM     32  C   UNL     1      -6.219  -0.117   8.763  0.00  0.00    +0.001 A 
ATOM     33  C   UNL     1      -5.299  -1.103   8.470  0.00  0.00    +0.008 A 
ENDBRANCH  25  28
ENDBRANCH  20  22
ENDBRANCH   6  20
TORSDOF 4
