REMARK  Name = ZINC39914968
REMARK  17 active torsions:
REMARK  status: ('A' for Active; 'I' for Inactive)
REMARK    1  A    between atoms: C_1  and  C_2
REMARK    2  A    between atoms: C_4  and  O_39
REMARK    3  A    between atoms: C_5  and  C_9
REMARK    4  A    between atoms: N_17  and  C_32
REMARK    5  A    between atoms: C_18  and  C_20
REMARK    6  A    between atoms: C_24  and  O_26
REMARK    7  A    between atoms: O_26  and  C_27
REMARK    8  A    between atoms: C_27  and  C_28
REMARK    9  A    between atoms: C_28  and  C_29
REMARK   10  A    between atoms: C_29  and  C_30
REMARK   11  A    between atoms: C_29  and  C_31
REMARK   12  A    between atoms: C_32  and  C_33
REMARK   13  A    between atoms: C_33  and  C_34
REMARK   14  A    between atoms: C_34  and  O_35
REMARK   15  A    between atoms: O_35  and  C_36
REMARK   16  A    between atoms: C_36  and  C_37
REMARK   17  A    between atoms: C_36  and  C_38
REMARK                            x       y       z     vdW  Elec       q    Type
REMARK                         _______ _______ _______ _____ _____    ______ ____
ROOT
ATOM      1  C   UNL     1       0.128  -4.365  -0.052  0.00  0.00    +0.102 A 
ATOM      2  C   UNL     1       0.201  -5.151   1.103  0.00  0.00    +0.035 A 
ATOM      3  C   UNL     1       0.166  -6.462   0.670  0.00  0.00    +0.126 A 
ATOM      4  N   UNL     1       0.076  -6.410  -0.692  0.00  0.00    -0.272 N 
ATOM      5  H   UNL     1       0.034  -7.182  -1.277  0.00  0.00    +0.189 HD
ATOM      6  N   UNL     1       0.050  -5.185  -1.082  0.00  0.00    -0.173 NA
ATOM      7  C   UNL     1       0.239  -7.342   1.842  0.00  0.00    +0.265 C 
ATOM      8  O   UNL     1       0.231  -8.558   1.798  0.00  0.00    -0.268 OA
ATOM      9  N   UNL     1       0.317  -6.615   2.970  0.00  0.00    -0.285 N 
ATOM     10  C   UNL     1       0.299  -5.193   2.604  0.00  0.00    +0.141 C 
ENDROOT
BRANCH   1  15
ATOM     11  C   UNL     1       0.136   1.394  -0.269  0.00  0.00    +0.045 C 
ATOM     12  C   UNL     1       0.136  -0.112  -0.214  0.00  0.00    -0.029 A 
ATOM     13  C   UNL     1       0.944  -0.832  -1.074  0.00  0.00    +0.050 A 
ATOM     14  C   UNL     1       0.947  -2.216  -1.028  0.00  0.00    +0.126 A 
ATOM     15  C   UNL     1       0.131  -2.882  -0.108  0.00  0.00    +0.045 A 
ATOM     16  C   UNL     1      -0.678  -2.148   0.754  0.00  0.00    +0.034 A 
ATOM     17  C   UNL     1      -0.668  -0.768   0.702  0.00  0.00    +0.045 A 
ATOM     18 CL   UNL     1      -1.674   0.147   1.782  0.00  0.00    -0.083 Cl
BRANCH  14  19
ATOM     19  O   UNL     1       1.740  -2.925  -1.873  0.00  0.00    -0.506 OA
ATOM     20  H   UNL     1       2.623  -3.109  -1.524  0.00  0.00    +0.292 HD
ENDBRANCH  14  19
ENDBRANCH   1  15
BRANCH  10  21
ATOM     21  C   UNL     1       1.571  -4.524   3.059  0.00  0.00    -0.019 A 
ATOM     22  C   UNL     1       2.792  -5.129   2.824  0.00  0.00    +0.006 A 
ATOM     23  C   UNL     1       3.960  -4.518   3.240  0.00  0.00    +0.004 A 
ATOM     24  C   UNL     1       3.910  -3.301   3.893  0.00  0.00    +0.045 A 
ATOM     25  C   UNL     1       2.687  -2.693   4.130  0.00  0.00    +0.121 A 
ATOM     26  C   UNL     1       1.516  -3.305   3.706  0.00  0.00    +0.051 A 
BRANCH  25  27
ATOM     27  O   UNL     1       2.635  -1.496   4.772  0.00  0.00    -0.492 OA
BRANCH  27  28
ATOM     28  C   UNL     1       3.880  -0.921   5.175  0.00  0.00    +0.229 C 
BRANCH  28  29
ATOM     29  C   UNL     1       3.622   0.414   5.877  0.00  0.00    +0.044 C 
BRANCH  29  30
ATOM     30  C   UNL     1       4.955   1.029   6.308  0.00  0.00    -0.014 C 
ATOM     31  C   UNL     1       4.708   2.419   6.897  0.00  0.00    +0.007 C 
ATOM     32  C   UNL     1       5.611   0.136   7.364  0.00  0.00    +0.007 C 
ENDBRANCH  29  30
ENDBRANCH  28  29
ENDBRANCH  27  28
ENDBRANCH  25  27
ENDBRANCH  10  21
BRANCH   9  33
ATOM     33  C   UNL     1       0.403  -7.149   4.332  0.00  0.00    +0.111 C 
BRANCH  33  34
ATOM     34  C   UNL     1       1.873  -7.341   4.712  0.00  0.00    +0.047 C 
BRANCH  34  35
ATOM     35  C   UNL     1       1.963  -7.899   6.133  0.00  0.00    +0.161 C 
BRANCH  35  36
ATOM     36  O   UNL     1       3.336  -8.079   6.488  0.00  0.00    -0.377 OA
BRANCH  36  37
ATOM     37  C   UNL     1       3.532  -8.599   7.804  0.00  0.00    +0.112 C 
ATOM     38  C   UNL     1       4.819  -9.426   7.839  0.00  0.00    +0.037 C 
ATOM     39  C   UNL     1       3.643  -7.442   8.799  0.00  0.00    +0.037 C 
ENDBRANCH  36  37
ENDBRANCH  35  36
ENDBRANCH  34  35
ENDBRANCH  33  34
ENDBRANCH   9  33
TORSDOF 12
