REMARK  Name = ZINC59170501
REMARK  8 active torsions:
REMARK  status: ('A' for Active; 'I' for Inactive)
REMARK    1  A    between atoms: C_1  and  C_2
REMARK    2  A    between atoms: C_5  and  S_8
REMARK    3  A    between atoms: S_8  and  N_11
REMARK    4  A    between atoms: N_11  and  N_12
REMARK    5  A    between atoms: C_14  and  C_24
REMARK    6  A    between atoms: N_26  and  C_27
REMARK    7  A    between atoms: C_30  and  O_33
REMARK    8  A    between atoms: O_33  and  C_34
REMARK                            x       y       z     vdW  Elec       q    Type
REMARK                         _______ _______ _______ _____ _____    ______ ____
ROOT
ATOM      1  N   UNL     1       3.301  -3.610  -0.173  0.00  0.00    -0.260 N 
ATOM      2  C   UNL     1       4.393  -4.285   0.053  0.00  0.00    +0.225 A 
ATOM      3  C   UNL     1       5.050  -4.252   1.380  0.00  0.00    +0.099 A 
ATOM      4  C   UNL     1       5.808  -5.343   1.734  0.00  0.00    +0.030 A 
ATOM      5  C   UNL     1       5.901  -6.447   0.770  0.00  0.00    +0.020 A 
ATOM      6  C   UNL     1       6.420  -7.687   1.155  0.00  0.00    +0.031 A 
ATOM      7  C   UNL     1       6.496  -8.710   0.233  0.00  0.00    +0.042 A 
ATOM      8  C   UNL     1       6.060  -8.514  -1.069  0.00  0.00    +0.023 A 
ATOM      9  C   UNL     1       5.545  -7.292  -1.461  0.00  0.00    +0.048 A 
ATOM     10  C   UNL     1       5.463  -6.252  -0.551  0.00  0.00    +0.138 A 
ATOM     11  O   UNL     1       4.963  -5.049  -0.923  0.00  0.00    -0.437 OA
ATOM     12 CL   UNL     1       7.141 -10.252   0.704  0.00  0.00    -0.084 Cl
ATOM     13  H   UNL     1       2.863  -3.139   0.553  0.00  0.00    +0.189 HD
ENDROOT
BRANCH   3  14
ATOM     14  C   UNL     1       4.899  -3.099   2.283  0.00  0.00    +0.253 C 
ATOM     15  O   UNL     1       4.160  -2.182   1.979  0.00  0.00    -0.270 OA
ATOM     16  N   UNL     1       5.580  -3.059   3.445  0.00  0.00    -0.281 N 
ATOM     17  H   UNL     1       6.239  -3.742   3.645  0.00  0.00    +0.155 HD
BRANCH  16  18
ATOM     18  C   UNL     1       5.338  -2.030   4.364  0.00  0.00    +0.034 A 
ATOM     19  C   UNL     1       4.065  -1.487   4.478  0.00  0.00    +0.027 A 
ATOM     20  C   UNL     1       3.826  -0.474   5.385  0.00  0.00    +0.047 A 
ATOM     21  C   UNL     1       4.857   0.003   6.181  0.00  0.00    +0.120 A 
ATOM     22  C   UNL     1       6.130  -0.539   6.066  0.00  0.00    +0.047 A 
ATOM     23  C   UNL     1       6.369  -1.557   5.165  0.00  0.00    +0.027 A 
BRANCH  21  24
ATOM     24  O   UNL     1       4.622   1.002   7.073  0.00  0.00    -0.495 OA
ATOM     25  C   UNL     1       5.730   1.444   7.860  0.00  0.00    +0.277 C 
ENDBRANCH  21  24
ENDBRANCH  16  18
ENDBRANCH   3  14
BRANCH   1  26
ATOM     26  N   UNL     1       2.761  -3.564  -1.464  0.00  0.00    -0.157 N 
ATOM     27  H   UNL     1       3.156  -4.093  -2.175  0.00  0.00    +0.194 HD
BRANCH  26  28
ATOM     28  S   UNL     1       1.446  -2.607  -1.779  0.00  0.00    +0.085 S 
ATOM     29  O   UNL     1       0.404  -3.054  -0.923  0.00  0.00    -0.149 OA
ATOM     30  O   UNL     1       1.305  -2.562  -3.192  0.00  0.00    -0.149 OA
BRANCH  28  35
ATOM     31  C   UNL     1       2.847   2.988  -0.008  0.00  0.00    +0.044 C 
ATOM     32  C   UNL     1       2.498   1.591  -0.450  0.00  0.00    -0.050 A 
ATOM     33  C   UNL     1       2.867   1.151  -1.707  0.00  0.00    +0.005 A 
ATOM     34  C   UNL     1       2.546  -0.131  -2.113  0.00  0.00    +0.029 A 
ATOM     35  C   UNL     1       1.856  -0.973  -1.261  0.00  0.00    +0.110 A 
ATOM     36  C   UNL     1       1.488  -0.534  -0.003  0.00  0.00    +0.029 A 
ATOM     37  C   UNL     1       1.812   0.747   0.404  0.00  0.00    +0.005 A 
ENDBRANCH  28  35
ENDBRANCH  26  28
ENDBRANCH   1  26
TORSDOF 6
