REMARK  Name = ZINC32105993
REMARK  9 active torsions:
REMARK  status: ('A' for Active; 'I' for Inactive)
REMARK    1  A    between atoms: C_1  and  C_2
REMARK    2  A    between atoms: C_2  and  O_3
REMARK    3  A    between atoms: O_3  and  C_4
REMARK    4  A    between atoms: C_4  and  C_6
REMARK    5  A    between atoms: N_8  and  C_23
REMARK    6  A    between atoms: C_11  and  N_22
REMARK    7  A    between atoms: N_12  and  C_21
REMARK    8  A    between atoms: C_16  and  O_19
REMARK    9  A    between atoms: O_19  and  C_20
REMARK                            x       y       z     vdW  Elec       q    Type
REMARK                         _______ _______ _______ _____ _____    ______ ____
ROOT
ATOM      1  C   UNL     1       1.320  -1.842  -0.700  0.00  0.00    +0.124 C 
ATOM      2  C   UNL     1       0.196  -2.872  -0.937  0.00  0.00    +0.131 C 
ATOM      3  N   UNL     1      -0.626  -2.289  -2.028  0.00  0.00    -0.297 N 
ATOM      4  C   UNL     1      -0.370  -0.982  -2.199  0.00  0.00    +0.223 C 
ATOM      5  O   UNL     1      -0.900  -0.274  -3.029  0.00  0.00    -0.275 OA
ATOM      6  C   UNL     1       0.675  -0.518  -1.209  0.00  0.00    +0.096 C 
ATOM      7  N   UNL     1       0.002  -0.004   0.002  0.00  0.00    -0.334 N 
ATOM      8  C   UNL     1       0.677  -0.504   1.125  0.00  0.00    +0.033 A 
ATOM      9  C   UNL     1       1.467  -1.595   0.787  0.00  0.00    -0.004 A 
ATOM     10  C   UNL     1       2.212  -2.245   1.750  0.00  0.00    +0.052 A 
ATOM     11  C   UNL     1       2.179  -1.808   3.066  0.00  0.00    +0.120 A 
ATOM     12  C   UNL     1       1.396  -0.716   3.410  0.00  0.00    +0.047 A 
ATOM     13  C   UNL     1       0.650  -0.067   2.449  0.00  0.00    +0.027 A 
ATOM     14  C   UNL     1      -0.018   1.465   0.010  0.00  0.00    +0.128 C 
ENDROOT
BRANCH   3  15
ATOM     15  C   UNL     1      -1.587  -3.054  -2.827  0.00  0.00    +0.076 C 
ATOM     16  C   UNL     1      -1.174  -3.011  -4.300  0.00  0.00    +0.022 C 
ATOM     17  C   UNL     1      -2.177  -3.810  -5.134  0.00  0.00    +0.002 C 
ATOM     18  C   UNL     1      -3.572  -3.200  -4.977  0.00  0.00    +0.000 C 
ATOM     19  C   UNL     1      -3.984  -3.243  -3.505  0.00  0.00    +0.002 C 
ATOM     20  C   UNL     1      -2.981  -2.444  -2.670  0.00  0.00    +0.022 C 
ENDBRANCH   3  15
BRANCH   6  21
ATOM     21  N   UNL     1       1.649   0.426  -1.774  0.00  0.00    +0.399 N 
ATOM     22  H   UNL     1       1.127   1.333  -2.112  0.00  0.00    -0.086 HD
ATOM     23  H   UNL     1       2.160  -0.042  -2.628  0.00  0.00    -0.086 HD
ATOM     24  H   UNL     1       2.389   0.693  -1.006  0.00  0.00    -0.086 HD
ENDBRANCH   6  21
BRANCH   1  25
ATOM     25  C   UNL     1       2.616  -2.194  -1.383  0.00  0.00    +0.320 C 
ATOM     26  O   UNL     1       3.046  -1.487  -2.263  0.00  0.00    -0.250 OA
BRANCH  25  27
ATOM     27  O   UNL     1       3.292  -3.294  -1.015  0.00  0.00    -0.464 OA
BRANCH  27  29
ATOM     28  C   UNL     1       5.155  -4.854  -1.163  0.00  0.00    +0.048 C 
ATOM     29  C   UNL     1       4.532  -3.571  -1.716  0.00  0.00    +0.229 C 
ENDBRANCH  27  29
ENDBRANCH  25  27
ENDBRANCH   1  25
BRANCH  11  30
ATOM     30  O   UNL     1       2.913  -2.448   4.015  0.00  0.00    -0.495 OA
ATOM     31  C   UNL     1       2.830  -1.943   5.349  0.00  0.00    +0.277 C 
ENDBRANCH  11  30
TORSDOF 6
