REMARK  Name = ZINC58862060
REMARK  8 active torsions:
REMARK  status: ('A' for Active; 'I' for Inactive)
REMARK    1  A    between atoms: C_1  and  C_2
REMARK    2  A    between atoms: C_7  and  N_8
REMARK    3  A    between atoms: N_11  and  N_12
REMARK    4  A    between atoms: C_13  and  C_15
REMARK    5  A    between atoms: C_18  and  S_21
REMARK    6  A    between atoms: S_21  and  C_22
REMARK    7  A    between atoms: C_22  and  C_23
REMARK    8  A    between atoms: C_25  and  C_28
REMARK                            x       y       z     vdW  Elec       q    Type
REMARK                         _______ _______ _______ _____ _____    ______ ____
ROOT
ATOM      1  N   UNL     1      -0.175   1.375   4.750  0.00  0.00    -0.229 N 
ATOM      2  C   UNL     1      -0.274   2.042   5.917  0.00  0.00    +0.260 C 
ATOM      3  O   UNL     1      -0.348   1.429   6.964  0.00  0.00    -0.269 OA
ATOM      4  H   UNL     1      -0.116   1.864   3.915  0.00  0.00    +0.173 HD
ENDROOT
BRANCH   1   8
ATOM      5  N   UNL     1       0.025  -0.015   2.417  0.00  0.00    -0.268 N 
ATOM      6  C   UNL     1      -0.056  -0.694   3.578  0.00  0.00    +0.320 C 
ATOM      7  O   UNL     1      -0.040  -1.910   3.573  0.00  0.00    -0.251 OA
ATOM      8  N   UNL     1      -0.156  -0.026   4.745  0.00  0.00    -0.218 N 
ATOM      9  H   UNL     1       0.078   0.954   2.425  0.00  0.00    +0.156 HD
ATOM     10  H   UNL     1      -0.214  -0.515   5.580  0.00  0.00    +0.174 HD
BRANCH   5  17
ATOM     11  C   UNL     1      -1.266   1.183   0.182  0.00  0.00    +0.045 C 
ATOM     12  C   UNL     1      -0.585  -0.158   0.085  0.00  0.00    -0.029 A 
ATOM     13  C   UNL     1      -0.570  -0.840  -1.116  0.00  0.00    +0.005 A 
ATOM     14  C   UNL     1       0.054  -2.071  -1.206  0.00  0.00    +0.000 A 
ATOM     15  C   UNL     1       0.665  -2.622  -0.095  0.00  0.00    +0.002 A 
ATOM     16  C   UNL     1       0.654  -1.945   1.108  0.00  0.00    +0.023 A 
ATOM     17  C   UNL     1       0.033  -0.706   1.200  0.00  0.00    +0.038 A 
ENDBRANCH   5  17
ENDBRANCH   1   8
BRANCH   2  18
ATOM     18  C   UNL     1      -0.294   3.517   5.923  0.00  0.00    +0.038 A 
ATOM     19  C   UNL     1      -0.215   4.224   4.718  0.00  0.00    +0.014 A 
ATOM     20  C   UNL     1      -0.234   5.594   4.727  0.00  0.00    +0.015 A 
ATOM     21  C   UNL     1      -0.331   6.283   5.934  0.00  0.00    +0.008 A 
ATOM     22  C   UNL     1      -0.409   5.582   7.135  0.00  0.00    +0.015 A 
ATOM     23  C   UNL     1      -0.397   4.211   7.132  0.00  0.00    +0.014 A 
BRANCH  21  24
ATOM     24  S   UNL     1      -0.355   8.045   5.941  0.00  0.00    -0.116 S 
BRANCH  24  25
ATOM     25  C   UNL     1      -0.489   8.475   7.698  0.00  0.00    +0.173 C 
BRANCH  25  26
ATOM     26  C   UNL     1      -0.519   9.975   7.847  0.00  0.00    +0.238 A 
ATOM     27  N   UNL     1      -1.589  10.720   7.851  0.00  0.00    -0.196 NA
ATOM     28  C   UNL     1      -1.252  12.006   8.004  0.00  0.00    +0.169 A 
ATOM     29  N   UNL     1       0.044  12.094   8.099  0.00  0.00    -0.062 NA
ATOM     30  O   UNL     1       0.547  10.769   8.004  0.00  0.00    -0.337 OA
ATOM     31  C   UNL     1      -2.215  13.164   8.056  0.00  0.00    +0.091 C 
ENDBRANCH  25  26
ENDBRANCH  24  25
ENDBRANCH  21  24
ENDBRANCH   2  18
TORSDOF 6
