REMARK  Name = ZINC17103085
REMARK  5 active torsions:
REMARK  status: ('A' for Active; 'I' for Inactive)
REMARK    1  A    between atoms: C_4  and  N_17
REMARK    2  A    between atoms: C_5  and  C_6
REMARK    3  A    between atoms: N_8  and  C_9
REMARK    4  A    between atoms: C_18  and  C_20
REMARK    5  A    between atoms: C_26  and  C_28
REMARK                            x       y       z     vdW  Elec       q    Type
REMARK                         _______ _______ _______ _____ _____    ______ ____
ROOT
ATOM      1  C   UNL     1      -4.713   0.682   0.048  0.00  0.00    +0.022 A 
ATOM      2  C   UNL     1      -4.344  -0.611   0.029  0.00  0.00    +0.048 A 
ATOM      3  S   UNL     1      -2.584  -0.531  -0.233  0.00  0.00    -0.081 S 
ATOM      4  C   UNL     1      -2.382   1.187  -0.311  0.00  0.00    +0.084 A 
ATOM      5  C   UNL     1      -3.673   1.667  -0.127  0.00  0.00    +0.065 A 
ENDROOT
BRANCH   5   6
ATOM      6  C   UNL     1      -3.965   3.104  -0.117  0.00  0.00    +0.251 C 
ATOM      7  O   UNL     1      -3.064   3.909  -0.271  0.00  0.00    -0.270 OA
ATOM      8  N   UNL     1      -5.229   3.534   0.064  0.00  0.00    -0.281 N 
ATOM      9  H   UNL     1      -5.957   2.894   0.110  0.00  0.00    +0.155 HD
BRANCH   8  10
ATOM     10  C   UNL     1      -5.492   4.902   0.184  0.00  0.00    +0.036 A 
ATOM     11  C   UNL     1      -4.567   5.737   0.797  0.00  0.00    +0.043 A 
ATOM     12  C   UNL     1      -4.828   7.090   0.911  0.00  0.00    +0.044 A 
ATOM     13  C   UNL     1      -6.014   7.610   0.424  0.00  0.00    +0.040 A 
ATOM     14  C   UNL     1      -6.940   6.780  -0.182  0.00  0.00    +0.044 A 
ATOM     15  C   UNL     1      -6.682   5.427  -0.302  0.00  0.00    +0.043 A 
ATOM     16 CL   UNL     1      -8.427   7.437  -0.790  0.00  0.00    -0.083 Cl
ATOM     17 CL   UNL     1      -3.669   8.135   1.671  0.00  0.00    -0.083 Cl
ENDBRANCH   8  10
ENDBRANCH   5   6
BRANCH   4  18
ATOM     18  N   UNL     1      -1.213   1.908  -0.503  0.00  0.00    -0.279 N 
ATOM     19  C   UNL     1      -0.040   1.263  -0.659  0.00  0.00    +0.222 C 
ATOM     20  O   UNL     1      -0.007   0.051  -0.630  0.00  0.00    -0.275 OA
ATOM     21  H   UNL     1      -1.240   2.878  -0.526  0.00  0.00    +0.155 HD
BRANCH  19  22
ATOM     22  C   UNL     1       1.228   2.047  -0.874  0.00  0.00    +0.093 C 
ATOM     23  C   UNL     1       1.110   2.875  -2.155  0.00  0.00    +0.040 C 
ATOM     24  C   UNL     1       2.446   3.450  -2.524  0.00  0.00    -0.030 C 
ATOM     25  C   UNL     1       3.574   3.023  -2.054  0.00  0.00    -0.030 C 
ATOM     26  C   UNL     1       3.703   1.901  -1.065  0.00  0.00    +0.042 C 
ATOM     27  C   UNL     1       2.411   1.082  -1.028  0.00  0.00    +0.118 C 
BRANCH  27  28
ATOM     28  C   UNL     1       2.444   0.130   0.140  0.00  0.00    +0.360 C 
ATOM     29  O   UNL     1       1.608   0.211   1.009  0.00  0.00    -0.246 OA
ATOM     30  O   UNL     1       3.401  -0.808   0.215  0.00  0.00    -0.246 OA
ENDBRANCH  27  28
ENDBRANCH  19  22
ENDBRANCH   4  18
TORSDOF 5
