REMARK  Name = ZINC12703897
REMARK  13 active torsions:
REMARK  status: ('A' for Active; 'I' for Inactive)
REMARK    1  A    between atoms: C_1  and  C_2
REMARK    2  A    between atoms: C_2  and  N_66
REMARK    3  A    between atoms: C_3  and  C_4
REMARK    4  A    between atoms: C_3  and  N_66
REMARK    5  A    between atoms: C_5  and  C_6
REMARK    6  A    between atoms: C_5  and  N_66
REMARK    7  A    between atoms: C_6  and  C_7
REMARK    8  A    between atoms: C_7  and  N_8
REMARK    9  A    between atoms: N_8  and  C_9
REMARK   10  A    between atoms: C_9  and  C_10
REMARK   11  A    between atoms: C_15  and  C_23
REMARK   12  A    between atoms: C_16  and  C_22
REMARK   13  A    between atoms: N_26  and  C_27
REMARK                            x       y       z     vdW  Elec       q    Type
REMARK                         _______ _______ _______ _____ _____    ______ ____
ROOT
ATOM      1  N   UNL     1       3.213   2.928  -0.123  0.00  0.00    -0.281 N 
ATOM      2  C   UNL     1       2.486   3.931   0.407  0.00  0.00    +0.307 C 
ATOM      3  O   UNL     1       1.698   4.544  -0.288  0.00  0.00    -0.252 OA
ATOM      4  N   UNL     1       2.631   4.255   1.708  0.00  0.00    -0.269 N 
ATOM      5  H   UNL     1       3.307   3.813   2.245  0.00  0.00    +0.156 HD
ENDROOT
BRANCH   4   6
ATOM      6  C   UNL     1       1.805   5.228   2.283  0.00  0.00    +0.035 A 
ATOM      7  C   UNL     1       1.402   6.327   1.537  0.00  0.00    +0.025 A 
ATOM      8  C   UNL     1       0.583   7.283   2.105  0.00  0.00    +0.022 A 
ATOM      9  C   UNL     1       0.173   7.151   3.421  0.00  0.00    +0.041 A 
ATOM     10  C   UNL     1       0.578   6.059   4.168  0.00  0.00    +0.022 A 
ATOM     11  C   UNL     1       1.392   5.098   3.602  0.00  0.00    +0.025 A 
ATOM     12 CL   UNL     1      -0.852   8.358   4.134  0.00  0.00    -0.084 Cl
ENDBRANCH   4   6
BRANCH   1  13
ATOM     13  C   UNL     1       4.162   2.189   0.715  0.00  0.00    +0.108 C 
BRANCH  13  14
ATOM     14  C   UNL     1       5.530   2.870   0.657  0.00  0.00    +0.000 C 
BRANCH  14  15
ATOM     15  C   UNL     1       6.521   2.099   1.531  0.00  0.00    -0.077 C 
BRANCH  15  16
ATOM     16  N   UNL     1       7.842   2.755   1.448  0.00  0.00    +0.379 N 
ATOM     17  H   UNL     1       8.094   2.875   0.460  0.00  0.00    -0.082 HD
BRANCH  16  19
ATOM     18  C   UNL     1       7.401   3.949   3.568  0.00  0.00    -0.017 C 
ATOM     19  C   UNL     1       7.787   4.084   2.093  0.00  0.00    -0.082 C 
ENDBRANCH  16  19
BRANCH  16  20
ATOM     20  C   UNL     1       8.866   1.916   2.106  0.00  0.00    -0.082 C 
ATOM     21  C   UNL     1      10.252   2.419   1.696  0.00  0.00    -0.017 C 
ENDBRANCH  16  20
ENDBRANCH  15  16
ENDBRANCH  14  15
ENDBRANCH  13  14
ENDBRANCH   1  13
BRANCH   1  22
ATOM     22  C   UNL     1       3.055   2.576  -1.536  0.00  0.00    +0.150 C 
BRANCH  22  23
ATOM     23  C   UNL     1       1.978   1.531  -1.676  0.00  0.00    +0.035 A 
ATOM     24  C   UNL     1       0.707   1.906  -1.962  0.00  0.00    +0.020 A 
ATOM     25  C   UNL     1      -0.316   0.867  -2.092  0.00  0.00    -0.001 A 
ATOM     26  C   UNL     1      -1.645   1.192  -2.386  0.00  0.00    +0.010 A 
ATOM     27  C   UNL     1      -2.575   0.199  -2.502  0.00  0.00    +0.004 A 
ATOM     28  C   UNL     1      -2.215  -1.131  -2.330  0.00  0.00    -0.046 A 
ATOM     29  C   UNL     1      -0.912  -1.474  -2.039  0.00  0.00    -0.024 A 
ATOM     30  C   UNL     1       0.054  -0.480  -1.923  0.00  0.00    +0.052 A 
ATOM     31  N   UNL     1       1.364  -0.795  -1.629  0.00  0.00    -0.322 N 
ATOM     32  H   UNL     1       1.617  -1.724  -1.510  0.00  0.00    +0.169 HD
ATOM     33  C   UNL     1       2.296   0.166  -1.511  0.00  0.00    +0.254 A 
ATOM     34  O   UNL     1       3.445  -0.149  -1.254  0.00  0.00    -0.268 OA
ATOM     35  C   UNL     1      -0.535  -2.921  -1.854  0.00  0.00    +0.046 C 
ATOM     36  C   UNL     1      -3.259  -2.210  -2.461  0.00  0.00    +0.044 C 
ENDBRANCH  22  23
ENDBRANCH   1  22
TORSDOF 9
