REMARK  Name = ZINC00718308
REMARK  7 active torsions:
REMARK  status: ('A' for Active; 'I' for Inactive)
REMARK    1  A    between atoms: C_1  and  O_2
REMARK    2  A    between atoms: O_2  and  C_3
REMARK    3  A    between atoms: C_3  and  C_5
REMARK    4  A    between atoms: C_5  and  N_6
REMARK    5  A    between atoms: C_16  and  C_33
REMARK    6  A    between atoms: C_17  and  N_32
REMARK    7  A    between atoms: C_24  and  C_27
REMARK                            x       y       z     vdW  Elec       q    Type
REMARK                         _______ _______ _______ _____ _____    ______ ____
ROOT
ATOM      1  N   UNL     1       1.356   2.010  -0.000  0.00  0.00    -0.259 N 
ATOM      2  C   UNL     1       2.091   2.276   1.142  0.00  0.00    +0.042 A 
ATOM      3  C   UNL     1       1.726   2.137   2.482  0.00  0.00    +0.024 A 
ATOM      4  C   UNL     1       2.672   2.482   3.435  0.00  0.00    +0.002 A 
ATOM      5  C   UNL     1       3.925   2.945   3.087  0.00  0.00    +0.000 A 
ATOM      6  C   UNL     1       4.303   3.080   1.755  0.00  0.00    +0.007 A 
ATOM      7  C   UNL     1       3.366   2.743   0.802  0.00  0.00    -0.001 A 
ATOM      8  C   UNL     1       3.417   2.776  -0.693  0.00  0.00    +0.144 C 
ATOM      9  C   UNL     1       2.053   2.277  -1.124  0.00  0.00    +0.241 C 
ATOM     10  O   UNL     1       1.660   2.145  -2.264  0.00  0.00    -0.274 OA
ATOM     11  C   UNL     1       4.486   1.864  -1.219  0.00  0.00    +0.110 C 
ATOM     12  C   UNL     1       5.632   2.379  -1.730  0.00  0.00    +0.199 C 
ATOM     13  O   UNL     1       5.846   3.703  -1.772  0.00  0.00    -0.445 OA
ATOM     14  C   UNL     1       4.811   4.560  -1.700  0.00  0.00    +0.116 C 
ATOM     15  C   UNL     1       3.623   4.183  -1.191  0.00  0.00    +0.058 C 
ATOM     16  C   UNL     1       2.543   5.083  -1.110  0.00  0.00    +0.165 C 
ATOM     17  O   UNL     1       1.493   4.713  -0.624  0.00  0.00    -0.292 OA
ATOM     18  C   UNL     1       2.667   6.495  -1.615  0.00  0.00    +0.091 C 
ATOM     19  C   UNL     1       3.705   6.528  -2.741  0.00  0.00    +0.070 C 
ATOM     20  C   UNL     1       5.023   5.969  -2.201  0.00  0.00    +0.086 C 
ENDROOT
BRANCH  19  21
ATOM     21  C   UNL     1       3.909   7.948  -3.201  0.00  0.00    +0.109 A 
ATOM     22  C   UNL     1       3.693   8.410  -4.446  0.00  0.00    +0.045 A 
ATOM     23  C   UNL     1       4.008   9.789  -4.432  0.00  0.00    +0.041 A 
ATOM     24  C   UNL     1       4.398  10.086  -3.179  0.00  0.00    +0.195 A 
ATOM     25  O   UNL     1       4.330   8.969  -2.437  0.00  0.00    -0.468 OA
ENDBRANCH  19  21
BRANCH  12  26
ATOM     26  N   UNL     1       6.594   1.527  -2.214  0.00  0.00    -0.328 N 
ATOM     27  H   UNL     1       7.417   1.885  -2.582  0.00  0.00    +0.145 HD
ATOM     28  H   UNL     1       6.450   0.569  -2.189  0.00  0.00    +0.145 HD
ENDBRANCH  12  26
BRANCH  11  29
ATOM     29  C   UNL     1       4.296   0.445  -1.182  0.00  0.00    +0.102 C 
ATOM     30  N   UNL     1       4.146  -0.680  -1.152  0.00  0.00    -0.191 NA
ENDBRANCH  11  29
BRANCH   1  31
ATOM     31  C   UNL     1      -0.018   1.503   0.010  0.00  0.00    +0.234 C 
BRANCH  31  32
ATOM     32  C   UNL     1       0.002  -0.004   0.002  0.00  0.00    +0.325 C 
ATOM     33  O   UNL     1       1.056  -0.594  -0.011  0.00  0.00    -0.249 OA
BRANCH  32  35
ATOM     34  C   UNL     1      -1.056  -2.140   0.001  0.00  0.00    +0.280 C 
ATOM     35  O   UNL     1      -1.151  -0.691   0.009  0.00  0.00    -0.467 OA
ENDBRANCH  32  35
ENDBRANCH  31  32
ENDBRANCH   1  31
TORSDOF 6
