REMARK  Name = ZINC59879523
REMARK  10 active torsions:
REMARK  status: ('A' for Active; 'I' for Inactive)
REMARK    1  A    between atoms: C_1  and  C_2
REMARK    2  A    between atoms: C_2  and  C_3
REMARK    3  A    between atoms: C_6  and  C_8
REMARK    4  A    between atoms: C_8  and  N_9
REMARK    5  A    between atoms: C_10  and  C_12
REMARK    6  A    between atoms: C_12  and  S_13
REMARK    7  A    between atoms: S_13  and  C_14
REMARK    8  A    between atoms: N_19  and  N_20
REMARK    9  A    between atoms: C_21  and  C_22
REMARK   10  A    between atoms: C_27  and  O_28
REMARK                            x       y       z     vdW  Elec       q    Type
REMARK                         _______ _______ _______ _____ _____    ______ ____
ROOT
ATOM      1  C   UNL     1      -6.387  -7.450   4.047  0.00  0.00    +0.211 A 
ATOM      2  N   UNL     1      -7.184  -8.270   4.741  0.00  0.00    -0.186 NA
ATOM      3  C   UNL     1      -6.694  -9.492   4.714  0.00  0.00    +0.232 A 
ATOM      4  N   UNL     1      -5.555  -9.468   3.989  0.00  0.00    -0.245 N 
ATOM      5  N   UNL     1      -5.381  -8.141   3.565  0.00  0.00    -0.144 NA
ATOM      6  N   UNL     1      -7.247 -10.604   5.322  0.00  0.00    -0.205 N 
ATOM      7  H   UNL     1      -6.810 -11.466   5.246  0.00  0.00    +0.177 HD
ATOM      8  H   UNL     1      -4.974 -10.220   3.796  0.00  0.00    +0.192 HD
ENDROOT
BRANCH   6   9
ATOM      9  N   UNL     1      -8.440 -10.484   6.048  0.00  0.00    -0.187 NA
ATOM     10  C   UNL     1      -8.960 -11.528   6.619  0.00  0.00    +0.142 C 
BRANCH  10  11
ATOM     11  C   UNL     1     -10.214 -11.402   7.382  0.00  0.00    +0.037 A 
ATOM     12  C   UNL     1     -10.774 -12.522   8.002  0.00  0.00    +0.028 A 
ATOM     13  C   UNL     1     -11.948 -12.397   8.716  0.00  0.00    +0.019 A 
ATOM     14  C   UNL     1     -12.574 -11.166   8.820  0.00  0.00    +0.019 A 
ATOM     15  C   UNL     1     -12.030 -10.051   8.210  0.00  0.00    +0.047 A 
ATOM     16  C   UNL     1     -10.849 -10.158   7.494  0.00  0.00    +0.126 A 
ATOM     17 BR   UNL     1     -12.706 -13.913   9.555  0.00  0.00    -0.050 Br
BRANCH  16  18
ATOM     18  O   UNL     1     -10.310  -9.062   6.899  0.00  0.00    -0.506 OA
ATOM     19  H   UNL     1     -10.618  -8.915   5.994  0.00  0.00    +0.292 HD
ENDBRANCH  16  18
ENDBRANCH  10  11
ENDBRANCH   6   9
BRANCH   1  20
ATOM     20  S   UNL     1      -6.649  -5.724   3.813  0.00  0.00    -0.075 S 
BRANCH  20  21
ATOM     21  C   UNL     1      -5.244  -5.201   2.793  0.00  0.00    +0.173 C 
BRANCH  21  23
ATOM     22  N   UNL     1      -4.405  -3.110   1.770  0.00  0.00    -0.306 N 
ATOM     23  C   UNL     1      -5.347  -3.723   2.515  0.00  0.00    +0.224 C 
ATOM     24  O   UNL     1      -6.277  -3.086   2.961  0.00  0.00    -0.275 OA
ATOM     25  H   UNL     1      -3.661  -3.620   1.414  0.00  0.00    +0.149 HD
BRANCH  22  26
ATOM     26  C   UNL     1      -4.506  -1.674   1.500  0.00  0.00    +0.202 C 
BRANCH  26  30
ATOM     27  C   UNL     1      -1.412  -0.526   0.013  0.00  0.00    +0.217 A 
ATOM     28  N   UNL     1      -2.143  -0.792  -1.032  0.00  0.00    -0.112 NA
ATOM     29  N   UNL     1      -3.295  -1.219  -0.649  0.00  0.00    -0.111 NA
ATOM     30  C   UNL     1      -3.338  -1.240   0.653  0.00  0.00    +0.234 A 
ATOM     31  O   UNL     1      -2.147  -0.807   1.101  0.00  0.00    -0.423 OA
BRANCH  27  33
ATOM     32  C   UNL     1      -0.019   1.526   0.010  0.00  0.00    +0.013 C 
ATOM     33  C   UNL     1       0.002  -0.004   0.002  0.00  0.00    +0.094 C 
ENDBRANCH  27  33
ENDBRANCH  26  30
ENDBRANCH  22  26
ENDBRANCH  21  23
ENDBRANCH  20  21
ENDBRANCH   1  20
TORSDOF 9
