REMARK  Name = ZINC02386950
REMARK  3 active torsions:
REMARK  status: ('A' for Active; 'I' for Inactive)
REMARK    1  A    between atoms: C_4  and  C_7
REMARK    2  A    between atoms: C_12  and  O_18
REMARK    3  A    between atoms: O_18  and  P_19
REMARK                            x       y       z     vdW  Elec       q    Type
REMARK                         _______ _______ _______ _____ _____    ______ ____
ROOT
ATOM      1  C   UNL     1       1.083   6.227   0.025  0.00  0.00    +0.067 A 
ATOM      2  C   UNL     1      -0.101   5.540   0.032  0.00  0.00    +0.027 A 
ATOM      3  C   UNL     1      -0.071   4.122   0.025  0.00  0.00    +0.018 A 
ATOM      4  C   UNL     1      -1.269   3.392   0.032  0.00  0.00    +0.015 A 
ATOM      5  C   UNL     1      -1.236   2.029   0.019  0.00  0.00    +0.047 A 
ATOM      6  C   UNL     1      -0.016   1.353   0.009  0.00  0.00    +0.136 A 
ATOM      7  C   UNL     1       1.176   2.057   0.002  0.00  0.00    +0.093 A 
ATOM      8  C   UNL     1       1.161   3.445   0.009  0.00  0.00    +0.143 A 
ATOM      9  O   UNL     1       2.325   4.131   0.003  0.00  0.00    -0.422 OA
ATOM     10  C   UNL     1       2.341   5.475   0.010  0.00  0.00    +0.345 A 
ATOM     11  O   UNL     1       3.403   6.069   0.003  0.00  0.00    -0.245 OA
ENDROOT
BRANCH   1  15
ATOM     12  C   UNL     1       1.114  10.477   0.046  0.00  0.00    +0.000 A 
ATOM     13  C   UNL     1       1.887   9.778   0.956  0.00  0.00    +0.001 A 
ATOM     14  C   UNL     1       1.882   8.398   0.953  0.00  0.00    +0.009 A 
ATOM     15  C   UNL     1       1.094   7.708   0.033  0.00  0.00    -0.011 A 
ATOM     16  C   UNL     1       0.320   8.418  -0.884  0.00  0.00    +0.009 A 
ATOM     17  C   UNL     1       0.329   9.798  -0.869  0.00  0.00    +0.001 A 
ENDBRANCH   1  15
BRANCH   6  18
ATOM     18  O   UNL     1       0.002  -0.004   0.002  0.00  0.00    -0.401 OA
BRANCH  18  19
ATOM     19  P   UNL     1       0.025  -0.667   1.469  0.00  0.00    +0.589 P 
ATOM     20  O   UNL     1      -1.118  -0.156   2.259  0.00  0.00    -0.211 OA
ATOM     21  O   UNL     1      -0.087  -2.267   1.337  0.00  0.00    -0.104 OA
ATOM     22  O   UNL     1       1.403  -0.284   2.209  0.00  0.00    -0.104 OA
ENDBRANCH  18  19
ENDBRANCH   6  18
TORSDOF 3
