REMARK  Name = ZINC39403944
REMARK  10 active torsions:
REMARK  status: ('A' for Active; 'I' for Inactive)
REMARK    1  A    between atoms: C_1  and  O_2
REMARK    2  A    between atoms: O_2  and  C_3
REMARK    3  A    between atoms: C_6  and  O_35
REMARK    4  A    between atoms: C_7  and  C_9
REMARK    5  A    between atoms: N_10  and  N_11
REMARK    6  A    between atoms: C_14  and  S_18
REMARK    7  A    between atoms: S_18  and  C_19
REMARK    8  A    between atoms: C_19  and  C_20
REMARK    9  A    between atoms: N_22  and  C_23
REMARK   10  A    between atoms: C_25  and  C_33
REMARK                            x       y       z     vdW  Elec       q    Type
REMARK                         _______ _______ _______ _____ _____    ______ ____
ROOT
ATOM      1  N   UNL     1       1.962  -6.045  -3.391  0.00  0.00    -0.206 N 
ATOM      2  C   UNL     1       2.575  -6.652  -4.466  0.00  0.00    +0.231 C 
ATOM      3  N   UNL     1       2.670  -7.942  -4.631  0.00  0.00    -0.324 N 
ATOM      4  C   UNL     1       3.395  -8.115  -5.902  0.00  0.00    +0.283 C 
ATOM      5  N   UNL     1       3.648  -6.736  -6.349  0.00  0.00    -0.148 NA
ATOM      6  N   UNL     1       3.158  -5.981  -5.502  0.00  0.00    -0.116 NA
ATOM      7  H   UNL     1       1.567  -6.587  -2.690  0.00  0.00    +0.177 HD
ATOM      8  H   UNL     1       2.336  -8.637  -4.043  0.00  0.00    +0.165 HD
ENDROOT
BRANCH   1  10
ATOM      9  C   UNL     1       1.332  -4.077  -2.299  0.00  0.00    +0.142 C 
ATOM     10  N   UNL     1       1.909  -4.648  -3.312  0.00  0.00    -0.187 NA
BRANCH   9  15
ATOM     11  C   UNL     1       0.606  -0.608  -1.056  0.00  0.00    +0.121 A 
ATOM     12  C   UNL     1       1.173   0.164  -2.062  0.00  0.00    +0.049 A 
ATOM     13  C   UNL     1       1.789  -0.441  -3.142  0.00  0.00    +0.049 A 
ATOM     14  C   UNL     1       1.846  -1.821  -3.227  0.00  0.00    +0.126 A 
ATOM     15  C   UNL     1       1.276  -2.606  -2.216  0.00  0.00    +0.039 A 
ATOM     16  C   UNL     1       0.659  -1.988  -1.125  0.00  0.00    +0.058 A 
BRANCH  11  18
ATOM     17  C   UNL     1      -0.017   1.425   0.010  0.00  0.00    +0.277 C 
ATOM     18  O   UNL     1       0.002  -0.004   0.002  0.00  0.00    -0.495 OA
ENDBRANCH  11  18
BRANCH  14  19
ATOM     19  O   UNL     1       2.451  -2.414  -4.290  0.00  0.00    -0.506 OA
ATOM     20  H   UNL     1       3.395  -2.581  -4.161  0.00  0.00    +0.292 HD
ENDBRANCH  14  19
ENDBRANCH   9  15
ENDBRANCH   1  10
BRANCH   4  21
ATOM     21  S   UNL     1       2.367  -9.001  -7.107  0.00  0.00    -0.102 S 
BRANCH  21  22
ATOM     22  C   UNL     1       0.910  -7.938  -7.306  0.00  0.00    +0.168 C 
BRANCH  22  23
ATOM     23  C   UNL     1      -0.038  -8.566  -8.294  0.00  0.00    +0.224 C 
ATOM     24  O   UNL     1       0.241  -9.626  -8.813  0.00  0.00    -0.275 OA
ATOM     25  N   UNL     1      -1.197  -7.950  -8.601  0.00  0.00    -0.301 N 
ATOM     26  H   UNL     1      -1.420  -7.103  -8.186  0.00  0.00    +0.150 HD
BRANCH  25  27
ATOM     27  C   UNL     1      -2.119  -8.561  -9.562  0.00  0.00    +0.156 C 
ATOM     28  C   UNL     1      -3.562  -8.614  -9.010  0.00  0.00    +0.149 C 
ATOM     29  C   UNL     1      -4.269  -9.892  -9.419  0.00  0.00    -0.041 C 
ATOM     30  C   UNL     1      -3.518 -10.907  -9.808  0.00  0.00    -0.012 C 
ATOM     31  S   UNL     1      -1.819 -10.369  -9.732  0.00  0.00    -0.106 S 
ATOM     32  C   UNL     1      -4.339 -12.123 -10.165  0.00  0.00    +0.042 C 
ATOM     33  C   UNL     1      -5.724 -11.853  -9.540  0.00  0.00    +0.009 C 
ATOM     34  C   UNL     1      -5.741 -10.313  -9.497  0.00  0.00    +0.033 C 
BRANCH  28  35
ATOM     35  C   UNL     1      -3.517  -8.540  -7.540  0.00  0.00    +0.073 C 
ATOM     36  N   UNL     1      -3.483  -8.484  -6.406  0.00  0.00    -0.196 NA
ENDBRANCH  28  35
ENDBRANCH  25  27
ENDBRANCH  22  23
ENDBRANCH  21  22
ENDBRANCH   4  21
TORSDOF 9
