REMARK  Name = ZINC38617659
REMARK  6 active torsions:
REMARK  status: ('A' for Active; 'I' for Inactive)
REMARK    1  A    between atoms: C_4  and  C_26
REMARK    2  A    between atoms: C_5  and  C_7
REMARK    3  A    between atoms: N_9  and  C_10
REMARK    4  A    between atoms: C_10  and  C_11
REMARK    5  A    between atoms: C_11  and  C_12
REMARK    6  A    between atoms: CA_20  and  C_22
REMARK                            x       y       z     vdW  Elec       q    Type
REMARK                         _______ _______ _______ _____ _____    ______ ____
ROOT
ATOM      1  C   UNL     1      -0.326  -5.192   0.403  0.00  0.00    +0.053 C 
ENDROOT
BRANCH   1   2
ATOM      2  C   UNL     1      -0.042  -6.669   0.491  0.00  0.00    -0.026 C 
ATOM      3  C   UNL     1       1.173  -7.264   0.510  0.00  0.00    +0.002 A 
ATOM      4  C   UNL     1       2.540  -6.733   0.455  0.00  0.00    +0.048 A 
ATOM      5  C   UNL     1       3.582  -7.597   0.493  0.00  0.00    +0.124 A 
ATOM      6  C   UNL     1       3.386  -8.984   0.583  0.00  0.00    +0.040 A 
ATOM      7  C   UNL     1       2.160  -9.545   0.637  0.00  0.00    +0.029 A 
ATOM      8  C   UNL     1       0.994  -8.730   0.605  0.00  0.00    +0.044 A 
ATOM      9  N   UNL     1      -0.281  -9.031   0.643  0.00  0.00    -0.368 N 
ATOM     10  CA  UNL     1      -1.057  -7.787   0.584  0.00  0.00    +0.221 C 
ATOM     11  F   UNL     1       4.842  -7.112   0.442  0.00  0.00    -0.205 F 
ATOM     12  H   UNL     1      -0.650  -9.925   0.704  0.00  0.00    +0.161 HD
BRANCH  10  13
ATOM     13  C   UNL     1      -1.890  -7.630   1.830  0.00  0.00    +0.382 C 
ATOM     14  O   UNL     1      -2.921  -6.981   1.796  0.00  0.00    -0.244 OA
ATOM     15  OXT UNL     1      -1.532  -8.153   2.872  0.00  0.00    -0.244 OA
ENDBRANCH  10  13
ENDBRANCH   1   2
BRANCH   1  16
ATOM     16  C   UNL     1       0.994  -4.422   0.327  0.00  0.00    +0.109 C 
BRANCH  16  19
ATOM     17  C   UNL     1       1.736  -2.107   0.164  0.00  0.00    +0.245 C 
ATOM     18  O   UNL     1       2.884  -2.506   0.165  0.00  0.00    -0.270 OA
ATOM     19  N   UNL     1       0.717  -2.986   0.241  0.00  0.00    -0.311 N 
ATOM     20  H   UNL     1      -0.199  -2.668   0.239  0.00  0.00    +0.149 HD
BRANCH  17  25
ATOM     21  C   UNL     1       0.404   1.318   0.953  0.00  0.00    +0.001 A 
ATOM     22  C   UNL     1       0.930   2.068  -0.084  0.00  0.00    +0.001 A 
ATOM     23  C   UNL     1       1.720   1.471  -1.048  0.00  0.00    +0.016 A 
ATOM     24  C   UNL     1       1.992   0.106  -0.979  0.00  0.00    +0.075 A 
ATOM     25  C   UNL     1       1.457  -0.656   0.077  0.00  0.00    +0.051 A 
ATOM     26  C   UNL     1       0.663  -0.038   1.038  0.00  0.00    +0.014 A 
BRANCH  24  27
ATOM     27  C   UNL     1       2.835  -0.537  -2.007  0.00  0.00    +0.387 C 
ATOM     28  O   UNL     1       3.397   0.146  -2.851  0.00  0.00    -0.241 OA
ATOM     29  O   UNL     1       2.971  -1.752  -2.013  0.00  0.00    -0.241 OA
ENDBRANCH  24  27
ENDBRANCH  17  25
ENDBRANCH  16  19
ENDBRANCH   1  16
TORSDOF 6
