REMARK  Name = ZINC03830731
REMARK  13 active torsions:
REMARK  status: ('A' for Active; 'I' for Inactive)
REMARK    1  A    between atoms: C_1  and  C_2
REMARK    2  A    between atoms: C_4  and  O_43
REMARK    3  A    between atoms: C_6  and  N_68
REMARK    4  A    between atoms: C_9  and  O_12
REMARK    5  A    between atoms: O_12  and  C_13
REMARK    6  A    between atoms: C_16  and  C_38
REMARK    7  A    between atoms: C_16  and  O_42
REMARK    8  A    between atoms: C_20  and  O_37
REMARK    9  A    between atoms: C_23  and  O_24
REMARK   10  A    between atoms: C_31  and  O_35
REMARK   11  A    between atoms: O_35  and  C_36
REMARK   12  A    between atoms: C_38  and  C_40
REMARK   13  A    between atoms: C_40  and  O_41
REMARK                            x       y       z     vdW  Elec       q    Type
REMARK                         _______ _______ _______ _____ _____    ______ ____
ROOT
ATOM      1  C   UNL     1       0.022  -4.272  -2.813  0.00  0.00    +0.158 C 
ATOM      2  C   UNL     1      -0.687  -5.490  -3.401  0.00  0.00    +0.079 C 
ATOM      3  C   UNL     1       0.170  -6.040  -4.548  0.00  0.00    +0.133 C 
ATOM      4  C   UNL     1       1.432  -6.657  -3.950  0.00  0.00    +0.082 C 
ATOM      5  C   UNL     1       2.105  -5.688  -3.011  0.00  0.00    +0.007 A 
ATOM      6  C   UNL     1       1.456  -4.599  -2.485  0.00  0.00    +0.030 A 
ATOM      7  C   UNL     1       2.128  -3.739  -1.606  0.00  0.00    +0.134 A 
ATOM      8  C   UNL     1       3.457  -3.976  -1.261  0.00  0.00    +0.078 A 
ATOM      9  C   UNL     1       4.124  -5.092  -1.804  0.00  0.00    +0.078 A 
ATOM     10  C   UNL     1       3.442  -5.939  -2.676  0.00  0.00    +0.132 A 
ATOM     11  C   UNL     1       5.529  -5.356  -1.449  0.00  0.00    +0.198 C 
ATOM     12  O   UNL     1       6.104  -6.320  -1.917  0.00  0.00    -0.286 OA
ATOM     13  C   UNL     1       6.237  -4.448  -0.524  0.00  0.00    +0.037 A 
ATOM     14  C   UNL     1       7.565  -4.688  -0.184  0.00  0.00    +0.012 A 
ATOM     15  C   UNL     1       8.225  -3.833   0.682  0.00  0.00    +0.004 A 
ATOM     16  C   UNL     1       7.577  -2.737   1.216  0.00  0.00    +0.046 A 
ATOM     17  C   UNL     1       6.249  -2.478   0.890  0.00  0.00    +0.132 A 
ATOM     18  C   UNL     1       5.570  -3.333   0.017  0.00  0.00    +0.075 A 
ATOM     19  C   UNL     1       4.163  -3.071  -0.337  0.00  0.00    +0.202 C 
ATOM     20  O   UNL     1       3.587  -2.108   0.133  0.00  0.00    -0.286 OA
ENDROOT
BRANCH  10  21
ATOM     21  O   UNL     1       4.077  -7.015  -3.203  0.00  0.00    -0.506 OA
ATOM     22  H   UNL     1       4.525  -6.835  -4.041  0.00  0.00    +0.292 HD
ENDBRANCH  10  21
BRANCH  17  23
ATOM     23  O   UNL     1       5.617  -1.400   1.416  0.00  0.00    -0.494 OA
ATOM     24  C   UNL     1       6.374  -0.571   2.301  0.00  0.00    +0.277 C 
ENDBRANCH  17  23
BRANCH   7  25
ATOM     25  O   UNL     1       1.480  -2.666  -1.088  0.00  0.00    -0.506 OA
ATOM     26  H   UNL     1       1.018  -2.849  -0.258  0.00  0.00    +0.292 HD
ENDBRANCH   7  25
BRANCH   3  27
ATOM     27  C   UNL     1      -0.603  -7.092  -5.300  0.00  0.00    +0.190 C 
ATOM     28  O   UNL     1      -1.502  -7.686  -4.755  0.00  0.00    -0.292 OA
BRANCH  27  29
ATOM     29  C   UNL     1      -0.254  -7.404  -6.733  0.00  0.00    +0.233 C 
BRANCH  29  30
ATOM     30  O   UNL     1      -1.121  -8.428  -7.223  0.00  0.00    -0.387 OA
ATOM     31  H   UNL     1      -0.953  -8.680  -8.141  0.00  0.00    +0.210 HD
ENDBRANCH  29  30
ENDBRANCH  27  29
ENDBRANCH   3  27
BRANCH   3  32
ATOM     32  O   UNL     1       0.527  -4.978  -5.436  0.00  0.00    -0.381 OA
ATOM     33  H   UNL     1       1.085  -5.255  -6.175  0.00  0.00    +0.211 HD
ENDBRANCH   3  32
BRANCH   1  34
ATOM     34  O   UNL     1      -0.653  -3.864  -1.622  0.00  0.00    -0.343 OA
BRANCH  34  40
ATOM     35  C   UNL     1      -1.713   0.537  -3.041  0.00  0.00    +0.040 C 
ATOM     36  C   UNL     1      -2.332  -0.779  -2.566  0.00  0.00    +0.145 C 
ATOM     37  C   UNL     1      -3.152  -0.528  -1.298  0.00  0.00    +0.129 C 
ATOM     38  C   UNL     1      -3.719  -1.859  -0.792  0.00  0.00    -0.039 C 
ATOM     39  C   UNL     1      -2.563  -2.836  -0.555  0.00  0.00    +0.048 C 
ATOM     40  C   UNL     1      -1.766  -2.998  -1.852  0.00  0.00    +0.250 C 
ATOM     41  O   UNL     1      -1.294  -1.719  -2.281  0.00  0.00    -0.346 OA
BRANCH  38  44
ATOM     42  H   UNL     1      -4.827  -2.502   0.819  0.00  0.00    -0.090 HD
ATOM     43  H   UNL     1      -3.850  -1.198   1.153  0.00  0.00    -0.090 HD
ATOM     44  N   UNL     1      -4.462  -1.622   0.458  0.00  0.00    +0.382 N 
ATOM     45  H   UNL     1      -5.246  -0.986   0.269  0.00  0.00    -0.090 HD
ENDBRANCH  38  44
BRANCH  37  46
ATOM     46  O   UNL     1      -4.226   0.367  -1.593  0.00  0.00    -0.391 OA
ATOM     47  H   UNL     1      -3.940   1.230  -1.921  0.00  0.00    +0.210 HD
ENDBRANCH  37  46
ENDBRANCH  34  40
ENDBRANCH   1  34
TORSDOF 11
