REMARK  Name = ZINC60167543
REMARK  8 active torsions:
REMARK  status: ('A' for Active; 'I' for Inactive)
REMARK    1  A    between atoms: C_1  and  C_2
REMARK    2  A    between atoms: C_7  and  C_9
REMARK    3  A    between atoms: C_7  and  C_10
REMARK    4  A    between atoms: N_13  and  C_17
REMARK    5  A    between atoms: C_17  and  C_18
REMARK    6  A    between atoms: N_20  and  C_21
REMARK    7  A    between atoms: N_24  and  C_27
REMARK    8  A    between atoms: C_27  and  C_28
REMARK                            x       y       z     vdW  Elec       q    Type
REMARK                         _______ _______ _______ _____ _____    ______ ____
ROOT
ATOM      1  C   UNL     1      -0.955  -5.201  -3.063  0.00  0.00    +0.231 C 
ATOM      2  O   UNL     1      -0.552  -5.427  -1.942  0.00  0.00    -0.274 OA
ATOM      3  N   UNL     1      -0.942  -6.176  -3.994  0.00  0.00    -0.311 N 
ATOM      4  H   UNL     1      -1.264  -5.995  -4.890  0.00  0.00    +0.149 HD
ENDROOT
BRANCH   3   5
ATOM      5  C   UNL     1      -0.441  -7.509  -3.650  0.00  0.00    +0.069 C 
ATOM      6  C   UNL     1       1.081  -7.544  -3.818  0.00  0.00    +0.003 C 
ATOM      7  C   UNL     1       1.587  -8.960  -3.535  0.00  0.00    -0.077 C 
ATOM      8  N   UNL     1       0.968  -9.902  -4.474  0.00  0.00    +0.380 N 
ATOM      9  C   UNL     1      -0.485  -9.927  -4.269  0.00  0.00    -0.077 C 
ATOM     10  C   UNL     1      -1.072  -8.549  -4.581  0.00  0.00    +0.003 C 
ATOM     11  H   UNL     1       1.169  -9.613  -5.420  0.00  0.00    -0.082 HD
BRANCH   8  12
ATOM     12  C   UNL     1       1.516 -11.247  -4.249  0.00  0.00    -0.075 C 
BRANCH  12  13
ATOM     13  C   UNL     1       0.984 -12.200  -5.321  0.00  0.00    -0.028 C 
ATOM     14  C   UNL     1       1.448 -13.625  -5.012  0.00  0.00    +0.002 C 
ATOM     15  C   UNL     1       0.916 -14.578  -6.084  0.00  0.00    +0.000 C 
ATOM     16  C   UNL     1       1.449 -14.154  -7.454  0.00  0.00    +0.000 C 
ATOM     17  C   UNL     1       0.985 -12.729  -7.763  0.00  0.00    +0.000 C 
ATOM     18  C   UNL     1       1.517 -11.776  -6.691  0.00  0.00    +0.002 C 
ENDBRANCH  12  13
ENDBRANCH   8  12
ENDBRANCH   3   5
BRANCH   1  19
ATOM     19  C   UNL     1      -1.470  -3.829  -3.417  0.00  0.00    +0.213 C 
BRANCH  19  31
ATOM     20  C   UNL     1       1.065   1.867  -0.858  0.00  0.00    +0.007 C 
ATOM     21  C   UNL     1       0.979   0.341  -0.757  0.00  0.00    -0.011 C 
ATOM     22  C   UNL     1      -0.490  -0.075  -0.644  0.00  0.00    +0.038 C 
ATOM     23  C   UNL     1      -0.590  -1.594  -0.593  0.00  0.00    +0.113 C 
ATOM     24  C   UNL     1       0.264  -2.203   0.501  0.00  0.00    +0.041 C 
ATOM     25  C   UNL     1       1.671  -1.645   0.622  0.00  0.00    -0.032 C 
ATOM     26  C   UNL     1       1.713  -0.126   0.497  0.00  0.00    +0.009 C 
ATOM     27  C   UNL     1       2.599  -2.283  -0.415  0.00  0.00    +0.011 C 
ATOM     28  C   UNL     1       2.214  -2.016   2.019  0.00  0.00    +0.011 C 
ATOM     29  C   UNL     1      -0.303  -2.197  -1.945  0.00  0.00    +0.247 C 
ATOM     30  O   UNL     1       0.671  -2.034  -2.648  0.00  0.00    -0.273 OA
ATOM     31  N   UNL     1      -1.379  -2.957  -2.244  0.00  0.00    -0.215 N 
ATOM     32  C   UNL     1      -2.349  -2.811  -1.335  0.00  0.00    +0.310 C 
ATOM     33  O   UNL     1      -3.422  -3.381  -1.394  0.00  0.00    -0.252 OA
ATOM     34  N   UNL     1      -2.002  -1.967  -0.349  0.00  0.00    -0.285 N 
ATOM     35  H   UNL     1      -2.554  -1.655   0.383  0.00  0.00    +0.151 HD
ENDBRANCH  19  31
ENDBRANCH   1  19
TORSDOF 5
