REMARK  Name = ZINC13803189
REMARK  11 active torsions:
REMARK  status: ('A' for Active; 'I' for Inactive)
REMARK    1  A    between atoms: C_1  and  O_2
REMARK    2  A    between atoms: O_2  and  C_3
REMARK    3  A    between atoms: C_6  and  C_9
REMARK    4  A    between atoms: C_11  and  C_15
REMARK    5  A    between atoms: C_15  and  C_17
REMARK    6  A    between atoms: C_15  and  N_20
REMARK    7  A    between atoms: C_17  and  C_18
REMARK    8  A    between atoms: C_21  and  C_23
REMARK    9  A    between atoms: C_30  and  C_32
REMARK   10  A    between atoms: C_32  and  C_33
REMARK   11  A    between atoms: C_33  and  C_34
REMARK                            x       y       z     vdW  Elec       q    Type
REMARK                         _______ _______ _______ _____ _____    ______ ____
ROOT
ATOM      1  N   UNL     1       0.071   0.097   0.024  0.00  0.00    -0.308 N 
ATOM      2  C   UNL     1       0.209   1.434   0.129  0.00  0.00    +0.218 C 
ATOM      3  O   UNL     1       1.315   1.927   0.186  0.00  0.00    -0.275 OA
ATOM      4  H   UNL     1      -0.812  -0.303   0.051  0.00  0.00    +0.149 HD
ENDROOT
BRANCH   2   5
ATOM      5  C   UNL     1      -1.012   2.316   0.170  0.00  0.00    +0.092 C 
ATOM      6  C   UNL     1      -1.874   1.940   1.378  0.00  0.00    +0.016 C 
ATOM      7  C   UNL     1      -3.130   2.813   1.402  0.00  0.00    +0.020 C 
ATOM      8  C   UNL     1      -2.723   4.284   1.538  0.00  0.00    +0.108 C 
ATOM      9  N   UNL     1      -1.779   4.614   0.461  0.00  0.00    -0.301 N 
ATOM     10  C   UNL     1      -0.581   3.781   0.292  0.00  0.00    +0.120 C 
ATOM     11  C   UNL     1      -2.008   5.662  -0.355  0.00  0.00    +0.216 C 
ATOM     12  O   UNL     1      -1.221   5.924  -1.240  0.00  0.00    -0.276 OA
BRANCH  11  13
ATOM     13  C   UNL     1      -3.241   6.507  -0.169  0.00  0.00    +0.096 C 
BRANCH  13  14
ATOM     14  C   UNL     1      -3.260   7.621  -1.218  0.00  0.00    +0.012 C 
BRANCH  14  15
ATOM     15  C   UNL     1      -4.512   8.479  -1.028  0.00  0.00    -0.014 C 
ATOM     16  C   UNL     1      -5.758   7.638  -1.320  0.00  0.00    -0.016 C 
ATOM     17  C   UNL     1      -7.004   8.517  -1.188  0.00  0.00    -0.082 C 
ATOM     18  C   UNL     1      -5.753  10.486  -1.843  0.00  0.00    -0.082 C 
ATOM     19  C   UNL     1      -4.470   9.666  -1.995  0.00  0.00    -0.016 C 
ATOM     20  N   UNL     1      -6.924   9.639  -2.143  0.00  0.00    +0.379 N 
ATOM     21  H   UNL     1      -7.778  10.205  -2.072  0.00  0.00    -0.086 HD
ATOM     22  H   UNL     1      -6.837   9.267  -3.096  0.00  0.00    -0.086 HD
ENDBRANCH  14  15
ENDBRANCH  13  14
ENDBRANCH  11  13
ENDBRANCH   2   5
BRANCH   1  23
ATOM     23  C   UNL     1       1.256  -0.751  -0.130  0.00  0.00    +0.115 C 
BRANCH  23  26
ATOM     24  C   UNL     1       1.479  -4.215   1.370  0.00  0.00    +0.001 A 
ATOM     25  C   UNL     1       1.833  -2.912   1.007  0.00  0.00    +0.017 A 
ATOM     26  C   UNL     1       0.922  -2.161   0.285  0.00  0.00    -0.008 A 
ATOM     27  C   UNL     1      -0.301  -2.716  -0.046  0.00  0.00    +0.116 A 
ATOM     28  N   UNL     1      -0.605  -3.950   0.306  0.00  0.00    -0.262 NA
ATOM     29  C   UNL     1       0.230  -4.703   0.993  0.00  0.00    +0.119 A 
BRANCH  24  33
ATOM     30  C   UNL     1       4.172  -6.649   3.586  0.00  0.00    +0.120 A 
ATOM     31  C   UNL     1       2.930  -7.148   3.219  0.00  0.00    +0.046 A 
ATOM     32  C   UNL     1       2.054  -6.361   2.500  0.00  0.00    +0.012 A 
ATOM     33  C   UNL     1       2.418  -5.064   2.143  0.00  0.00    -0.016 A 
ATOM     34  C   UNL     1       3.668  -4.567   2.510  0.00  0.00    +0.012 A 
ATOM     35  C   UNL     1       4.537  -5.357   3.232  0.00  0.00    +0.046 A 
BRANCH  30  37
ATOM     36  C   UNL     1       6.294  -6.851   4.639  0.00  0.00    +0.277 C 
ATOM     37  O   UNL     1       5.033  -7.427   4.294  0.00  0.00    -0.495 OA
ENDBRANCH  30  37
ENDBRANCH  24  33
ENDBRANCH  23  26
BRANCH  23  38
ATOM     38  C   UNL     1       1.702  -0.743  -1.593  0.00  0.00    +0.152 C 
BRANCH  38  39
ATOM     39  C   UNL     1       3.011  -1.478  -1.724  0.00  0.00    +0.358 C 
ATOM     40  O   UNL     1       3.592  -1.857  -0.734  0.00  0.00    -0.246 OA
ATOM     41  O   UNL     1       3.531  -1.712  -2.939  0.00  0.00    -0.246 OA
ENDBRANCH  38  39
ENDBRANCH  23  38
ENDBRANCH   1  23
TORSDOF 10
