REMARK  Name = ZINC12801212
REMARK  12 active torsions:
REMARK  status: ('A' for Active; 'I' for Inactive)
REMARK    1  A    between atoms: C_1  and  C_2
REMARK    2  A    between atoms: C_2  and  C_3
REMARK    3  A    between atoms: C_3  and  C_4
REMARK    4  A    between atoms: C_4  and  N_5
REMARK    5  A    between atoms: C_6  and  N_36
REMARK    6  A    between atoms: C_7  and  N_14
REMARK    7  A    between atoms: N_14  and  C_15
REMARK    8  A    between atoms: C_15  and  C_16
REMARK    9  A    between atoms: C_22  and  C_24
REMARK   10  A    between atoms: C_25  and  C_26
REMARK   11  A    between atoms: C_31  and  O_32
REMARK   12  A    between atoms: O_32  and  C_33
REMARK                            x       y       z     vdW  Elec       q    Type
REMARK                         _______ _______ _______ _____ _____    ______ ____
ROOT
ATOM      1  N   UNL     1       4.062  -1.038  -1.425  0.00  0.00    -0.256 N 
ATOM      2  C   UNL     1       3.591  -2.150  -2.024  0.00  0.00    +0.244 C 
ATOM      3  O   UNL     1       3.829  -2.356  -3.200  0.00  0.00    -0.270 OA
ENDROOT
BRANCH   1   6
ATOM      4  N   UNL     1       7.058   0.845  -2.413  0.00  0.00    -0.280 N 
ATOM      5  C   UNL     1       6.235  -0.003  -1.710  0.00  0.00    +0.127 A 
ATOM      6  C   UNL     1       4.931  -0.175  -2.125  0.00  0.00    +0.140 A 
ATOM      7  C   UNL     1       4.483   0.522  -3.264  0.00  0.00    +0.277 A 
ATOM      8  O   UNL     1       3.337   0.386  -3.656  0.00  0.00    -0.266 OA
ATOM      9  N   UNL     1       5.329   1.345  -3.914  0.00  0.00    -0.273 N 
ATOM     10  H   UNL     1       5.010   1.847  -4.718  0.00  0.00    +0.173 HD
ATOM     11  C   UNL     1       6.597   1.500  -3.494  0.00  0.00    +0.331 A 
ATOM     12  O   UNL     1       7.340   2.246  -4.103  0.00  0.00    -0.246 OA
BRANCH   5  13
ATOM     13  N   UNL     1       6.707  -0.672  -0.605  0.00  0.00    -0.343 N 
ATOM     14  H   UNL     1       6.145  -1.323  -0.156  0.00  0.00    +0.144 HD
ATOM     15  H   UNL     1       7.601  -0.493  -0.275  0.00  0.00    +0.144 HD
ENDBRANCH   5  13
BRANCH   4  16
ATOM     16  C   UNL     1       8.446   1.036  -1.984  0.00  0.00    +0.128 C 
BRANCH  16  17
ATOM     17  C   UNL     1       9.340   0.005  -2.675  0.00  0.00    +0.021 C 
BRANCH  17  19
ATOM     18  C   UNL     1      11.684  -0.826  -2.918  0.00  0.00    +0.004 C 
ATOM     19  C   UNL     1      10.790   0.205  -2.227  0.00  0.00    -0.002 C 
ENDBRANCH  17  19
ENDBRANCH  16  17
ENDBRANCH   4  16
ENDBRANCH   1   6
BRANCH   2  20
ATOM     20  C   UNL     1       2.793  -3.108  -1.260  0.00  0.00    +0.068 C 
ATOM     21  C   UNL     1       2.320  -4.222  -1.859  0.00  0.00    +0.016 C 
BRANCH  21  22
ATOM     22  C   UNL     1       1.518  -5.185  -1.092  0.00  0.00    +0.017 A 
ATOM     23  C   UNL     1       1.242  -4.953   0.260  0.00  0.00    +0.011 A 
ATOM     24  C   UNL     1       0.490  -5.860   0.972  0.00  0.00    +0.001 A 
ATOM     25  C   UNL     1       0.005  -7.003   0.357  0.00  0.00    +0.004 A 
ATOM     26  C   UNL     1       0.270  -7.246  -0.977  0.00  0.00    +0.046 A 
ATOM     27  C   UNL     1       1.020  -6.342  -1.712  0.00  0.00    +0.134 A 
BRANCH  27  28
ATOM     28  O   UNL     1       1.276  -6.576  -3.024  0.00  0.00    -0.434 OA
BRANCH  28  29
ATOM     29  C   UNL     1       0.736  -7.773  -3.587  0.00  0.00    +0.541 C 
ATOM     30  F   UNL     1       1.244  -8.882  -2.901  0.00  0.00    -0.166 F 
ATOM     31  F   UNL     1      -0.659  -7.755  -3.473  0.00  0.00    -0.166 F 
ENDBRANCH  28  29
ENDBRANCH  27  28
ENDBRANCH  21  22
ENDBRANCH   2  20
BRANCH   1  32
ATOM     32  C   UNL     1       3.673  -0.726  -0.048  0.00  0.00    +0.149 C 
BRANCH  32  33
ATOM     33  C   UNL     1       2.369   0.029  -0.053  0.00  0.00    -0.030 A 
ATOM     34  C   UNL     1       1.171  -0.660  -0.089  0.00  0.00    +0.005 A 
ATOM     35  C   UNL     1      -0.025   0.033  -0.094  0.00  0.00    +0.000 A 
ATOM     36  C   UNL     1      -0.023   1.415  -0.063  0.00  0.00    +0.000 A 
ATOM     37  C   UNL     1       1.175   2.104  -0.026  0.00  0.00    +0.000 A 
ATOM     38  C   UNL     1       2.371   1.411  -0.022  0.00  0.00    +0.005 A 
ENDBRANCH  32  33
ENDBRANCH   1  32
TORSDOF 11
