REMARK  Name = ZINC40626167
REMARK  8 active torsions:
REMARK  status: ('A' for Active; 'I' for Inactive)
REMARK    1  A    between atoms: C_1  and  C_2
REMARK    2  A    between atoms: C_2  and  C_31
REMARK    3  A    between atoms: C_4  and  N_10
REMARK    4  A    between atoms: C_6  and  C_8
REMARK    5  A    between atoms: C_6  and  C_9
REMARK    6  A    between atoms: C_12  and  N_28
REMARK    7  A    between atoms: C_13  and  N_17
REMARK    8  A    between atoms: N_17  and  C_18
REMARK                            x       y       z     vdW  Elec       q    Type
REMARK                         _______ _______ _______ _____ _____    ______ ____
ROOT
ATOM      1  N   UNL     1       2.589  -0.784  -2.652  0.00  0.00    -0.324 N 
ATOM      2  C   UNL     1       3.787  -0.299  -3.154  0.00  0.00    +0.155 A 
ATOM      3  C   UNL     1       4.296  -0.782  -4.356  0.00  0.00    +0.205 A 
ATOM      4  C   UNL     1       5.502  -0.263  -4.816  0.00  0.00    +0.159 A 
ATOM      5  N   UNL     1       6.122   0.670  -4.095  0.00  0.00    -0.218 NA
ATOM      6  C   UNL     1       5.607   1.101  -2.962  0.00  0.00    +0.225 A 
ATOM      7  N   UNL     1       4.465   0.639  -2.495  0.00  0.00    -0.218 NA
ATOM      8  H   UNL     1       2.101  -1.467  -3.138  0.00  0.00    +0.148 HD
ENDROOT
BRANCH   1  12
ATOM      9  C   UNL     1      -0.035   1.590  -0.030  0.00  0.00    -0.010 C 
ATOM     10  C   UNL     1      -0.034   0.058  -0.042  0.00  0.00    -0.072 C 
ATOM     11  C   UNL     1       0.541  -0.447  -1.362  0.00  0.00    +0.009 C 
ATOM     12  C   UNL     1       2.058  -0.263  -1.387  0.00  0.00    +0.069 C 
ATOM     13  C   UNL     1       2.654  -1.058  -0.225  0.00  0.00    +0.009 C 
ATOM     14  C   UNL     1       2.095  -0.559   1.103  0.00  0.00    -0.072 C 
ATOM     15  N   UNL     1       0.645  -0.479   1.124  0.00  0.00    +0.386 N 
ATOM     16  C   UNL     1       2.732   0.788   1.460  0.00  0.00    -0.010 C 
ATOM     17  C   UNL     1       2.526  -1.567   2.194  0.00  0.00    -0.010 C 
ATOM     18  C   UNL     1      -1.511  -0.398   0.022  0.00  0.00    -0.010 C 
ATOM     19  H   UNL     1       0.365   0.072   1.941  0.00  0.00    -0.084 HD
ATOM     20  H   UNL     1       0.275  -1.418   1.305  0.00  0.00    -0.084 HD
ENDBRANCH   1  12
BRANCH   3  21
ATOM     21  N   UNL     1       3.573  -1.821  -5.124  0.00  0.00    +0.063 N 
ATOM     22  O   UNL     1       2.759  -1.499  -5.958  0.00  0.00    -0.126 OA
ATOM     23  O   UNL     1       3.798  -2.990  -4.918  0.00  0.00    -0.126 OA
ENDBRANCH   3  21
BRANCH   4  24
ATOM     24  N   UNL     1       6.052  -0.711  -6.008  0.00  0.00    -0.296 N 
ATOM     25  H   UNL     1       5.642  -1.451  -6.484  0.00  0.00    +0.154 HD
BRANCH  24  26
ATOM     26  C   UNL     1       7.194  -0.099  -6.524  0.00  0.00    +0.059 A 
ATOM     27  C   UNL     1       7.494   1.204  -6.190  0.00  0.00    +0.025 A 
ATOM     28  C   UNL     1       8.630   1.827  -6.697  0.00  0.00    +0.003 A 
ATOM     29  C   UNL     1       9.476   1.167  -7.536  0.00  0.00    +0.010 A 
ATOM     30  C   UNL     1       9.205  -0.162  -7.900  0.00  0.00    +0.002 A 
ATOM     31  C   UNL     1       8.056  -0.811  -7.387  0.00  0.00    +0.092 A 
ATOM     32  N   UNL     1       7.798  -2.076  -7.727  0.00  0.00    -0.253 NA
ATOM     33  C   UNL     1       8.594  -2.743  -8.528  0.00  0.00    +0.111 A 
ATOM     34  C   UNL     1       9.744  -2.167  -9.063  0.00  0.00    +0.020 A 
ATOM     35  C   UNL     1      10.060  -0.872  -8.765  0.00  0.00    +0.011 A 
ENDBRANCH  24  26
ENDBRANCH   4  24
TORSDOF 4
