REMARK  Name = ZINC25604424
REMARK  5 active torsions:
REMARK  status: ('A' for Active; 'I' for Inactive)
REMARK    1  A    between atoms: C_3  and  C_6
REMARK    2  A    between atoms: C_6  and  N_7
REMARK    3  A    between atoms: C_11  and  C_13
REMARK    4  A    between atoms: C_13  and  N_14
REMARK    5  A    between atoms: C_20  and  C_22
REMARK                            x       y       z     vdW  Elec       q    Type
REMARK                         _______ _______ _______ _____ _____    ______ ____
ROOT
ATOM      1  N   UNL     1       0.612   3.518  -0.248  0.00  0.00    +0.387 N 
ATOM      2  C   UNL     1       0.220   2.190  -0.738  0.00  0.00    -0.059 C 
ATOM      3  C   UNL     1       0.457   1.152   0.365  0.00  0.00    +0.089 C 
ATOM      4  N   UNL     1      -0.236   1.595   1.585  0.00  0.00    -0.301 N 
ATOM      5  C   UNL     1      -0.002   2.968   2.058  0.00  0.00    +0.089 C 
ATOM      6  C   UNL     1      -0.220   3.934   0.888  0.00  0.00    -0.059 C 
ATOM      7  C   UNL     1      -1.067   0.766   2.248  0.00  0.00    +0.246 C 
ATOM      8  O   UNL     1      -1.170  -0.395   1.903  0.00  0.00    -0.270 OA
ATOM      9  H   UNL     1       1.651   3.451   0.105  0.00  0.00    -0.081 HD
ENDROOT
BRANCH   7  10
ATOM     10  C   UNL     1      -1.853   1.269   3.393  0.00  0.00    +0.037 A 
ATOM     11  C   UNL     1      -2.322   2.584   3.398  0.00  0.00    +0.014 A 
ATOM     12  C   UNL     1      -3.060   3.046   4.468  0.00  0.00    +0.021 A 
ATOM     13  C   UNL     1      -3.327   2.212   5.540  0.00  0.00    +0.041 A 
ATOM     14  C   UNL     1      -2.860   0.908   5.544  0.00  0.00    +0.021 A 
ATOM     15  C   UNL     1      -2.126   0.433   4.478  0.00  0.00    +0.014 A 
ATOM     16 CL   UNL     1      -4.252   2.802   6.886  0.00  0.00    -0.084 Cl
ENDBRANCH   7  10
BRANCH   1  17
ATOM     17  C   UNL     1       0.563   4.513  -1.328  0.00  0.00    +0.019 C 
BRANCH  17  22
ATOM     18  N   UNL     1      -2.744   6.724  -4.027  0.00  0.00    -0.294 N 
ATOM     19  C   UNL     1      -2.439   5.776  -3.119  0.00  0.00    +0.306 C 
ATOM     20  O   UNL     1      -3.311   5.056  -2.675  0.00  0.00    -0.252 OA
ATOM     21  N   UNL     1      -1.166   5.627  -2.702  0.00  0.00    -0.242 N 
ATOM     22  C   UNL     1      -0.860   4.679  -1.794  0.00  0.00    +0.204 C 
ATOM     23  O   UNL     1      -1.731   3.961  -1.352  0.00  0.00    -0.277 OA
ATOM     24  H   UNL     1      -1.954   7.376  -4.428  0.00  0.00    +0.151 HD
ATOM     25  H   UNL     1      -0.376   6.279  -3.103  0.00  0.00    +0.159 HD
BRANCH  18  26
ATOM     26  C   UNL     1      -4.128   6.886  -4.479  0.00  0.00    +0.148 C 
BRANCH  26  29
ATOM     27  C   UNL     1      -4.170   9.117  -7.567  0.00  0.00    +0.008 A 
ATOM     28  C   UNL     1      -4.061   7.950  -6.834  0.00  0.00    +0.013 A 
ATOM     29  C   UNL     1      -4.199   8.005  -5.487  0.00  0.00    +0.007 A 
ATOM     30  S   UNL     1      -4.481   9.746  -5.214  0.00  0.00    -0.100 S 
ATOM     31  C   UNL     1      -4.402  10.283  -6.915  0.00  0.00    +0.045 A 
ENDBRANCH  26  29
ENDBRANCH  18  26
ENDBRANCH  17  22
ENDBRANCH   1  17
TORSDOF 5
