REMARK  Name = ZINC34756623
REMARK  5 active torsions:
REMARK  status: ('A' for Active; 'I' for Inactive)
REMARK    1  A    between atoms: C_9  and  S_13
REMARK    2  A    between atoms: S_13  and  C_14
REMARK    3  A    between atoms: C_14  and  C_15
REMARK    4  A    between atoms: N_25  and  C_28
REMARK    5  A    between atoms: C_28  and  C_29
REMARK                            x       y       z     vdW  Elec       q    Type
REMARK                         _______ _______ _______ _____ _____    ______ ____
ROOT
ATOM      1  C   UNL     1       0.018   1.515  -0.024  0.00  0.00    +0.005 C 
ATOM      2  C   UNL     1       1.456   2.041  -0.041  0.00  0.00    +0.005 C 
ATOM      3  C   UNL     1       2.101   1.751   1.322  0.00  0.00    +0.043 C 
ATOM      4  C   UNL     1       1.824   0.324   1.684  0.00  0.00    -0.004 A 
ATOM      5  C   UNL     1       0.915  -0.502   1.120  0.00  0.00    -0.025 A 
ATOM      6  C   UNL     1       0.840  -1.853   1.655  0.00  0.00    +0.051 A 
ATOM      7  C   UNL     1      -0.032  -2.897   1.230  0.00  0.00    +0.134 A 
ATOM      8  N   UNL     1       0.088  -4.055   1.876  0.00  0.00    -0.206 NA
ATOM      9  C   UNL     1       0.949  -4.266   2.860  0.00  0.00    +0.191 A 
ATOM     10  N   UNL     1       1.791  -3.330   3.304  0.00  0.00    -0.214 NA
ATOM     11  C   UNL     1       1.734  -2.152   2.713  0.00  0.00    +0.115 A 
ATOM     12  S   UNL     1       2.618  -0.644   2.943  0.00  0.00    -0.073 S 
ATOM     13  N   UNL     1      -0.946  -2.719   0.208  0.00  0.00    -0.318 N 
ATOM     14  C   UNL     1      -2.342  -2.357   0.496  0.00  0.00    +0.088 C 
ATOM     15  C   UNL     1      -3.261  -3.320  -0.263  0.00  0.00    -0.059 C 
ATOM     16  N   UNL     1      -2.913  -3.304  -1.689  0.00  0.00    +0.387 N 
ATOM     17  C   UNL     1      -1.553  -3.825  -1.878  0.00  0.00    -0.059 C 
ATOM     18  C   UNL     1      -0.548  -2.881  -1.200  0.00  0.00    +0.088 C 
ATOM     19  C   UNL     1       0.025  -0.014  -0.020  0.00  0.00    +0.037 C 
ATOM     20  H   UNL     1      -2.961  -2.358  -2.035  0.00  0.00    -0.081 HD
ENDROOT
BRANCH   9  21
ATOM     21  S   UNL     1       0.986  -5.856   3.617  0.00  0.00    -0.077 S 
BRANCH  21  22
ATOM     22  C   UNL     1       2.278  -5.710   4.883  0.00  0.00    +0.173 C 
BRANCH  22  23
ATOM     23  C   UNL     1       2.414  -7.020   5.615  0.00  0.00    +0.226 C 
ATOM     24  O   UNL     1       1.709  -7.960   5.314  0.00  0.00    -0.275 OA
ATOM     25  N   UNL     1       3.319  -7.147   6.606  0.00  0.00    -0.301 N 
ATOM     26  C   UNL     1       4.229  -6.092   7.076  0.00  0.00    +0.108 C 
ATOM     27  C   UNL     1       5.094  -6.700   8.200  0.00  0.00    +0.020 C 
ATOM     28  C   UNL     1       5.014  -8.223   7.914  0.00  0.00    +0.020 C 
ATOM     29  C   UNL     1       3.556  -8.365   7.402  0.00  0.00    +0.108 C 
ENDBRANCH  22  23
ENDBRANCH  21  22
ENDBRANCH   9  21
BRANCH  16  30
ATOM     30  C   UNL     1      -3.864  -4.142  -2.432  0.00  0.00    +0.019 C 
BRANCH  30  31
ATOM     31  C   UNL     1      -3.585  -4.031  -3.909  0.00  0.00    +0.199 C 
ATOM     32  O   UNL     1      -2.683  -3.323  -4.303  0.00  0.00    -0.278 OA
ATOM     33  N   UNL     1      -4.338  -4.718  -4.791  0.00  0.00    -0.303 N 
ATOM     34  C   UNL     1      -5.461  -5.603  -4.451  0.00  0.00    +0.108 C 
ATOM     35  C   UNL     1      -6.000  -6.187  -5.774  0.00  0.00    +0.020 C 
ATOM     36  C   UNL     1      -4.792  -6.040  -6.737  0.00  0.00    +0.020 C 
ATOM     37  C   UNL     1      -4.175  -4.701  -6.256  0.00  0.00    +0.108 C 
ENDBRANCH  30  31
ENDBRANCH  16  30
TORSDOF 5
