REMARK  Name = ZINC39659158
REMARK  7 active torsions:
REMARK  status: ('A' for Active; 'I' for Inactive)
REMARK    1  A    between atoms: C_1  and  C_2
REMARK    2  A    between atoms: C_2  and  C_36
REMARK    3  A    between atoms: C_5  and  C_8
REMARK    4  A    between atoms: C_8  and  N_9
REMARK    5  A    between atoms: C_10  and  C_12
REMARK    6  A    between atoms: C_23  and  C_25
REMARK    7  A    between atoms: C_29  and  C_31
REMARK                            x       y       z     vdW  Elec       q    Type
REMARK                         _______ _______ _______ _____ _____    ______ ____
ROOT
ATOM      1  C   UNL     1       3.355  -2.246   5.750  0.00  0.00    +0.100 C 
ATOM      2  C   UNL     1       2.283  -1.679   6.708  0.00  0.00    +0.121 C 
ATOM      3  N   UNL     1       1.970  -2.801   7.624  0.00  0.00    -0.296 N 
ATOM      4  C   UNL     1       3.281  -3.441   7.886  0.00  0.00    +0.115 C 
ATOM      5  C   UNL     1       4.010  -3.399   6.528  0.00  0.00    -0.004 C 
ATOM      6  C   UNL     1       5.496  -3.120   6.734  0.00  0.00    -0.010 C 
ATOM      7  C   UNL     1       6.138  -4.307   7.458  0.00  0.00    -0.082 C 
ATOM      8  N   UNL     1       5.954  -5.526   6.662  0.00  0.00    +0.379 N 
ATOM      9  C   UNL     1       4.524  -5.839   6.547  0.00  0.00    -0.082 C 
ATOM     10  C   UNL     1       3.814  -4.717   5.784  0.00  0.00    -0.010 C 
ATOM     11  C   UNL     1       0.764  -3.158   8.111  0.00  0.00    +0.247 C 
ATOM     12  O   UNL     1      -0.242  -2.611   7.704  0.00  0.00    -0.270 OA
ATOM     13  H   UNL     1       6.341  -5.386   5.741  0.00  0.00    -0.086 HD
ATOM     14  H   UNL     1       6.430  -6.295   7.111  0.00  0.00    -0.086 HD
ENDROOT
BRANCH  11  15
ATOM     15  C   UNL     1       0.666  -4.215   9.138  0.00  0.00    +0.038 A 
ATOM     16  C   UNL     1       1.779  -4.540   9.918  0.00  0.00    +0.016 A 
ATOM     17  C   UNL     1       1.682  -5.527  10.875  0.00  0.00    +0.039 A 
ATOM     18  C   UNL     1       0.483  -6.198  11.064  0.00  0.00    +0.135 A 
ATOM     19  C   UNL     1      -0.624  -5.880  10.292  0.00  0.00    +0.091 A 
ATOM     20  C   UNL     1      -0.540  -4.890   9.336  0.00  0.00    +0.028 A 
ATOM     21  F   UNL     1       0.393  -7.165  12.003  0.00  0.00    -0.205 F 
BRANCH  19  22
ATOM     22  C   UNL     1      -1.924  -6.613  10.503  0.00  0.00    +0.420 C 
ATOM     23  F   UNL     1      -2.886  -6.121   9.615  0.00  0.00    -0.166 F 
ATOM     24  F   UNL     1      -1.731  -7.979  10.272  0.00  0.00    -0.166 F 
ATOM     25  F   UNL     1      -2.360  -6.420  11.818  0.00  0.00    -0.166 F 
ENDBRANCH  19  22
ENDBRANCH  11  15
BRANCH   1  27
ATOM     26  N   UNL     1       3.431  -2.853   3.353  0.00  0.00    -0.312 N 
ATOM     27  C   UNL     1       2.711  -2.763   4.489  0.00  0.00    +0.218 C 
ATOM     28  O   UNL     1       1.545  -3.097   4.496  0.00  0.00    -0.275 OA
ATOM     29  H   UNL     1       4.363  -2.586   3.347  0.00  0.00    +0.149 HD
BRANCH  26  30
ATOM     30  C   UNL     1       2.805  -3.356   2.127  0.00  0.00    +0.138 C 
BRANCH  30  35
ATOM     31  C   UNL     1       6.574  -4.814  -0.419  0.00  0.00    +0.074 C 
ATOM     32  C   UNL     1       5.090  -4.976  -0.083  0.00  0.00    +0.165 C 
ATOM     33  O   UNL     1       4.294  -4.309  -1.077  0.00  0.00    -0.347 OA
ATOM     34  C   UNL     1       3.170  -3.764  -0.346  0.00  0.00    +0.196 C 
ATOM     35  C   UNL     1       3.833  -3.357   0.994  0.00  0.00    +0.164 C 
ATOM     36  O   UNL     1       4.819  -4.388   1.196  0.00  0.00    -0.342 OA
ATOM     37  C   UNL     1       4.729  -6.463  -0.052  0.00  0.00    +0.074 C 
ENDBRANCH  30  35
ENDBRANCH  26  30
ENDBRANCH   1  27
TORSDOF 5
