REMARK  Name = ZINC22260965
REMARK  8 active torsions:
REMARK  status: ('A' for Active; 'I' for Inactive)
REMARK    1  A    between atoms: C_1  and  N_2
REMARK    2  A    between atoms: N_7  and  C_10
REMARK    3  A    between atoms: C_13  and  C_15
REMARK    4  A    between atoms: C_15  and  C_16
REMARK    5  A    between atoms: N_18  and  C_19
REMARK    6  A    between atoms: C_19  and  C_21
REMARK    7  A    between atoms: C_19  and  C_32
REMARK    8  A    between atoms: C_21  and  C_22
REMARK                            x       y       z     vdW  Elec       q    Type
REMARK                         _______ _______ _______ _____ _____    ______ ____
ROOT
ATOM      1  C   UNL     1      -3.290   1.858   1.207  0.00  0.00    +0.146 C 
ENDROOT
BRANCH   1   2
ATOM      2  C   UNL     1      -4.740   1.454   1.142  0.00  0.00    +0.129 A 
ATOM      3  N   UNL     1      -5.421   0.829   2.140  0.00  0.00    -0.340 N 
ATOM      4  H   UNL     1      -4.911   0.581   3.082  0.00  0.00    +0.167 HD
ATOM      5  C   UNL     1      -6.714   0.633   1.695  0.00  0.00    +0.066 A 
ATOM      6  C   UNL     1      -7.851   0.061   2.249  0.00  0.00    +0.028 A 
ATOM      7  C   UNL     1      -9.020   0.022   1.521  0.00  0.00    +0.002 A 
ATOM      8  C   UNL     1      -9.068   0.551   0.238  0.00  0.00    +0.002 A 
ATOM      9  C   UNL     1      -7.959   1.118  -0.323  0.00  0.00    +0.030 A 
ATOM     10  C   UNL     1      -6.763   1.169   0.397  0.00  0.00    +0.089 A 
ATOM     11  N   UNL     1      -5.526   1.658   0.124  0.00  0.00    -0.231 NA
ENDBRANCH   1   2
BRANCH   1  14
ATOM     12  C   UNL     1      -2.822   2.092   3.587  0.00  0.00    +0.221 C 
ATOM     13  O   UNL     1      -3.416   3.150   3.570  0.00  0.00    -0.275 OA
ATOM     14  N   UNL     1      -2.703   1.368   2.457  0.00  0.00    -0.305 N 
ATOM     15  H   UNL     1      -2.165   0.409   2.473  0.00  0.00    +0.149 HD
BRANCH  12  16
ATOM     16  C   UNL     1      -2.218   1.588   4.872  0.00  0.00    +0.170 C 
BRANCH  16  29
ATOM     17  C   UNL     1      -1.865   6.781   6.751  0.00  0.00    +0.155 C 
ATOM     18  N   UNL     1      -2.481   5.731   7.567  0.00  0.00    -0.280 N 
ATOM     19  C   UNL     1      -2.561   4.436   7.081  0.00  0.00    +0.168 A 
ATOM     20  C   UNL     1      -3.150   3.458   7.873  0.00  0.00    +0.149 A 
ATOM     21  C   UNL     1      -3.649   3.812   9.146  0.00  0.00    +0.282 A 
ATOM     22  O   UNL     1      -4.171   2.973   9.858  0.00  0.00    -0.265 OA
ATOM     23  N   UNL     1      -3.542   5.091   9.563  0.00  0.00    -0.262 N 
ATOM     24  C   UNL     1      -2.969   6.027   8.786  0.00  0.00    +0.333 A 
ATOM     25  O   UNL     1      -2.889   7.169   9.195  0.00  0.00    -0.246 OA
ATOM     26  C   UNL     1      -4.057   5.465  10.882  0.00  0.00    +0.157 C 
ATOM     27  N   UNL     1      -3.097   2.287   7.145  0.00  0.00    -0.336 N 
ATOM     28  H   UNL     1      -3.512   1.359   7.565  0.00  0.00    +0.167 HD
ATOM     29  C   UNL     1      -2.491   2.577   5.977  0.00  0.00    +0.119 A 
ATOM     30  N   UNL     1      -2.179   3.847   5.945  0.00  0.00    -0.214 NA
ENDBRANCH  16  29
ENDBRANCH  12  16
ENDBRANCH   1  14
BRANCH   1  31
ATOM     31  C   UNL     1      -2.538   1.255   0.019  0.00  0.00    +0.104 C 
BRANCH  31  32
ATOM     32  C   UNL     1      -1.118   1.757   0.016  0.00  0.00    +0.110 A 
ATOM     33  N   UNL     1      -0.011   0.966   0.007  0.00  0.00    -0.342 N 
ATOM     34  H   UNL     1      -0.118  -0.129   0.006  0.00  0.00    +0.167 HD
ATOM     35  C   UNL     1       1.090   1.799   0.001  0.00  0.00    +0.066 A 
ATOM     36  C   UNL     1       2.462   1.588  -0.013  0.00  0.00    +0.028 A 
ATOM     37  C   UNL     1       3.318   2.668  -0.016  0.00  0.00    +0.002 A 
ATOM     38  C   UNL     1       2.818   3.963  -0.005  0.00  0.00    +0.002 A 
ATOM     39  C   UNL     1       1.471   4.189   0.008  0.00  0.00    +0.030 A 
ATOM     40  C   UNL     1       0.584   3.110   0.012  0.00  0.00    +0.089 A 
ATOM     41  N   UNL     1      -0.770   3.011   0.024  0.00  0.00    -0.232 NA
ENDBRANCH  31  32
ENDBRANCH   1  31
TORSDOF 6
