REMARK  Name = ZINC32676326
REMARK  5 active torsions:
REMARK  status: ('A' for Active; 'I' for Inactive)
REMARK    1  A    between atoms: C_1  and  C_2
REMARK    2  A    between atoms: C_5  and  C_16
REMARK    3  A    between atoms: N_8  and  C_10
REMARK    4  A    between atoms: N_18  and  C_19
REMARK    5  A    between atoms: N_25  and  C_28
REMARK                            x       y       z     vdW  Elec       q    Type
REMARK                         _______ _______ _______ _____ _____    ______ ____
ROOT
ATOM      1  C   UNL     1       1.714   6.255  -0.472  0.00  0.00    +0.251 C 
ATOM      2  O   UNL     1       1.315   6.339   0.675  0.00  0.00    -0.270 OA
ATOM      3  N   UNL     1       2.289   5.114  -0.903  0.00  0.00    -0.304 N 
ATOM      4  H   UNL     1       2.649   5.038  -1.940  0.00  0.00    +0.150 HD
ENDROOT
BRANCH   3   5
ATOM      5  C   UNL     1       2.433   3.977   0.008  0.00  0.00    +0.111 C 
ATOM      6  C   UNL     1       3.599   3.099  -0.454  0.00  0.00    +0.075 C 
ATOM      7  C   UNL     1       3.549   1.780   0.325  0.00  0.00    +0.109 C 
ATOM      8  C   UNL     1       4.763   0.924  -0.042  0.00  0.00    +0.029 C 
ATOM      9  C   UNL     1       4.743  -0.364   0.785  0.00  0.00    -0.075 C 
ATOM     10  N   UNL     1       4.768  -0.029   2.215  0.00  0.00    +0.378 N 
ATOM     11  C   UNL     1       3.583   0.750   2.599  0.00  0.00    -0.075 C 
ATOM     12  C   UNL     1       3.567   2.071   1.826  0.00  0.00    +0.029 C 
ATOM     13  C   UNL     1       4.891  -1.240   3.037  0.00  0.00    -0.096 C 
ATOM     14  O   UNL     1       2.350   1.089  -0.021  0.00  0.00    -0.485 OA
ATOM     15  C   UNL     1       1.184   1.785   0.000  0.00  0.00    +0.126 A 
ATOM     16  C   UNL     1       1.160   3.169   0.009  0.00  0.00    +0.015 A 
ATOM     17  C   UNL     1      -0.052   3.838   0.021  0.00  0.00    +0.009 A 
ATOM     18  C   UNL     1      -1.239   3.130   0.028  0.00  0.00    +0.001 A 
ATOM     19  C   UNL     1      -1.218   1.747   0.017  0.00  0.00    +0.004 A 
ATOM     20  C   UNL     1      -0.013   1.076   0.008  0.00  0.00    +0.046 A 
ATOM     21  H   UNL     1       5.653   0.597   2.397  0.00  0.00    -0.082 HD
ENDBRANCH   3   5
BRANCH   1  26
ATOM     22  C   UNL     1      -0.132  11.792  -1.330  0.00  0.00    +0.068 C 
ATOM     23  C   UNL     1       0.531  10.923  -2.368  0.00  0.00    +0.069 A 
ATOM     24  C   UNL     1       0.980   9.578  -2.161  0.00  0.00    +0.031 A 
ATOM     25  C   UNL     1       1.016   8.615  -1.140  0.00  0.00    +0.032 A 
ATOM     26  C   UNL     1       1.569   7.393  -1.384  0.00  0.00    +0.076 A 
ATOM     27  S   UNL     1       2.065   7.522  -3.093  0.00  0.00    -0.064 S 
ATOM     28  C   UNL     1       1.524   9.185  -3.393  0.00  0.00    +0.113 A 
ATOM     29  N   UNL     1       1.408  10.211  -4.261  0.00  0.00    -0.225 N 
ATOM     30  N   UNL     1       0.787  11.274  -3.592  0.00  0.00    -0.170 NA
BRANCH  29  31
ATOM     31  C   UNL     1       1.833  10.213  -5.596  0.00  0.00    +0.067 A 
ATOM     32  C   UNL     1       2.986   9.531  -5.960  0.00  0.00    +0.028 A 
ATOM     33  C   UNL     1       3.399   9.530  -7.278  0.00  0.00    +0.002 A 
ATOM     34  C   UNL     1       2.672  10.218  -8.232  0.00  0.00    +0.000 A 
ATOM     35  C   UNL     1       1.527  10.903  -7.872  0.00  0.00    +0.002 A 
ATOM     36  C   UNL     1       1.105  10.903  -6.557  0.00  0.00    +0.028 A 
ENDBRANCH  29  31
ENDBRANCH   1  26
TORSDOF 3
