REMARK  Name = ZINC39626873
REMARK  10 active torsions:
REMARK  status: ('A' for Active; 'I' for Inactive)
REMARK    1  A    between atoms: C_1  and  C_2
REMARK    2  A    between atoms: C_2  and  N_3
REMARK    3  A    between atoms: N_3  and  C_4
REMARK    4  A    between atoms: N_3  and  C_6
REMARK    5  A    between atoms: C_4  and  C_5
REMARK    6  A    between atoms: C_6  and  C_7
REMARK    7  A    between atoms: C_7  and  N_8
REMARK    8  A    between atoms: C_9  and  C_11
REMARK    9  A    between atoms: C_22  and  C_24
REMARK   10  A    between atoms: C_28  and  C_31
REMARK                            x       y       z     vdW  Elec       q    Type
REMARK                         _______ _______ _______ _____ _____    ______ ____
ROOT
ATOM      1  C   UNL     1       1.822  -5.579  -1.607  0.00  0.00    +0.100 C 
ATOM      2  C   UNL     1       0.382  -6.046  -1.915  0.00  0.00    +0.121 C 
ATOM      3  N   UNL     1       0.314  -6.097  -3.395  0.00  0.00    -0.296 N 
ATOM      4  C   UNL     1       1.631  -6.638  -3.806  0.00  0.00    +0.115 C 
ATOM      5  C   UNL     1       2.640  -5.973  -2.849  0.00  0.00    -0.004 C 
ATOM      6  C   UNL     1       3.737  -6.962  -2.467  0.00  0.00    -0.010 C 
ATOM      7  C   UNL     1       4.573  -7.293  -3.706  0.00  0.00    -0.082 C 
ATOM      8  N   UNL     1       5.162  -6.062  -4.246  0.00  0.00    +0.379 N 
ATOM      9  C   UNL     1       4.100  -5.154  -4.696  0.00  0.00    -0.082 C 
ATOM     10  C   UNL     1       3.244  -4.732  -3.499  0.00  0.00    -0.010 C 
ATOM     11  C   UNL     1      -0.714  -5.733  -4.187  0.00  0.00    +0.251 C 
ATOM     12  O   UNL     1      -0.616  -5.836  -5.395  0.00  0.00    -0.270 OA
ATOM     13  H   UNL     1       5.707  -5.609  -3.527  0.00  0.00    -0.086 HD
ATOM     14  H   UNL     1       5.761  -6.290  -5.025  0.00  0.00    -0.086 HD
ENDROOT
BRANCH  11  15
ATOM     15  C   UNL     1      -1.958  -5.211  -3.589  0.00  0.00    +0.091 A 
ATOM     16  C   UNL     1      -2.110  -3.839  -3.370  0.00  0.00    +0.056 A 
ATOM     17  C   UNL     1      -3.277  -3.357  -2.811  0.00  0.00    +0.021 A 
ATOM     18  C   UNL     1      -4.295  -4.229  -2.467  0.00  0.00    +0.007 A 
ATOM     19  C   UNL     1      -4.154  -5.588  -2.680  0.00  0.00    -0.014 A 
ATOM     20  C   UNL     1      -2.994  -6.085  -3.245  0.00  0.00    +0.140 A 
ATOM     21  F   UNL     1      -2.859  -7.412  -3.458  0.00  0.00    -0.204 F 
ATOM     22  C   UNL     1      -5.269  -6.528  -2.302  0.00  0.00    +0.047 C 
ATOM     23 CL   UNL     1      -0.834  -2.742  -3.798  0.00  0.00    -0.083 Cl
ENDBRANCH  11  15
BRANCH   1  25
ATOM     24  N   UNL     1       2.875  -3.521  -0.726  0.00  0.00    -0.317 N 
ATOM     25  C   UNL     1       1.858  -4.086  -1.407  0.00  0.00    +0.218 C 
ATOM     26  O   UNL     1       0.972  -3.392  -1.859  0.00  0.00    -0.275 OA
ATOM     27  H   UNL     1       3.584  -4.076  -0.364  0.00  0.00    +0.149 HD
BRANCH  24  28
ATOM     28  C   UNL     1       2.910  -2.070  -0.532  0.00  0.00    +0.085 C 
BRANCH  28  29
ATOM     29  C   UNL     1       4.160  -1.692   0.267  0.00  0.00    -0.060 C 
BRANCH  29  30
ATOM     30  N   UNL     1       4.195  -0.237   0.462  0.00  0.00    +0.380 N 
ATOM     31  H   UNL     1       4.136   0.224  -0.434  0.00  0.00    -0.082 HD
BRANCH  30  33
ATOM     32  C   UNL     1       3.014   1.700   1.385  0.00  0.00    -0.017 C 
ATOM     33  C   UNL     1       3.059   0.173   1.299  0.00  0.00    -0.082 C 
ENDBRANCH  30  33
BRANCH  30  34
ATOM     34  C   UNL     1       5.452   0.139   1.123  0.00  0.00    -0.082 C 
ATOM     35  C   UNL     1       6.627  -0.156   0.190  0.00  0.00    -0.017 C 
ENDBRANCH  30  34
ENDBRANCH  29  30
ENDBRANCH  28  29
ENDBRANCH  24  28
ENDBRANCH   1  25
TORSDOF 7
