REMARK  Name = ZINC03061296
REMARK  8 active torsions:
REMARK  status: ('A' for Active; 'I' for Inactive)
REMARK    1  A    between atoms: C_1  and  C_2
REMARK    2  A    between atoms: C_6  and  C_8
REMARK    3  A    between atoms: C_8  and  N_9
REMARK    4  A    between atoms: C_18  and  C_19
REMARK    5  A    between atoms: C_22  and  C_25
REMARK    6  A    between atoms: N_27  and  C_28
REMARK    7  A    between atoms: C_28  and  C_29
REMARK    8  A    between atoms: C_29  and  N_30
REMARK                            x       y       z     vdW  Elec       q    Type
REMARK                         _______ _______ _______ _____ _____    ______ ____
ROOT
ATOM      1  N   UNL     1      -7.962  -3.063   9.685  0.00  0.00    -0.262 N 
ATOM      2  C   UNL     1      -9.156  -3.608  10.136  0.00  0.00    +0.051 A 
ATOM      3  C   UNL     1      -9.562  -3.332  11.441  0.00  0.00    +0.024 A 
ATOM      4  C   UNL     1     -10.742  -3.851  11.931  0.00  0.00    +0.002 A 
ATOM      5  C   UNL     1     -11.541  -4.653  11.134  0.00  0.00    +0.001 A 
ATOM      6  C   UNL     1     -11.153  -4.938   9.839  0.00  0.00    +0.017 A 
ATOM      7  C   UNL     1      -9.968  -4.420   9.341  0.00  0.00    +0.034 A 
ATOM      8  S   UNL     1      -9.476  -4.784   7.688  0.00  0.00    -0.082 S 
ATOM      9  C   UNL     1      -8.445  -3.391   7.308  0.00  0.00    +0.076 C 
ATOM     10  C   UNL     1      -8.442  -2.815   6.080  0.00  0.00    +0.028 C 
ATOM     11  C   UNL     1      -7.593  -2.890   8.413  0.00  0.00    +0.258 C 
ATOM     12  O   UNL     1      -6.551  -2.318   8.158  0.00  0.00    -0.269 OA
ENDROOT
BRANCH  10  13
ATOM     13  C   UNL     1      -7.732  -1.548   5.866  0.00  0.00    -0.024 A 
ATOM     14  C   UNL     1      -7.806  -0.531   6.827  0.00  0.00    +0.009 A 
ATOM     15  C   UNL     1      -7.145   0.646   6.627  0.00  0.00    +0.013 A 
ATOM     16  C   UNL     1      -6.395   0.838   5.462  0.00  0.00    +0.037 A 
ATOM     17  C   UNL     1      -6.324  -0.173   4.500  0.00  0.00    +0.013 A 
ATOM     18  C   UNL     1      -6.979  -1.354   4.700  0.00  0.00    +0.009 A 
BRANCH  16  19
ATOM     19  C   UNL     1      -5.681   2.112   5.247  0.00  0.00    +0.244 C 
ATOM     20  O   UNL     1      -5.746   2.994   6.081  0.00  0.00    -0.270 OA
ATOM     21  N   UNL     1      -4.958   2.298   4.125  0.00  0.00    -0.313 N 
ATOM     22  H   UNL     1      -4.899   1.500   3.370  0.00  0.00    +0.149 HD
BRANCH  21  23
ATOM     23  C   UNL     1      -4.250   3.562   3.911  0.00  0.00    +0.086 C 
BRANCH  23  24
ATOM     24  C   UNL     1      -3.512   3.513   2.571  0.00  0.00    -0.060 C 
BRANCH  24  25
ATOM     25  N   UNL     1      -2.802   4.781   2.357  0.00  0.00    +0.381 N 
ATOM     26  C   UNL     1      -1.889   4.688   1.196  0.00  0.00    -0.079 C 
ATOM     27  C   UNL     1      -2.580   4.959  -0.112  0.00  0.00    -0.019 C 
ATOM     28  C   UNL     1      -2.412   6.454  -0.455  0.00  0.00    -0.002 C 
ATOM     29  C   UNL     1      -3.331   7.299   0.299  0.00  0.00    -0.002 C 
ATOM     30  C   UNL     1      -3.108   7.190   1.822  0.00  0.00    -0.019 C 
ATOM     31  C   UNL     1      -3.747   5.918   2.309  0.00  0.00    -0.079 C 
ATOM     32  H   UNL     1      -2.155   4.977   3.224  0.00  0.00    -0.082 HD
ENDBRANCH  24  25
ENDBRANCH  23  24
ENDBRANCH  21  23
ENDBRANCH  16  19
ENDBRANCH  10  13
BRANCH   1  33
ATOM     33  C   UNL     1      -7.007  -2.633  10.710  0.00  0.00    +0.149 C 
BRANCH  33  39
ATOM     34  C   UNL     1      -6.245  -6.373  13.947  0.00  0.00    +0.044 C 
ATOM     35  C   UNL     1      -5.831  -5.606  12.717  0.00  0.00    -0.050 A 
ATOM     36  C   UNL     1      -4.706  -5.988  12.011  0.00  0.00    +0.003 A 
ATOM     37  C   UNL     1      -4.325  -5.285  10.884  0.00  0.00    +0.001 A 
ATOM     38  C   UNL     1      -5.070  -4.199  10.462  0.00  0.00    +0.005 A 
ATOM     39  C   UNL     1      -6.195  -3.817  11.169  0.00  0.00    -0.029 A 
ATOM     40  C   UNL     1      -6.573  -4.517  12.299  0.00  0.00    +0.008 A 
ENDBRANCH  33  39
ENDBRANCH   1  33
TORSDOF 7
