REMARK  Name = ZINC36557967
REMARK  9 active torsions:
REMARK  status: ('A' for Active; 'I' for Inactive)
REMARK    1  A    between atoms: C_1  and  C_2
REMARK    2  A    between atoms: C_2  and  O_3
REMARK    3  A    between atoms: O_3  and  C_4
REMARK    4  A    between atoms: C_7  and  N_10
REMARK    5  A    between atoms: N_10  and  S_11
REMARK    6  A    between atoms: S_11  and  C_14
REMARK    7  A    between atoms: C_27  and  C_30
REMARK    8  A    between atoms: C_39  and  O_40
REMARK    9  A    between atoms: O_40  and  C_41
REMARK                            x       y       z     vdW  Elec       q    Type
REMARK                         _______ _______ _______ _____ _____    ______ ____
ROOT
ATOM      1  C   UNL     1       2.139  -5.915  -4.383  0.00  0.00    +0.109 A 
ATOM      2  C   UNL     1       2.040  -4.660  -4.955  0.00  0.00    +0.030 A 
ATOM      3  C   UNL     1       3.060  -4.178  -5.751  0.00  0.00    +0.025 A 
ATOM      4  C   UNL     1       4.190  -4.951  -5.986  0.00  0.00    +0.031 A 
ATOM      5  C   UNL     1       4.278  -6.225  -5.414  0.00  0.00    -0.018 A 
ATOM      6  C   UNL     1       3.261  -6.691  -4.609  0.00  0.00    +0.034 A 
ATOM      7  C   UNL     1       5.480  -7.030  -5.721  0.00  0.00    +0.049 C 
ATOM      8  C   UNL     1       5.987  -8.071  -4.790  0.00  0.00    -0.023 C 
ATOM      9  C   UNL     1       7.307  -8.144  -4.914  0.00  0.00    -0.030 C 
ATOM     10  C   UNL     1       7.794  -7.113  -5.934  0.00  0.00    +0.033 C 
ATOM     11  C   UNL     1       6.692  -6.056  -5.830  0.00  0.00    +0.029 C 
ATOM     12  C   UNL     1       6.434  -5.226  -7.074  0.00  0.00    +0.109 C 
ATOM     13  N   UNL     1       5.221  -4.433  -6.780  0.00  0.00    -0.336 N 
ATOM     14  H   UNL     1       5.137  -3.538  -7.144  0.00  0.00    +0.147 HD
ENDROOT
BRANCH  12  15
ATOM     15  C   UNL     1       7.604  -4.314  -7.342  0.00  0.00    +0.022 A 
ATOM     16  C   UNL     1       8.500  -4.603  -8.384  0.00  0.00    -0.009 A 
ATOM     17  C   UNL     1       8.333  -5.738  -9.196  0.00  0.00    +0.009 A 
ATOM     18  C   UNL     1       9.221  -5.987 -10.197  0.00  0.00    +0.001 A 
ATOM     19  C   UNL     1      10.296  -5.132 -10.431  0.00  0.00    +0.001 A 
ATOM     20  C   UNL     1      10.490  -4.024  -9.665  0.00  0.00    +0.008 A 
ATOM     21  C   UNL     1       9.594  -3.733  -8.622  0.00  0.00    -0.017 A 
ATOM     22  C   UNL     1       9.762  -2.597  -7.812  0.00  0.00    +0.012 A 
ATOM     23  C   UNL     1       8.877  -2.345  -6.811  0.00  0.00    +0.046 A 
ATOM     24  C   UNL     1       7.794  -3.199  -6.577  0.00  0.00    +0.126 A 
BRANCH  24  25
ATOM     25  O   UNL     1       6.923  -2.917  -5.573  0.00  0.00    -0.495 OA
ATOM     26  C   UNL     1       7.174  -1.737  -4.808  0.00  0.00    +0.277 C 
ENDBRANCH  24  25
ENDBRANCH  12  15
BRANCH   1  27
ATOM     27  S   UNL     1       0.839  -6.522  -3.361  0.00  0.00    +0.072 S 
ATOM     28  O   UNL     1       1.005  -7.931  -3.286  0.00  0.00    -0.150 OA
ATOM     29  O   UNL     1      -0.360  -5.921  -3.829  0.00  0.00    -0.150 OA
BRANCH  27  30
ATOM     30  N   UNL     1       1.099  -5.933  -1.835  0.00  0.00    -0.216 N 
ATOM     31  H   UNL     1       0.443  -5.351  -1.421  0.00  0.00    +0.174 HD
BRANCH  30  35
ATOM     32  C   UNL     1       4.576  -6.952   0.227  0.00  0.00    +0.121 A 
ATOM     33  C   UNL     1       4.150  -5.632   0.195  0.00  0.00    +0.047 A 
ATOM     34  C   UNL     1       2.999  -5.294  -0.488  0.00  0.00    +0.028 A 
ATOM     35  C   UNL     1       2.267  -6.275  -1.143  0.00  0.00    +0.048 A 
ATOM     36  C   UNL     1       2.694  -7.596  -1.111  0.00  0.00    +0.028 A 
ATOM     37  C   UNL     1       3.849  -7.932  -0.433  0.00  0.00    +0.047 A 
BRANCH  32  38
ATOM     38  O   UNL     1       5.710  -7.285   0.899  0.00  0.00    -0.492 OA
BRANCH  38  40
ATOM     39  C   UNL     1       7.649  -6.787   2.253  0.00  0.00    +0.048 C 
ATOM     40  C   UNL     1       6.409  -6.225   1.556  0.00  0.00    +0.225 C 
ENDBRANCH  38  40
ENDBRANCH  32  38
ENDBRANCH  30  35
ENDBRANCH  27  30
ENDBRANCH   1  27
TORSDOF 7
