REMARK  Name = ZINC39693461
REMARK  10 active torsions:
REMARK  status: ('A' for Active; 'I' for Inactive)
REMARK    1  A    between atoms: C_1  and  C_2
REMARK    2  A    between atoms: C_2  and  C_3
REMARK    3  A    between atoms: C_2  and  C_4
REMARK    4  A    between atoms: C_2  and  O_5
REMARK    5  A    between atoms: O_5  and  C_6
REMARK    6  A    between atoms: N_8  and  C_9
REMARK    7  A    between atoms: C_9  and  C_10
REMARK    8  A    between atoms: C_10  and  N_11
REMARK    9  A    between atoms: C_12  and  C_14
REMARK   10  A    between atoms: C_25  and  C_27
REMARK                            x       y       z     vdW  Elec       q    Type
REMARK                         _______ _______ _______ _____ _____    ______ ____
ROOT
ATOM      1  C   UNL     1       8.087  -0.219  -5.345  0.00  0.00    +0.100 C 
ATOM      2  C   UNL     1       8.954  -0.677  -4.151  0.00  0.00    +0.121 C 
ATOM      3  N   UNL     1       9.534  -1.970  -4.585  0.00  0.00    -0.295 N 
ATOM      4  C   UNL     1       9.863  -1.766  -6.016  0.00  0.00    +0.115 C 
ATOM      5  C   UNL     1       8.689  -0.932  -6.567  0.00  0.00    -0.004 C 
ATOM      6  C   UNL     1       7.650  -1.847  -7.210  0.00  0.00    -0.010 C 
ATOM      7  C   UNL     1       8.254  -2.502  -8.455  0.00  0.00    -0.082 C 
ATOM      8  N   UNL     1       8.673  -1.462  -9.403  0.00  0.00    +0.379 N 
ATOM      9  C   UNL     1       9.738  -0.643  -8.810  0.00  0.00    -0.082 C 
ATOM     10  C   UNL     1       9.197   0.090  -7.580  0.00  0.00    -0.010 C 
ATOM     11  C   UNL     1       9.721  -3.081  -3.845  0.00  0.00    +0.265 C 
ATOM     12  O   UNL     1       9.307  -3.128  -2.703  0.00  0.00    -0.268 OA
ATOM     13  H   UNL     1       9.014  -1.895 -10.247  0.00  0.00    -0.086 HD
ATOM     14  H   UNL     1       7.883  -0.874  -9.625  0.00  0.00    -0.086 HD
ENDROOT
BRANCH  11  15
ATOM     15  C   UNL     1      10.432  -4.245  -4.423  0.00  0.00    +0.126 A 
ATOM     16  C   UNL     1      10.521  -5.431  -3.697  0.00  0.00    +0.033 A 
ATOM     17  C   UNL     1      11.188  -6.511  -4.251  0.00  0.00    +0.004 A 
ATOM     18  C   UNL     1      11.745  -6.369  -5.513  0.00  0.00    +0.020 A 
ATOM     19  C   UNL     1      11.618  -5.160  -6.178  0.00  0.00    +0.111 A 
ATOM     20  N   UNL     1      10.974  -4.152  -5.631  0.00  0.00    -0.250 NA
ENDBRANCH  11  15
BRANCH   1  22
ATOM     21  N   UNL     1       5.655   0.106  -5.659  0.00  0.00    -0.314 N 
ATOM     22  C   UNL     1       6.654  -0.639  -5.145  0.00  0.00    +0.218 C 
ATOM     23  O   UNL     1       6.399  -1.648  -4.522  0.00  0.00    -0.275 OA
ATOM     24  H   UNL     1       5.859   0.913  -6.157  0.00  0.00    +0.149 HD
BRANCH  21  25
ATOM     25  C   UNL     1       4.262  -0.303  -5.464  0.00  0.00    +0.123 C 
BRANCH  25  26
ATOM     26  C   UNL     1       3.334   0.708  -6.142  0.00  0.00    +0.126 C 
BRANCH  26  29
ATOM     27  C   UNL     1       0.942   1.044  -6.461  0.00  0.00    +0.401 C 
ATOM     28  O   UNL     1       1.197   2.055  -7.085  0.00  0.00    -0.226 OA
ATOM     29  N   UNL     1       1.941   0.299  -5.947  0.00  0.00    -0.280 N 
ATOM     30  H   UNL     1       1.737  -0.507  -5.449  0.00  0.00    +0.152 HD
BRANCH  27  31
ATOM     31  O   UNL     1      -0.338   0.669  -6.282  0.00  0.00    -0.445 OA
BRANCH  31  33
ATOM     32  C   UNL     1      -1.147   1.581  -8.369  0.00  0.00    +0.055 C 
ATOM     33  C   UNL     1      -1.346   1.506  -6.854  0.00  0.00    +0.107 C 
ATOM     34  C   UNL     1      -1.242   2.910  -6.255  0.00  0.00    +0.055 C 
ATOM     35  C   UNL     1      -2.727   0.922  -6.549  0.00  0.00    +0.055 C 
ENDBRANCH  31  33
ENDBRANCH  27  31
ENDBRANCH  26  29
ENDBRANCH  25  26
ENDBRANCH  21  25
ENDBRANCH   1  22
TORSDOF 7
