REMARK  Name = ZINC01807329
REMARK  9 active torsions:
REMARK  status: ('A' for Active; 'I' for Inactive)
REMARK    1  A    between atoms: C_1  and  O_2
REMARK    2  A    between atoms: O_2  and  C_3
REMARK    3  A    between atoms: C_6  and  C_9
REMARK    4  A    between atoms: C_12  and  S_21
REMARK    5  A    between atoms: N_13  and  C_14
REMARK    6  A    between atoms: S_21  and  C_22
REMARK    7  A    between atoms: C_22  and  C_23
REMARK    8  A    between atoms: N_25  and  N_26
REMARK    9  A    between atoms: C_27  and  C_28
REMARK                            x       y       z     vdW  Elec       q    Type
REMARK                         _______ _______ _______ _____ _____    ______ ____
ROOT
ATOM      1  C   UNL     1      -4.959  -2.618   0.035  0.00  0.00    +0.169 A 
ATOM      2  N   UNL     1      -6.123  -2.078   0.313  0.00  0.00    -0.128 NA
ATOM      3  N   UNL     1      -7.050  -2.964   0.227  0.00  0.00    -0.122 NA
ATOM      4  C   UNL     1      -6.537  -4.125  -0.112  0.00  0.00    +0.197 A 
ATOM      5  N   UNL     1      -5.187  -3.946  -0.252  0.00  0.00    -0.270 N 
ENDROOT
BRANCH   5   6
ATOM      6  C   UNL     1      -4.236  -4.912  -0.609  0.00  0.00    +0.051 A 
ATOM      7  C   UNL     1      -3.532  -4.788  -1.799  0.00  0.00    +0.028 A 
ATOM      8  C   UNL     1      -2.596  -5.741  -2.149  0.00  0.00    +0.022 A 
ATOM      9  C   UNL     1      -2.359  -6.819  -1.314  0.00  0.00    +0.041 A 
ATOM     10  C   UNL     1      -3.059  -6.944  -0.127  0.00  0.00    +0.022 A 
ATOM     11  C   UNL     1      -3.992  -5.990   0.230  0.00  0.00    +0.028 A 
ATOM     12 CL   UNL     1      -1.181  -8.015  -1.756  0.00  0.00    -0.084 Cl
ENDBRANCH   5   6
BRANCH   1  16
ATOM     13  C   UNL     1      -1.200  -0.637   0.010  0.00  0.00    +0.120 A 
ATOM     14  C   UNL     1      -2.374   0.105   0.019  0.00  0.00    +0.046 A 
ATOM     15  C   UNL     1      -3.595  -0.534   0.028  0.00  0.00    +0.015 A 
ATOM     16  C   UNL     1      -3.651  -1.929   0.026  0.00  0.00    +0.020 A 
ATOM     17  C   UNL     1      -2.469  -2.671   0.016  0.00  0.00    +0.015 A 
ATOM     18  C   UNL     1      -1.252  -2.025   0.003  0.00  0.00    +0.046 A 
BRANCH  13  20
ATOM     19  C   UNL     1      -0.017   1.425   0.010  0.00  0.00    +0.277 C 
ATOM     20  O   UNL     1       0.002  -0.004   0.002  0.00  0.00    -0.495 OA
ENDBRANCH  13  20
ENDBRANCH   1  16
BRANCH   4  21
ATOM     21  S   UNL     1      -7.421  -5.631  -0.348  0.00  0.00    -0.076 S 
BRANCH  21  22
ATOM     22  C   UNL     1      -9.148  -5.182  -0.018  0.00  0.00    +0.174 C 
BRANCH  22  23
ATOM     23  C   UNL     1     -10.024  -6.396  -0.187  0.00  0.00    +0.242 C 
ATOM     24  O   UNL     1      -9.532  -7.460  -0.500  0.00  0.00    -0.273 OA
ATOM     25  N   UNL     1     -11.354  -6.300   0.008  0.00  0.00    -0.206 N 
ATOM     26  H   UNL     1     -11.747  -5.449   0.258  0.00  0.00    +0.177 HD
BRANCH  25  27
ATOM     27  N   UNL     1     -12.168  -7.429  -0.149  0.00  0.00    -0.188 NA
ATOM     28  C   UNL     1     -13.449  -7.337   0.039  0.00  0.00    +0.141 C 
BRANCH  28  29
ATOM     29  C   UNL     1     -14.306  -8.525  -0.127  0.00  0.00    +0.031 A 
ATOM     30  C   UNL     1     -13.742  -9.754  -0.481  0.00  0.00    +0.051 A 
ATOM     31  C   UNL     1     -14.551 -10.862  -0.634  0.00  0.00    +0.021 A 
ATOM     32  C   UNL     1     -15.917 -10.758  -0.439  0.00  0.00    +0.003 A 
ATOM     33  C   UNL     1     -16.483  -9.546  -0.088  0.00  0.00    +0.021 A 
ATOM     34  C   UNL     1     -15.686  -8.430   0.075  0.00  0.00    +0.051 A 
ATOM     35 CL   UNL     1     -16.397  -6.910   0.522  0.00  0.00    -0.083 Cl
ATOM     36 CL   UNL     1     -12.029  -9.887  -0.728  0.00  0.00    -0.083 Cl
ENDBRANCH  28  29
ENDBRANCH  25  27
ENDBRANCH  22  23
ENDBRANCH  21  22
ENDBRANCH   4  21
TORSDOF 8
