REMARK  Name = ZINC09350732
REMARK  11 active torsions:
REMARK  status: ('A' for Active; 'I' for Inactive)
REMARK    1  A    between atoms: C_1  and  C_2
REMARK    2  A    between atoms: C_2  and  C_3
REMARK    3  A    between atoms: C_3  and  O_4
REMARK    4  A    between atoms: O_4  and  C_5
REMARK    5  A    between atoms: C_8  and  C_11
REMARK    6  A    between atoms: C_18  and  N_35
REMARK    7  A    between atoms: C_19  and  C_33
REMARK    8  A    between atoms: C_20  and  C_22
REMARK    9  A    between atoms: C_25  and  O_28
REMARK   10  A    between atoms: O_28  and  C_29
REMARK   11  A    between atoms: C_29  and  C_30
REMARK                            x       y       z     vdW  Elec       q    Type
REMARK                         _______ _______ _______ _____ _____    ______ ____
ROOT
ATOM      1  C   UNL     1      -6.320  -4.536   0.070  0.00  0.00    +0.074 A 
ATOM      2  C   UNL     1      -6.667  -5.656   0.748  0.00  0.00    +0.054 A 
ATOM      3  C   UNL     1      -8.010  -5.953   0.446  0.00  0.00    +0.245 A 
ATOM      4  N   UNL     1      -8.453  -5.049  -0.381  0.00  0.00    -0.135 NA
ATOM      5  N   UNL     1      -7.419  -4.135  -0.637  0.00  0.00    -0.273 N 
ATOM      6  H   UNL     1      -7.474  -3.358  -1.214  0.00  0.00    +0.189 HD
ATOM      7  O   UNL     1      -8.649  -7.028   0.982  0.00  0.00    -0.421 OA
ATOM      8  C   UNL     1      -8.054  -7.651   2.019  0.00  0.00    +0.201 C 
ATOM      9  C   UNL     1      -6.773  -7.457   2.394  0.00  0.00    +0.098 C 
ATOM     10  C   UNL     1      -5.843  -6.507   1.681  0.00  0.00    +0.102 C 
ENDROOT
BRANCH   1  14
ATOM     11  C   UNL     1      -2.530  -2.614   0.142  0.00  0.00    +0.121 A 
ATOM     12  C   UNL     1      -3.165  -2.848  -1.071  0.00  0.00    +0.046 A 
ATOM     13  C   UNL     1      -4.394  -3.471  -1.098  0.00  0.00    +0.013 A 
ATOM     14  C   UNL     1      -5.001  -3.867   0.095  0.00  0.00    +0.000 A 
ATOM     15  C   UNL     1      -4.359  -3.630   1.312  0.00  0.00    +0.013 A 
ATOM     16  C   UNL     1      -3.128  -3.011   1.331  0.00  0.00    +0.046 A 
BRANCH  11  17
ATOM     17  O   UNL     1      -1.319  -1.999   0.165  0.00  0.00    -0.492 OA
BRANCH  17  18
ATOM     18  C   UNL     1      -0.761  -1.617  -1.094  0.00  0.00    +0.229 C 
BRANCH  18  20
ATOM     19  C   UNL     1       1.192  -0.535  -2.216  0.00  0.00    +0.007 C 
ATOM     20  C   UNL     1       0.595  -0.945  -0.868  0.00  0.00    +0.038 C 
ENDBRANCH  18  20
ENDBRANCH  17  18
ENDBRANCH  11  17
ENDBRANCH   1  14
BRANCH  10  21
ATOM     21  C   UNL     1      -4.825  -7.289   0.891  0.00  0.00    -0.034 A 
ATOM     22  C   UNL     1      -5.238  -8.120  -0.134  0.00  0.00    +0.008 A 
ATOM     23  C   UNL     1      -4.307  -8.838  -0.860  0.00  0.00    +0.046 A 
ATOM     24  C   UNL     1      -2.957  -8.725  -0.559  0.00  0.00    +0.121 A 
ATOM     25  C   UNL     1      -2.546  -7.890   0.470  0.00  0.00    +0.046 A 
ATOM     26  C   UNL     1      -3.481  -7.170   1.189  0.00  0.00    +0.008 A 
BRANCH  24  27
ATOM     27  O   UNL     1      -2.039  -9.431  -1.270  0.00  0.00    -0.483 OA
BRANCH  27  28
ATOM     28  C   UNL     1      -0.668  -9.264  -0.905  0.00  0.00    +0.324 C 
BRANCH  28  29
ATOM     29  C   UNL     1       0.196 -10.118  -1.797  0.00  0.00    +0.248 C 
ATOM     30  O   UNL     1      -0.312 -10.802  -2.660  0.00  0.00    -0.272 OA
ATOM     31  N   UNL     1       1.534 -10.122  -1.635  0.00  0.00    -0.327 N 
ATOM     32  H   UNL     1       1.941  -9.576  -0.945  0.00  0.00    +0.145 HD
ATOM     33  H   UNL     1       2.091 -10.672  -2.209  0.00  0.00    +0.145 HD
ENDBRANCH  28  29
ENDBRANCH  27  28
ENDBRANCH  24  27
ENDBRANCH  10  21
BRANCH   8  34
ATOM     34  N   UNL     1      -8.804  -8.544   2.743  0.00  0.00    -0.328 N 
ATOM     35  H   UNL     1      -9.729  -8.709   2.501  0.00  0.00    +0.145 HD
ATOM     36  H   UNL     1      -8.409  -9.011   3.496  0.00  0.00    +0.145 HD
ENDBRANCH   8  34
BRANCH   9  37
ATOM     37  C   UNL     1      -6.273  -8.185   3.521  0.00  0.00    +0.101 C 
ATOM     38  N   UNL     1      -5.876  -8.763   4.415  0.00  0.00    -0.191 NA
ENDBRANCH   9  37
TORSDOF 10
