REMARK  Name = ZINC09013176
REMARK  7 active torsions:
REMARK  status: ('A' for Active; 'I' for Inactive)
REMARK    1  A    between atoms: C_1  and  C_2
REMARK    2  A    between atoms: C_7  and  N_8
REMARK    3  A    between atoms: C_12  and  C_13
REMARK    4  A    between atoms: C_12  and  N_14
REMARK    5  A    between atoms: N_14  and  C_15
REMARK    6  A    between atoms: C_18  and  N_21
REMARK    7  A    between atoms: C_22  and  C_24
REMARK                            x       y       z     vdW  Elec       q    Type
REMARK                         _______ _______ _______ _____ _____    ______ ____
ROOT
ATOM      1  N   UNL     1       0.143  -0.004   2.525  0.00  0.00    -0.189 N 
ATOM      2  C   UNL     1      -1.052   0.301   3.070  0.00  0.00    +0.265 C 
ATOM      3  O   UNL     1      -2.089  -0.010   2.517  0.00  0.00    -0.269 OA
ATOM      4  C   UNL     1      -1.067   1.023   4.355  0.00  0.00    +0.116 C 
ATOM      5  C   UNL     1      -2.254   1.369   4.974  0.00  0.00    +0.022 C 
ATOM      6  C   UNL     1      -3.568   1.114   4.282  0.00  0.00    +0.061 C 
ATOM      7  C   UNL     1       0.238   1.358   4.952  0.00  0.00    +0.258 C 
ATOM      8  O   UNL     1       0.307   1.952   6.011  0.00  0.00    -0.270 OA
ATOM      9  N   UNL     1       1.355   0.988   4.292  0.00  0.00    -0.235 N 
ATOM     10  C   UNL     1       1.294   0.328   3.127  0.00  0.00    +0.320 C 
ATOM     11  O   UNL     1       2.337   0.018   2.585  0.00  0.00    -0.251 OA
ATOM     12  H   UNL     1       2.222   1.201   4.671  0.00  0.00    +0.159 HD
ENDROOT
BRANCH   1  19
ATOM     13  C   UNL     1       0.193   1.524   0.124  0.00  0.00    +0.045 C 
ATOM     14  C   UNL     1       0.208   0.017   0.109  0.00  0.00    -0.029 A 
ATOM     15  C   UNL     1       0.252  -0.662  -1.093  0.00  0.00    +0.005 A 
ATOM     16  C   UNL     1       0.266  -2.044  -1.109  0.00  0.00    +0.000 A 
ATOM     17  C   UNL     1       0.236  -2.752   0.079  0.00  0.00    +0.002 A 
ATOM     18  C   UNL     1       0.191  -2.079   1.284  0.00  0.00    +0.024 A 
ATOM     19  C   UNL     1       0.183  -0.690   1.303  0.00  0.00    +0.049 A 
ENDBRANCH   1  19
BRANCH   5  20
ATOM     20  N   UNL     1      -2.236   1.937   6.198  0.00  0.00    -0.317 N 
ATOM     21  H   UNL     1      -1.780   2.782   6.334  0.00  0.00    +0.152 HD
BRANCH  20  22
ATOM     22  C   UNL     1      -2.874   1.306   7.271  0.00  0.00    +0.031 A 
ATOM     23  C   UNL     1      -3.598   0.139   7.059  0.00  0.00    +0.025 A 
ATOM     24  C   UNL     1      -4.227  -0.484   8.118  0.00  0.00    +0.025 A 
ATOM     25  C   UNL     1      -4.136   0.056   9.395  0.00  0.00    +0.033 A 
ATOM     26  C   UNL     1      -3.413   1.222   9.606  0.00  0.00    +0.025 A 
ATOM     27  C   UNL     1      -2.779   1.842   8.549  0.00  0.00    +0.025 A 
BRANCH  25  28
ATOM     28  N   UNL     1      -4.775  -0.576  10.469  0.00  0.00    -0.286 N 
ATOM     29  C   UNL     1      -5.303   0.160  11.467  0.00  0.00    +0.214 C 
ATOM     30  O   UNL     1      -5.315   1.371  11.386  0.00  0.00    -0.276 OA
ATOM     31  C   UNL     1      -5.879  -0.520  12.682  0.00  0.00    +0.109 C 
ATOM     32  H   UNL     1      -4.838  -1.544  10.495  0.00  0.00    +0.155 HD
ENDBRANCH  25  28
ENDBRANCH  20  22
ENDBRANCH   5  20
TORSDOF 4
