REMARK  Name = ZINC64870202
REMARK  5 active torsions:
REMARK  status: ('A' for Active; 'I' for Inactive)
REMARK    1  A    between atoms: C_1  and  O_2
REMARK    2  A    between atoms: O_2  and  C_3
REMARK    3  A    between atoms: C_7  and  N_9
REMARK    4  A    between atoms: C_15  and  C_22
REMARK    5  A    between atoms: C_25  and  C_28
REMARK                            x       y       z     vdW  Elec       q    Type
REMARK                         _______ _______ _______ _____ _____    ______ ____
ROOT
ATOM      1  N   UNL     1       1.388  -4.025   2.213  0.00  0.00    -0.229 N 
ATOM      2  C   UNL     1       2.094  -4.617   3.201  0.00  0.00    +0.269 A 
ATOM      3  O   UNL     1       2.673  -3.951   4.038  0.00  0.00    -0.266 OA
ATOM      4  C   UNL     1       2.144  -6.089   3.238  0.00  0.00    +0.063 A 
ATOM      5  C   UNL     1       2.850  -6.773   4.224  0.00  0.00    +0.016 A 
ATOM      6  C   UNL     1       2.866  -8.152   4.215  0.00  0.00    +0.009 A 
ATOM      7  C   UNL     1       2.186  -8.856   3.233  0.00  0.00    +0.006 A 
ATOM      8  C   UNL     1       1.483  -8.189   2.249  0.00  0.00    +0.034 A 
ATOM      9  C   UNL     1       1.455  -6.803   2.242  0.00  0.00    +0.056 A 
ATOM     10  N   UNL     1       0.760  -6.095   1.273  0.00  0.00    -0.307 N 
ATOM     11  H   UNL     1       0.279  -6.574   0.580  0.00  0.00    +0.170 HD
ATOM     12  C   UNL     1       0.741  -4.751   1.288  0.00  0.00    +0.334 A 
ATOM     13  O   UNL     1       0.117  -4.168   0.423  0.00  0.00    -0.246 OA
ENDROOT
BRANCH   7  14
ATOM     14  C   UNL     1       2.215 -10.362   3.238  0.00  0.00    +0.274 C 
ATOM     15  N   UNL     1       2.378 -10.862   4.609  0.00  0.00    -0.339 N 
ATOM     16  C   UNL     1       3.481 -11.544   4.675  0.00  0.00    +0.134 C 
ATOM     17  N   UNL     1       4.124 -11.575   3.462  0.00  0.00    -0.247 N 
ATOM     18  O   UNL     1       3.361 -10.840   2.516  0.00  0.00    -0.243 OA
ATOM     19  H   UNL     1       4.963 -12.026   3.281  0.00  0.00    +0.196 HD
ATOM     20  H   UNL     1       1.764 -10.708   5.343  0.00  0.00    +0.164 HD
BRANCH  16  21
ATOM     21  C   UNL     1       3.981 -12.204   5.901  0.00  0.00    +0.021 A 
ATOM     22  C   UNL     1       3.081 -12.675   6.857  0.00  0.00    +0.015 A 
ATOM     23  C   UNL     1       3.548 -13.290   8.000  0.00  0.00    +0.050 A 
ATOM     24  C   UNL     1       4.913 -13.442   8.202  0.00  0.00    +0.166 A 
ATOM     25  C   UNL     1       5.817 -12.972   7.250  0.00  0.00    +0.167 A 
ATOM     26  C   UNL     1       5.353 -12.360   6.101  0.00  0.00    +0.061 A 
ATOM     27  O   UNL     1       7.084 -13.240   7.682  0.00  0.00    -0.453 OA
ATOM     28  C   UNL     1       6.960 -13.509   9.091  0.00  0.00    +0.466 C 
ATOM     29  O   UNL     1       5.615 -14.004   9.228  0.00  0.00    -0.453 OA
ENDBRANCH  16  21
ENDBRANCH   7  14
BRANCH   1  34
ATOM     30  C   UNL     1       0.251  -0.566   2.762  0.00  0.00    +0.122 A 
ATOM     31  C   UNL     1       1.205   0.139   2.041  0.00  0.00    +0.046 A 
ATOM     32  C   UNL     1       2.213  -0.536   1.381  0.00  0.00    +0.006 A 
ATOM     33  C   UNL     1       2.275  -1.916   1.436  0.00  0.00    +0.026 A 
ATOM     34  C   UNL     1       1.324  -2.626   2.157  0.00  0.00    +0.058 A 
ATOM     35  C   UNL     1       0.314  -1.949   2.825  0.00  0.00    +0.072 A 
BRANCH  30  37
ATOM     36  C   UNL     1      -0.743   1.524   3.303  0.00  0.00    +0.277 C 
ATOM     37  O   UNL     1      -0.740   0.100   3.411  0.00  0.00    -0.495 OA
ENDBRANCH  30  37
ENDBRANCH   1  34
TORSDOF 4
