REMARK  Name = ZINC26541592
REMARK  4 active torsions:
REMARK  status: ('A' for Active; 'I' for Inactive)
REMARK    1  A    between atoms: C_4  and  N_10
REMARK    2  A    between atoms: C_6  and  C_7
REMARK    3  A    between atoms: N_10  and  S_11
REMARK    4  A    between atoms: S_11  and  C_14
REMARK                            x       y       z     vdW  Elec       q    Type
REMARK                         _______ _______ _______ _____ _____    ______ ____
ROOT
ATOM      1  C   UNL     1      -1.009   1.487   0.527  0.00  0.00    +0.014 A 
ATOM      2  C   UNL     1       0.242   0.910   0.440  0.00  0.00    +0.023 A 
ATOM      3  C   UNL     1       1.362   1.702   0.264  0.00  0.00    +0.065 A 
ATOM      4  C   UNL     1       1.236   3.086   0.178  0.00  0.00    +0.093 A 
ATOM      5  C   UNL     1      -0.016   3.673   0.270  0.00  0.00    +0.041 A 
ATOM      6  C   UNL     1      -1.146   2.874   0.448  0.00  0.00    +0.038 A 
ATOM      7 CL   UNL     1       2.931   0.969   0.148  0.00  0.00    -0.082 Cl
ENDROOT
BRANCH   6   8
ATOM      8  C   UNL     1      -2.484   3.493   0.547  0.00  0.00    +0.242 C 
ATOM      9  O   UNL     1      -2.602   4.701   0.473  0.00  0.00    -0.270 OA
ATOM     10  N   UNL     1      -3.574   2.719   0.719  0.00  0.00    -0.325 N 
ATOM     11  H   UNL     1      -4.570   3.180   0.792  0.00  0.00    +0.145 HD
ATOM     12  H   UNL     1      -3.467   1.626   0.786  0.00  0.00    +0.145 HD
ENDBRANCH   6   8
BRANCH   4  13
ATOM     13  N   UNL     1       2.370   3.882   0.000  0.00  0.00    -0.096 NA
BRANCH  13  14
ATOM     14  S   UNL     1       2.461   5.369   0.725  0.00  0.00    +0.098 S 
ATOM     15  O   UNL     1       3.768   5.865   0.472  0.00  0.00    -0.148 OA
ATOM     16  O   UNL     1       1.290   6.078   0.343  0.00  0.00    -0.148 OA
BRANCH  14  17
ATOM     17  C   UNL     1       2.348   5.108   2.464  0.00  0.00    +0.149 A 
ATOM     18  C   UNL     1       3.341   4.892   3.360  0.00  0.00    +0.038 A 
ATOM     19  C   UNL     1       3.015   4.712   4.692  0.00  0.00    +0.025 A 
ATOM     20  C   UNL     1       1.710   4.756   5.061  0.00  0.00    +0.057 A 
ATOM     21  S   UNL     1       0.896   5.069   3.502  0.00  0.00    -0.061 S 
ATOM     22 BR   UNL     1       0.951   4.550   6.780  0.00  0.00    -0.043 Br
ENDBRANCH  14  17
ENDBRANCH  13  14
ENDBRANCH   4  13
TORSDOF 4
