REMARK  Name = ZINC14957677
REMARK  8 active torsions:
REMARK  status: ('A' for Active; 'I' for Inactive)
REMARK    1  A    between atoms: C_7  and  C_11
REMARK    2  A    between atoms: C_11  and  C_12
REMARK    3  A    between atoms: C_12  and  C_14
REMARK    4  A    between atoms: C_12  and  N_53
REMARK    5  A    between atoms: C_14  and  N_15
REMARK    6  A    between atoms: N_15  and  C_16
REMARK    7  A    between atoms: C_18  and  C_23
REMARK    8  A    between atoms: C_24  and  C_25
REMARK                            x       y       z     vdW  Elec       q    Type
REMARK                         _______ _______ _______ _____ _____    ______ ____
ROOT
ATOM      1  C   UNL     1      -1.295   2.109   0.020  0.00  0.00    +0.085 C 
ENDROOT
BRANCH   1   2
ATOM      2  N   UNL     1      -0.017   1.394   0.010  0.00  0.00    -0.344 N 
ATOM      3  H   UNL     1       0.817   1.890   0.004  0.00  0.00    +0.146 HD
BRANCH   2   4
ATOM      4  C   UNL     1       0.002  -0.004   0.002  0.00  0.00    +0.046 A 
ATOM      5  C   UNL     1       1.210  -0.691  -0.013  0.00  0.00    +0.035 A 
ATOM      6  C   UNL     1       1.177  -2.091  -0.020  0.00  0.00    +0.014 A 
ATOM      7  C   UNL     1      -0.064  -2.737  -0.011  0.00  0.00    +0.136 A 
ATOM      8  N   UNL     1      -1.184  -2.043   0.003  0.00  0.00    -0.241 NA
ATOM      9  C   UNL     1      -1.187  -0.724   0.015  0.00  0.00    +0.135 A 
ATOM     10 CL   UNL     1      -0.129  -4.472  -0.019  0.00  0.00    -0.061 Cl
BRANCH   6  11
ATOM     11  C   UNL     1       2.427  -2.870  -0.036  0.00  0.00    +0.011 C 
ATOM     12  C   UNL     1       3.612  -2.238  -0.045  0.00  0.00    +0.009 C 
BRANCH  12  13
ATOM     13  C   UNL     1       4.862  -3.018  -0.062  0.00  0.00    -0.022 A 
ATOM     14  C   UNL     1       4.838  -4.419  -0.063  0.00  0.00    +0.027 A 
ATOM     15  C   UNL     1       6.032  -5.108  -0.083  0.00  0.00    +0.111 A 
ATOM     16  N   UNL     1       7.185  -4.465  -0.092  0.00  0.00    -0.263 NA
ATOM     17  C   UNL     1       7.254  -3.147  -0.086  0.00  0.00    +0.111 A 
ATOM     18  C   UNL     1       6.110  -2.378  -0.071  0.00  0.00    +0.027 A 
ENDBRANCH  12  13
ENDBRANCH   6  11
ENDBRANCH   2   4
ENDBRANCH   1   2
BRANCH   1  19
ATOM     19  C   UNL     1      -1.036   3.617   0.027  0.00  0.00    -0.057 C 
BRANCH  19  22
ATOM     20  H   UNL     1      -0.612   3.722  -1.985  0.00  0.00    -0.090 HD
ATOM     21  H   UNL     1       0.063   4.951  -1.091  0.00  0.00    -0.090 HD
ATOM     22  N   UNL     1      -0.156   3.957  -1.105  0.00  0.00    +0.381 N 
ATOM     23  H   UNL     1       0.717   3.421  -1.027  0.00  0.00    -0.090 HD
ENDBRANCH  19  22
BRANCH  19  24
ATOM     24  C   UNL     1      -2.367   4.364  -0.089  0.00  0.00    -0.005 C 
BRANCH  24  31
ATOM     25  C   UNL     1      -5.363   7.495  -1.265  0.00  0.00    +0.000 A 
ATOM     26  C   UNL     1      -5.677   8.205  -0.120  0.00  0.00    +0.002 A 
ATOM     27  C   UNL     1      -4.859   8.133   0.987  0.00  0.00    +0.023 A 
ATOM     28  C   UNL     1      -3.708   7.343   0.962  0.00  0.00    +0.031 A 
ATOM     29  C   UNL     1      -3.403   6.635  -0.189  0.00  0.00    -0.022 A 
ATOM     30  C   UNL     1      -4.226   6.710  -1.297  0.00  0.00    +0.006 A 
ATOM     31  C   UNL     1      -2.120   5.868   0.043  0.00  0.00    +0.036 C 
ATOM     32  C   UNL     1      -1.716   6.221   1.484  0.00  0.00    +0.109 C 
ATOM     33  N   UNL     1      -2.757   7.134   1.962  0.00  0.00    -0.343 N 
ATOM     34  H   UNL     1      -2.782   7.535   2.845  0.00  0.00    +0.146 HD
ENDBRANCH  24  31
ENDBRANCH  19  24
ENDBRANCH   1  19
TORSDOF 8
