REMARK  Name = ZINC40009268
REMARK  19 active torsions:
REMARK  status: ('A' for Active; 'I' for Inactive)
REMARK    1  A    between atoms: C_1  and  C_2
REMARK    2  A    between atoms: C_2  and  C_3
REMARK    3  A    between atoms: C_3  and  C_4
REMARK    4  A    between atoms: C_4  and  O_5
REMARK    5  A    between atoms: O_5  and  C_6
REMARK    6  A    between atoms: C_9  and  C_15
REMARK    7  A    between atoms: C_11  and  O_12
REMARK    8  A    between atoms: O_12  and  C_13
REMARK    9  A    between atoms: C_13  and  C_14
REMARK   10  A    between atoms: C_22  and  C_40
REMARK   11  A    between atoms: C_23  and  C_39
REMARK   12  A    between atoms: N_30  and  C_31
REMARK   13  A    between atoms: C_31  and  C_32
REMARK   14  A    between atoms: C_32  and  C_33
REMARK   15  A    between atoms: C_33  and  N_34
REMARK   16  A    between atoms: N_34  and  C_35
REMARK   17  A    between atoms: N_34  and  C_37
REMARK   18  A    between atoms: C_35  and  C_36
REMARK   19  A    between atoms: C_37  and  C_38
REMARK                            x       y       z     vdW  Elec       q    Type
REMARK                         _______ _______ _______ _____ _____    ______ ____
ROOT
ATOM      1  C   UNL     1      -2.255  -7.865   1.077  0.00  0.00    +0.145 C 
ATOM      2  C   UNL     1      -1.667  -8.372   2.353  0.00  0.00    +0.072 A 
ATOM      3  C   UNL     1      -1.965  -8.045   3.751  0.00  0.00    +0.199 A 
ATOM      4  O   UNL     1      -2.925  -7.375   4.090  0.00  0.00    -0.287 OA
ATOM      5  C   UNL     1      -0.986  -8.608   4.715  0.00  0.00    +0.065 A 
ATOM      6  C   UNL     1      -1.014  -8.225   6.056  0.00  0.00    +0.019 A 
ATOM      7  C   UNL     1      -0.102  -8.749   6.929  0.00  0.00    -0.047 A 
ATOM      8  C   UNL     1       0.849  -9.657   6.486  0.00  0.00    -0.044 A 
ATOM      9  C   UNL     1       0.890 -10.048   5.166  0.00  0.00    +0.050 A 
ATOM     10  C   UNL     1      -0.031  -9.530   4.255  0.00  0.00    +0.140 A 
ATOM     11  O   UNL     1       0.021  -9.935   2.966  0.00  0.00    -0.450 OA
ATOM     12  C   UNL     1      -0.701  -9.283   2.033  0.00  0.00    +0.199 A 
ATOM     13  C   UNL     1      -0.630  -9.386   0.565  0.00  0.00    +0.283 C 
ATOM     14  O   UNL     1       0.132 -10.108  -0.046  0.00  0.00    -0.267 OA
ATOM     15  N   UNL     1      -1.537  -8.562  -0.003  0.00  0.00    -0.284 N 
ATOM     16  C   UNL     1       1.849 -10.223   7.461  0.00  0.00    +0.044 C 
ATOM     17  C   UNL     1      -0.129  -8.338   8.379  0.00  0.00    +0.044 C 
ENDROOT
BRANCH   1  21
ATOM     18  C   UNL     1      -1.658  -3.643   0.755  0.00  0.00    +0.162 A 
ATOM     19  C   UNL     1      -0.614  -4.515   0.493  0.00  0.00    +0.050 A 
ATOM     20  C   UNL     1      -0.810  -5.879   0.598  0.00  0.00    +0.009 A 
ATOM     21  C   UNL     1      -2.047  -6.377   0.964  0.00  0.00    -0.019 A 
ATOM     22  C   UNL     1      -3.093  -5.512   1.227  0.00  0.00    +0.055 A 
ATOM     23  C   UNL     1      -2.902  -4.143   1.129  0.00  0.00    +0.162 A 
BRANCH  18  24
ATOM     24  O   UNL     1      -1.467  -2.300   0.652  0.00  0.00    -0.488 OA
BRANCH  24  25
ATOM     25  C   UNL     1      -0.165  -1.858   0.264  0.00  0.00    +0.229 C 
BRANCH  25  26
ATOM     26  C   UNL     1      -0.142  -0.330   0.203  0.00  0.00    +0.041 C 
BRANCH  26  28
ATOM     27  C   UNL     1       1.275   1.672  -0.275  0.00  0.00    +0.004 C 
ATOM     28  C   UNL     1       1.252   0.144  -0.214  0.00  0.00    -0.000 C 
ENDBRANCH  26  28
ENDBRANCH  25  26
ENDBRANCH  24  25
ENDBRANCH  18  24
BRANCH  23  29
ATOM     29  O   UNL     1      -3.928  -3.291   1.393  0.00  0.00    -0.489 OA
BRANCH  29  30
ATOM     30  C   UNL     1      -5.176  -3.876   1.772  0.00  0.00    +0.226 C 
ATOM     31  C   UNL     1      -6.201  -2.769   2.026  0.00  0.00    +0.048 C 
ENDBRANCH  29  30
ENDBRANCH  23  29
ENDBRANCH   1  21
BRANCH  15  32
ATOM     32  C   UNL     1      -1.765  -8.390  -1.440  0.00  0.00    +0.107 C 
BRANCH  32  33
ATOM     33  C   UNL     1      -0.864  -7.272  -1.969  0.00  0.00    +0.000 C 
BRANCH  33  34
ATOM     34  C   UNL     1      -1.103  -7.093  -3.470  0.00  0.00    -0.077 C 
BRANCH  34  35
ATOM     35  N   UNL     1      -0.238  -6.020  -3.978  0.00  0.00    +0.379 N 
ATOM     36  H   UNL     1      -0.395  -5.179  -3.443  0.00  0.00    -0.082 HD
BRANCH  35  37
ATOM     37  C   UNL     1       1.168  -6.425  -3.855  0.00  0.00    -0.082 C 
ATOM     38  C   UNL     1       2.072  -5.256  -4.250  0.00  0.00    -0.017 C 
ENDBRANCH  35  37
BRANCH  35  39
ATOM     39  C   UNL     1      -0.552  -5.766  -5.391  0.00  0.00    -0.082 C 
ATOM     40  C   UNL     1      -1.972  -5.209  -5.505  0.00  0.00    -0.017 C 
ENDBRANCH  35  39
ENDBRANCH  34  35
ENDBRANCH  33  34
ENDBRANCH  32  33
ENDBRANCH  15  32
TORSDOF 13
