REMARK  Name = ZINC16685471
REMARK  12 active torsions:
REMARK  status: ('A' for Active; 'I' for Inactive)
REMARK    1  A    between atoms: C_1  and  C_2
REMARK    2  A    between atoms: C_2  and  C_4
REMARK    3  A    between atoms: C_2  and  N_57
REMARK    4  A    between atoms: C_7  and  S_16
REMARK    5  A    between atoms: N_8  and  C_9
REMARK    6  A    between atoms: S_16  and  C_17
REMARK    7  A    between atoms: C_17  and  C_18
REMARK    8  A    between atoms: C_18  and  C_20
REMARK    9  A    between atoms: C_21  and  N_32
REMARK   10  A    between atoms: N_22  and  C_29
REMARK   11  A    between atoms: C_33  and  N_57
REMARK   12  A    between atoms: C_34  and  N_57
REMARK                            x       y       z     vdW  Elec       q    Type
REMARK                         _______ _______ _______ _____ _____    ______ ____
ROOT
ATOM      1  S   UNL     1      -2.602   0.676   0.756  0.00  0.00    -0.078 S 
ENDROOT
BRANCH   1   5
ATOM      2  C   UNL     1      -5.920   2.538   1.633  0.00  0.00    +0.125 A 
ATOM      3  N   UNL     1      -5.055   3.510   1.577  0.00  0.00    -0.135 NA
ATOM      4  N   UNL     1      -3.889   3.050   1.293  0.00  0.00    -0.122 NA
ATOM      5  C   UNL     1      -3.946   1.746   1.149  0.00  0.00    +0.196 A 
ATOM      6  N   UNL     1      -5.246   1.377   1.357  0.00  0.00    -0.275 N 
BRANCH   6   7
ATOM      7  C   UNL     1      -5.779   0.081   1.301  0.00  0.00    +0.050 A 
ATOM      8  C   UNL     1      -6.712  -0.247   0.328  0.00  0.00    +0.028 A 
ATOM      9  C   UNL     1      -7.231  -1.525   0.272  0.00  0.00    +0.022 A 
ATOM     10  C   UNL     1      -6.829  -2.477   1.193  0.00  0.00    +0.041 A 
ATOM     11  C   UNL     1      -5.903  -2.152   2.167  0.00  0.00    +0.022 A 
ATOM     12  C   UNL     1      -5.377  -0.876   2.224  0.00  0.00    +0.028 A 
ATOM     13 CL   UNL     1      -7.488  -4.082   1.124  0.00  0.00    -0.084 Cl
ENDBRANCH   6   7
BRANCH   2  15
ATOM     14  C   UNL     1      -7.581   2.917   3.434  0.00  0.00    -0.005 C 
ATOM     15  C   UNL     1      -7.391   2.666   1.937  0.00  0.00    -0.003 C 
BRANCH  15  18
ATOM     16  C   UNL     1      -7.704   3.628  -0.262  0.00  0.00    -0.096 C 
ATOM     17  C   UNL     1      -9.387   3.946   1.449  0.00  0.00    -0.096 C 
ATOM     18  N   UNL     1      -7.939   3.814   1.185  0.00  0.00    +0.382 N 
ATOM     19  H   UNL     1      -7.464   4.671   1.492  0.00  0.00    -0.082 HD
ENDBRANCH  15  18
ENDBRANCH   2  15
ENDBRANCH   1   5
BRANCH   1  20
ATOM     20  C   UNL     1      -1.262   1.886   0.635  0.00  0.00    +0.157 C 
BRANCH  20  21
ATOM     21  C   UNL     1       0.025   1.178   0.297  0.00  0.00    +0.182 C 
ATOM     22  O   UNL     1       0.034  -0.028   0.151  0.00  0.00    -0.291 OA
BRANCH  21  23
ATOM     23  C   UNL     1       1.218   1.917   0.143  0.00  0.00    +0.120 A 
ATOM     24  C   UNL     1       2.453   1.270  -0.033  0.00  0.00    +0.116 A 
ATOM     25  N   UNL     1       3.580   2.028  -0.182  0.00  0.00    -0.278 N 
ATOM     26  C   UNL     1       3.527   3.369  -0.153  0.00  0.00    +0.331 A 
ATOM     27  O   UNL     1       4.559   3.998  -0.286  0.00  0.00    -0.246 OA
ATOM     28  N   UNL     1       2.377   4.041   0.016  0.00  0.00    -0.274 N 
ATOM     29  H   UNL     1       2.387   5.041   0.031  0.00  0.00    +0.173 HD
ATOM     30  C   UNL     1       1.208   3.385   0.168  0.00  0.00    +0.266 A 
ATOM     31  O   UNL     1       0.167   3.997   0.321  0.00  0.00    -0.267 OA
BRANCH  25  32
ATOM     32  C   UNL     1       4.872   1.365  -0.372  0.00  0.00    +0.094 C 
ATOM     33  C   UNL     1       5.772   1.879  -1.497  0.00  0.00    +0.027 C 
ATOM     34  C   UNL     1       5.059   0.532  -1.642  0.00  0.00    +0.027 C 
ENDBRANCH  25  32
BRANCH  24  35
ATOM     35  N   UNL     1       2.526  -0.088  -0.059  0.00  0.00    -0.344 N 
ATOM     36  H   UNL     1       1.725  -0.614  -0.213  0.00  0.00    +0.144 HD
ATOM     37  H   UNL     1       3.378  -0.531   0.077  0.00  0.00    +0.144 HD
ENDBRANCH  24  35
ENDBRANCH  21  23
ENDBRANCH  20  21
ENDBRANCH   1  20
TORSDOF 9
