REMARK  Name = ZINC36566331
REMARK  12 active torsions:
REMARK  status: ('A' for Active; 'I' for Inactive)
REMARK    1  A    between atoms: C_1  and  C_2
REMARK    2  A    between atoms: C_2  and  C_3
REMARK    3  A    between atoms: C_3  and  N_4
REMARK    4  A    between atoms: N_4  and  C_5
REMARK    5  A    between atoms: C_5  and  C_7
REMARK    6  A    between atoms: C_5  and  C_14
REMARK    7  A    between atoms: C_12  and  O_13
REMARK    8  A    between atoms: N_16  and  C_17
REMARK    9  A    between atoms: C_17  and  S_18
REMARK   10  A    between atoms: S_18  and  C_21
REMARK   11  A    between atoms: C_24  and  C_27
REMARK   12  A    between atoms: C_28  and  C_30
REMARK                            x       y       z     vdW  Elec       q    Type
REMARK                         _______ _______ _______ _____ _____    ______ ____
ROOT
ATOM      1  C   UNL     1      -0.723  -2.422   0.940  0.00  0.00    +0.196 C 
ENDROOT
BRANCH   1   2
ATOM      2  C   UNL     1      -1.577  -1.508   1.781  0.00  0.00    +0.023 A 
ATOM      3  C   UNL     1      -0.993  -0.478   2.494  0.00  0.00    +0.009 A 
ATOM      4  C   UNL     1      -1.776   0.360   3.266  0.00  0.00    +0.001 A 
ATOM      5  C   UNL     1      -3.144   0.170   3.327  0.00  0.00    +0.004 A 
ATOM      6  C   UNL     1      -3.732  -0.858   2.617  0.00  0.00    +0.046 A 
ATOM      7  C   UNL     1      -2.950  -1.697   1.837  0.00  0.00    +0.122 A 
BRANCH   7   8
ATOM      8  O   UNL     1      -3.527  -2.706   1.132  0.00  0.00    -0.506 OA
ATOM      9  H   UNL     1      -3.662  -3.516   1.643  0.00  0.00    +0.292 HD
ENDBRANCH   7   8
ENDBRANCH   1   2
BRANCH   1  10
ATOM     10  C   UNL     1       0.685  -2.429   1.477  0.00  0.00    +0.239 C 
ATOM     11  O   UNL     1       1.516  -1.681   1.008  0.00  0.00    -0.273 OA
ATOM     12  N   UNL     1       1.020  -3.266   2.478  0.00  0.00    -0.294 N 
ATOM     13  H   UNL     1       0.351  -3.851   2.866  0.00  0.00    +0.150 HD
BRANCH  12  14
ATOM     14  C   UNL     1       2.397  -3.294   2.980  0.00  0.00    +0.278 C 
BRANCH  14  15
ATOM     15  S   UNL     1       2.535  -2.205   4.425  0.00  0.00    +0.013 S 
ATOM     16  O   UNL     1       3.849  -2.269   4.962  0.00  0.00    -0.168 OA
ATOM     17  O   UNL     1       1.923  -0.951   4.153  0.00  0.00    -0.168 OA
BRANCH  15  18
ATOM     18  C   UNL     1       1.511  -2.948   5.651  0.00  0.00    +0.090 A 
ATOM     19  C   UNL     1       0.174  -2.605   5.737  0.00  0.00    +0.027 A 
ATOM     20  C   UNL     1      -0.629  -3.188   6.699  0.00  0.00    +0.005 A 
ATOM     21  C   UNL     1      -0.096  -4.114   7.575  0.00  0.00    -0.050 A 
ATOM     22  C   UNL     1       1.240  -4.458   7.489  0.00  0.00    +0.005 A 
ATOM     23  C   UNL     1       2.042  -3.879   6.524  0.00  0.00    +0.027 A 
ATOM     24  C   UNL     1      -0.972  -4.749   8.625  0.00  0.00    +0.044 C 
ENDBRANCH  15  18
ENDBRANCH  14  15
ENDBRANCH  12  14
ENDBRANCH   1  10
BRANCH   1  25
ATOM     25  N   UNL     1      -0.716  -1.945  -0.445  0.00  0.00    -0.282 N 
ATOM     26  C   UNL     1      -0.091  -2.661  -1.401  0.00  0.00    +0.247 C 
ATOM     27  O   UNL     1      -0.373  -2.490  -2.571  0.00  0.00    -0.270 OA
BRANCH  26  28
ATOM     28  C   UNL     1       0.939  -3.653  -1.026  0.00  0.00    +0.037 A 
ATOM     29  C   UNL     1       0.881  -4.288   0.215  0.00  0.00    +0.014 A 
ATOM     30  C   UNL     1       1.844  -5.214   0.559  0.00  0.00    +0.021 A 
ATOM     31  C   UNL     1       2.867  -5.514  -0.325  0.00  0.00    +0.041 A 
ATOM     32  C   UNL     1       2.929  -4.887  -1.559  0.00  0.00    +0.021 A 
ATOM     33  C   UNL     1       1.969  -3.964  -1.916  0.00  0.00    +0.014 A 
ATOM     34 CL   UNL     1       4.076  -6.679   0.115  0.00  0.00    -0.084 Cl
ENDBRANCH  26  28
BRANCH  25  35
ATOM     35  C   UNL     1      -1.387  -0.690  -0.791  0.00  0.00    +0.109 C 
BRANCH  35  37
ATOM     36  C   UNL     1      -1.047   1.744  -1.238  0.00  0.00    +0.005 C 
ATOM     37  C   UNL     1      -0.375   0.456  -0.758  0.00  0.00    +0.016 C 
ENDBRANCH  35  37
ENDBRANCH  25  35
ENDBRANCH   1  25
TORSDOF 10
