REMARK  Name = ZINC33063207
REMARK  7 active torsions:
REMARK  status: ('A' for Active; 'I' for Inactive)
REMARK    1  A    between atoms: C_1  and  C_2
REMARK    2  A    between atoms: C_2  and  C_4
REMARK    3  A    between atoms: C_2  and  N_12
REMARK    4  A    between atoms: C_4  and  C_5
REMARK    5  A    between atoms: C_5  and  C_6
REMARK    6  A    between atoms: C_13  and  C_15
REMARK    7  A    between atoms: C_18  and  C_21
REMARK                            x       y       z     vdW  Elec       q    Type
REMARK                         _______ _______ _______ _____ _____    ______ ____
ROOT
ATOM      1  C   UNL     1       2.561   4.117  -4.659  0.00  0.00    +0.037 A 
ATOM      2  C   UNL     1       1.320   3.943  -4.045  0.00  0.00    +0.013 A 
ATOM      3  C   UNL     1       1.216   4.017  -2.672  0.00  0.00    +0.007 A 
ATOM      4  C   UNL     1       2.340   4.262  -1.903  0.00  0.00    -0.011 A 
ATOM      5  C   UNL     1       3.573   4.441  -2.505  0.00  0.00    +0.007 A 
ATOM      6  C   UNL     1       3.691   4.364  -3.877  0.00  0.00    +0.013 A 
ENDROOT
BRANCH   4   7
ATOM      7  C   UNL     1       2.220   4.342  -0.403  0.00  0.00    +0.191 C 
ATOM      8  N   UNL     1       1.127   3.483   0.048  0.00  0.00    -0.322 N 
ATOM      9  C   UNL     1       1.179   2.093   0.002  0.00  0.00    +0.055 A 
ATOM     10  C   UNL     1      -0.017   1.375   0.010  0.00  0.00    +0.025 A 
ATOM     11  C   UNL     1       0.002  -0.004   0.002  0.00  0.00    +0.002 A 
ATOM     12  C   UNL     1       1.206  -0.685  -0.013  0.00  0.00    +0.002 A 
ATOM     13  C   UNL     1       2.396   0.020  -0.029  0.00  0.00    +0.030 A 
ATOM     14  C   UNL     1       2.381   1.399  -0.028  0.00  0.00    +0.126 A 
ATOM     15  S   UNL     1       3.903   2.296  -0.084  0.00  0.00    +0.062 S 
ATOM     16  O   UNL     1       4.685   1.855   1.018  0.00  0.00    -0.153 OA
ATOM     17  O   UNL     1       4.365   2.245  -1.426  0.00  0.00    -0.153 OA
ATOM     18  N   UNL     1       3.475   3.879   0.223  0.00  0.00    -0.166 NA
ATOM     19  H   UNL     1       0.205   3.930   0.447  0.00  0.00    +0.148 HD
ATOM     20  H   UNL     1       4.147   4.602   0.709  0.00  0.00    +0.150 HD
ENDBRANCH   4   7
BRANCH   1  22
ATOM     21  N   UNL     1       3.879   4.207  -6.721  0.00  0.00    -0.309 N 
ATOM     22  C   UNL     1       2.679   4.039  -6.131  0.00  0.00    +0.244 C 
ATOM     23  O   UNL     1       1.694   3.823  -6.809  0.00  0.00    -0.270 OA
ATOM     24  H   UNL     1       4.771   4.403  -6.107  0.00  0.00    +0.149 HD
BRANCH  21  26
ATOM     25  C   UNL     1       4.158   2.668  -8.601  0.00  0.00    +0.028 C 
ATOM     26  C   UNL     1       3.996   4.130  -8.179  0.00  0.00    +0.070 C 
BRANCH  26  27
ATOM     27  C   UNL     1       5.217   4.931  -8.636  0.00  0.00    +0.026 C 
BRANCH  27  28
ATOM     28  C   UNL     1       5.000   6.413  -8.325  0.00  0.00    +0.037 C 
BRANCH  28  29
ATOM     29  C   UNL     1       6.203   7.202  -8.775  0.00  0.00    -0.047 A 
ATOM     30  C   UNL     1       7.254   7.417  -7.904  0.00  0.00    +0.003 A 
ATOM     31  C   UNL     1       8.359   8.136  -8.318  0.00  0.00    +0.000 A 
ATOM     32  C   UNL     1       8.409   8.649  -9.601  0.00  0.00    +0.000 A 
ATOM     33  C   UNL     1       7.355   8.440 -10.470  0.00  0.00    +0.000 A 
ATOM     34  C   UNL     1       6.252   7.716 -10.057  0.00  0.00    +0.003 A 
ENDBRANCH  28  29
ENDBRANCH  27  28
ENDBRANCH  26  27
ENDBRANCH  21  26
ENDBRANCH   1  22
TORSDOF 6
