REMARK  Name = ZINC34812221
REMARK  5 active torsions:
REMARK  status: ('A' for Active; 'I' for Inactive)
REMARK    1  A    between atoms: C_1  and  N_2
REMARK    2  A    between atoms: N_2  and  C_3
REMARK    3  A    between atoms: N_2  and  C_4
REMARK    4  A    between atoms: C_7  and  C_10
REMARK    5  A    between atoms: C_10  and  N_11
REMARK                            x       y       z     vdW  Elec       q    Type
REMARK                         _______ _______ _______ _____ _____    ______ ____
ROOT
ATOM      1  N   UNL     1      -5.281  -3.159   1.420  0.00  0.00    +0.383 N 
ATOM      2  C   UNL     1      -4.296  -4.032   2.070  0.00  0.00    -0.075 C 
ATOM      3  C   UNL     1      -4.676  -4.232   3.539  0.00  0.00    +0.027 C 
ATOM      4  C   UNL     1      -6.062  -4.877   3.618  0.00  0.00    +0.095 C 
ATOM      5  C   UNL     1      -7.068  -3.996   2.873  0.00  0.00    +0.027 C 
ATOM      6  C   UNL     1      -6.599  -3.804   1.429  0.00  0.00    -0.075 C 
ATOM      7  N   UNL     1      -6.466  -4.985   5.025  0.00  0.00    -0.323 N 
ATOM      8  C   UNL     1      -5.917  -5.997   5.805  0.00  0.00    +0.041 A 
ATOM      9  C   UNL     1      -5.756  -5.856   7.173  0.00  0.00    +0.025 A 
ATOM     10  C   UNL     1      -5.216  -6.892   7.910  0.00  0.00    +0.017 A 
ATOM     11  C   UNL     1      -4.834  -8.073   7.290  0.00  0.00    +0.019 A 
ATOM     12  C   UNL     1      -4.983  -8.227   5.926  0.00  0.00    +0.030 A 
ATOM     13  C   UNL     1      -5.522  -7.188   5.172  0.00  0.00    +0.059 A 
ATOM     14  C   UNL     1      -5.680  -7.295   3.711  0.00  0.00    +0.247 C 
ATOM     15  O   UNL     1      -5.504  -8.361   3.151  0.00  0.00    -0.270 OA
ATOM     16  N   UNL     1      -6.021  -6.202   2.999  0.00  0.00    -0.291 N 
ATOM     17 BR   UNL     1      -4.104  -9.480   8.320  0.00  0.00    -0.050 Br
ATOM     18  H   UNL     1      -7.105  -4.362   5.404  0.00  0.00    +0.148 HD
ATOM     19  H   UNL     1      -6.242  -6.296   2.059  0.00  0.00    +0.151 HD
ATOM     20  H   UNL     1      -5.332  -2.283   1.920  0.00  0.00    -0.081 HD
ENDROOT
BRANCH   1  21
ATOM     21  C   UNL     1      -4.870  -2.906   0.033  0.00  0.00    -0.043 C 
BRANCH  21  25
ATOM     22  C   UNL     1      -1.198  -0.719   0.010  0.00  0.00    +0.029 A 
ATOM     23  C   UNL     1      -1.181  -2.108   0.008  0.00  0.00    +0.023 A 
ATOM     24  C   UNL     1      -2.369  -2.812   0.016  0.00  0.00    +0.003 A 
ATOM     25  C   UNL     1      -3.575  -2.135   0.025  0.00  0.00    -0.064 A 
ATOM     26  C   UNL     1      -3.596  -0.752   0.027  0.00  0.00    +0.003 A 
ATOM     27  C   UNL     1      -2.411  -0.042   0.025  0.00  0.00    +0.023 A 
BRANCH  22  29
ATOM     28  C   UNL     1      -0.018   1.461   0.010  0.00  0.00    +0.129 C 
ATOM     29  N   UNL     1       0.002  -0.004   0.002  0.00  0.00    -0.336 N 
ATOM     30  C   UNL     1       1.281  -0.719  -0.014  0.00  0.00    +0.129 C 
ENDBRANCH  22  29
ENDBRANCH  21  25
ENDBRANCH   1  21
TORSDOF 3
