REMARK  Name = ZINC67298841
REMARK  7 active torsions:
REMARK  status: ('A' for Active; 'I' for Inactive)
REMARK    1  A    between atoms: C_1  and  O_2
REMARK    2  A    between atoms: O_2  and  C_3
REMARK    3  A    between atoms: C_8  and  N_9
REMARK    4  A    between atoms: C_11  and  C_21
REMARK    5  A    between atoms: C_16  and  O_20
REMARK    6  A    between atoms: N_23  and  C_24
REMARK    7  A    between atoms: C_24  and  C_25
REMARK                            x       y       z     vdW  Elec       q    Type
REMARK                         _______ _______ _______ _____ _____    ______ ____
ROOT
ATOM      1  N   UNL     1       0.050  -2.753  -0.149  0.00  0.00    -0.322 N 
ATOM      2  C   UNL     1       0.039  -4.062  -0.269  0.00  0.00    +0.212 A 
ATOM      3  C   UNL     1      -0.622  -4.916   0.738  0.00  0.00    +0.097 A 
ATOM      4  C   UNL     1      -1.067  -6.163   0.323  0.00  0.00    +0.030 A 
ATOM      5  C   UNL     1      -0.830  -6.546  -1.022  0.00  0.00    +0.018 A 
ATOM      6  C   UNL     1      -1.430  -7.701  -1.547  0.00  0.00    +0.015 A 
ATOM      7  C   UNL     1      -1.229  -8.037  -2.853  0.00  0.00    +0.046 A 
ATOM      8  C   UNL     1      -0.424  -7.246  -3.671  0.00  0.00    +0.120 A 
ATOM      9  C   UNL     1       0.192  -6.111  -3.165  0.00  0.00    +0.092 A 
ATOM     10  C   UNL     1       0.004  -5.759  -1.839  0.00  0.00    +0.141 A 
ATOM     11  O   UNL     1       0.632  -4.676  -1.325  0.00  0.00    -0.438 OA
ATOM     12  H   UNL     1      -0.368  -2.332   0.619  0.00  0.00    +0.169 HD
ENDROOT
BRANCH   1  18
ATOM     13  C   UNL     1      -0.043  -0.912  -1.687  0.00  0.00    +0.143 A 
ATOM     14  C   UNL     1       0.574  -0.135  -2.652  0.00  0.00    +0.049 A 
ATOM     15  C   UNL     1       1.869  -0.418  -3.047  0.00  0.00    +0.024 A 
ATOM     16  C   UNL     1       2.556  -1.479  -2.482  0.00  0.00    +0.043 A 
ATOM     17  C   UNL     1       1.954  -2.264  -1.519  0.00  0.00    +0.049 A 
ATOM     18  C   UNL     1       0.650  -1.983  -1.108  0.00  0.00    +0.085 A 
ATOM     19 CL   UNL     1       4.181  -1.824  -2.987  0.00  0.00    -0.083 Cl
BRANCH  13  21
ATOM     20  C   UNL     1      -1.961   0.473  -1.933  0.00  0.00    +0.277 C 
ATOM     21  O   UNL     1      -1.316  -0.634  -1.299  0.00  0.00    -0.493 OA
ENDBRANCH  13  21
ENDBRANCH   1  18
BRANCH   3  22
ATOM     22  C   UNL     1      -0.802  -4.462   2.126  0.00  0.00    +0.249 C 
ATOM     23  O   UNL     1      -0.461  -3.340   2.448  0.00  0.00    -0.270 OA
ATOM     24  N   UNL     1      -1.345  -5.290   3.041  0.00  0.00    -0.309 N 
ATOM     25  H   UNL     1      -1.677  -6.161   2.770  0.00  0.00    +0.149 HD
BRANCH  24  26
ATOM     26  C   UNL     1      -1.433  -4.876   4.443  0.00  0.00    +0.136 C 
BRANCH  26  27
ATOM     27  C   UNL     1      -2.085  -5.990   5.264  0.00  0.00    +0.135 C 
ATOM     28  C   UNL     1      -2.220  -5.558   6.746  0.00  0.00    +0.035 C 
ATOM     29  C   UNL     1      -3.404  -6.451   7.207  0.00  0.00    +0.031 C 
ATOM     30  C   UNL     1      -4.272  -6.527   5.933  0.00  0.00    +0.160 C 
ATOM     31  O   UNL     1      -3.429  -6.220   4.814  0.00  0.00    -0.375 OA
ENDBRANCH  26  27
ENDBRANCH  24  26
ENDBRANCH   3  22
BRANCH   8  32
ATOM     32  O   UNL     1      -0.243  -7.588  -4.972  0.00  0.00    -0.507 OA
ATOM     33  H   UNL     1      -0.895  -7.204  -5.574  0.00  0.00    +0.292 HD
ENDBRANCH   8  32
TORSDOF 6
