REMARK  Name = ZINC09424469
REMARK  12 active torsions:
REMARK  status: ('A' for Active; 'I' for Inactive)
REMARK    1  A    between atoms: C_1  and  C_2
REMARK    2  A    between atoms: C_2  and  C_3
REMARK    3  A    between atoms: C_3  and  S_4
REMARK    4  A    between atoms: S_4  and  C_5
REMARK    5  A    between atoms: C_14  and  C_16
REMARK    6  A    between atoms: C_14  and  C_17
REMARK    7  A    between atoms: C_17  and  C_18
REMARK    8  A    between atoms: C_21  and  S_24
REMARK    9  A    between atoms: S_24  and  C_25
REMARK   10  A    between atoms: C_25  and  C_26
REMARK   11  A    between atoms: N_28  and  C_29
REMARK   12  A    between atoms: C_32  and  C_35
REMARK                            x       y       z     vdW  Elec       q    Type
REMARK                         _______ _______ _______ _____ _____    ______ ____
ROOT
ATOM      1  C   UNL     1       6.860   3.616  -0.641  0.00  0.00    +0.178 A 
ATOM      2  N   UNL     1       8.137   3.908  -0.722  0.00  0.00    -0.216 NA
ATOM      3  C   UNL     1       9.088   2.995  -0.541  0.00  0.00    +0.115 A 
ATOM      4  C   UNL     1       8.795   1.656  -0.242  0.00  0.00    +0.056 A 
ATOM      5  C   UNL     1       9.944   0.773  -0.078  0.00  0.00    -0.019 A 
ATOM      6  C   UNL     1      11.171   1.327  -0.214  0.00  0.00    +0.021 A 
ATOM      7  S   UNL     1      10.864   3.033  -0.573  0.00  0.00    -0.071 S 
ATOM      8  C   UNL     1      12.483   0.618  -0.082  0.00  0.00    +0.203 C 
ATOM      9  O   UNL     1      12.225  -0.795  -0.103  0.00  0.00    -0.368 OA
ATOM     10  C   UNL     1      11.173  -1.196   0.778  0.00  0.00    +0.071 C 
ATOM     11  C   UNL     1       9.822  -0.715   0.242  0.00  0.00    +0.071 C 
ATOM     12  C   UNL     1      11.415  -0.589   2.162  0.00  0.00    +0.042 C 
ATOM     13  C   UNL     1       7.354   1.333  -0.159  0.00  0.00    +0.174 A 
ATOM     14  N   UNL     1       6.439   2.342  -0.363  0.00  0.00    -0.248 N 
ATOM     15  C   UNL     1       5.211   1.755  -0.221  0.00  0.00    +0.198 A 
ATOM     16  N   UNL     1       5.417   0.484   0.041  0.00  0.00    -0.122 NA
ATOM     17  N   UNL     1       6.680   0.234   0.077  0.00  0.00    -0.128 NA
ENDROOT
BRANCH  10  18
ATOM     18  C   UNL     1      11.159  -2.722   0.889  0.00  0.00    +0.032 C 
ATOM     19  C   UNL     1      12.460  -3.198   1.541  0.00  0.00    +0.007 C 
ENDBRANCH  10  18
BRANCH   1  20
ATOM     20  S   UNL     1       5.664   4.885  -0.895  0.00  0.00    -0.087 S 
BRANCH  20  21
ATOM     21  C   UNL     1       6.760   6.290  -1.210  0.00  0.00    +0.077 C 
BRANCH  21  23
ATOM     22  C   UNL     1       6.848   8.732  -1.732  0.00  0.00    +0.004 C 
ATOM     23  C   UNL     1       5.921   7.544  -1.466  0.00  0.00    +0.008 C 
ENDBRANCH  21  23
ENDBRANCH  20  21
ENDBRANCH   1  20
BRANCH  15  24
ATOM     24  S   UNL     1       3.647   2.552  -0.367  0.00  0.00    -0.076 S 
BRANCH  24  25
ATOM     25  C   UNL     1       2.448   1.223  -0.076  0.00  0.00    +0.173 C 
BRANCH  25  26
ATOM     26  C   UNL     1       1.050   1.777  -0.174  0.00  0.00    +0.227 C 
ATOM     27  O   UNL     1       0.879   2.953  -0.417  0.00  0.00    -0.275 OA
ATOM     28  N   UNL     1      -0.011   0.966   0.007  0.00  0.00    -0.285 N 
ATOM     29  H   UNL     1       0.122   0.012   0.124  0.00  0.00    +0.155 HD
BRANCH  28  30
ATOM     30  C   UNL     1      -1.305   1.499   0.022  0.00  0.00    +0.033 A 
ATOM     31  C   UNL     1      -1.528   2.769   0.536  0.00  0.00    +0.023 A 
ATOM     32  C   UNL     1      -2.806   3.295   0.544  0.00  0.00    +0.005 A 
ATOM     33  C   UNL     1      -3.863   2.552   0.052  0.00  0.00    -0.050 A 
ATOM     34  C   UNL     1      -3.645   1.284  -0.456  0.00  0.00    +0.005 A 
ATOM     35  C   UNL     1      -2.369   0.756  -0.472  0.00  0.00    +0.023 A 
ATOM     36  C   UNL     1      -5.257   3.126   0.068  0.00  0.00    +0.044 C 
ENDBRANCH  28  30
ENDBRANCH  25  26
ENDBRANCH  24  25
ENDBRANCH  15  24
TORSDOF 8
