REMARK  Name = ZINC39623924
REMARK  7 active torsions:
REMARK  status: ('A' for Active; 'I' for Inactive)
REMARK    1  A    between atoms: C_1  and  C_2
REMARK    2  A    between atoms: C_2  and  C_3
REMARK    3  A    between atoms: C_3  and  C_4
REMARK    4  A    between atoms: C_4  and  N_5
REMARK    5  A    between atoms: C_6  and  C_8
REMARK    6  A    between atoms: C_19  and  C_21
REMARK    7  A    between atoms: C_25  and  C_27
REMARK                            x       y       z     vdW  Elec       q    Type
REMARK                         _______ _______ _______ _____ _____    ______ ____
ROOT
ATOM      1  C   UNL     1       1.569  -4.332  -3.898  0.00  0.00    +0.100 C 
ATOM      2  C   UNL     1       1.061  -3.938  -5.303  0.00  0.00    +0.121 C 
ATOM      3  N   UNL     1       1.335  -5.125  -6.147  0.00  0.00    -0.296 N 
ATOM      4  C   UNL     1       1.012  -6.280  -5.274  0.00  0.00    +0.115 C 
ATOM      5  C   UNL     1       1.534  -5.870  -3.883  0.00  0.00    -0.004 C 
ATOM      6  C   UNL     1       0.585  -6.366  -2.797  0.00  0.00    -0.010 C 
ATOM      7  C   UNL     1       0.612  -7.897  -2.762  0.00  0.00    -0.082 C 
ATOM      8  N   UNL     1       1.979  -8.358  -2.493  0.00  0.00    +0.379 N 
ATOM      9  C   UNL     1       2.868  -7.955  -3.589  0.00  0.00    -0.082 C 
ATOM     10  C   UNL     1       2.937  -6.427  -3.659  0.00  0.00    -0.010 C 
ATOM     11  C   UNL     1       1.778  -5.150  -7.420  0.00  0.00    +0.247 C 
ATOM     12  O   UNL     1       2.122  -4.119  -7.964  0.00  0.00    -0.270 OA
ATOM     13  H   UNL     1       2.307  -7.950  -1.629  0.00  0.00    -0.086 HD
ATOM     14  H   UNL     1       1.984  -9.363  -2.410  0.00  0.00    -0.086 HD
ENDROOT
BRANCH  11  15
ATOM     15  C   UNL     1       1.844  -6.431  -8.154  0.00  0.00    +0.037 A 
ATOM     16  C   UNL     1       1.078  -7.520  -7.734  0.00  0.00    +0.014 A 
ATOM     17  C   UNL     1       1.144  -8.713  -8.424  0.00  0.00    +0.016 A 
ATOM     18  C   UNL     1       1.969  -8.831  -9.530  0.00  0.00    +0.021 A 
ATOM     19  C   UNL     1       2.731  -7.755  -9.951  0.00  0.00    -0.036 A 
ATOM     20  C   UNL     1       2.669  -6.555  -9.274  0.00  0.00    +0.017 A 
ATOM     21  C   UNL     1       3.626  -7.892 -11.156  0.00  0.00    +0.045 C 
ATOM     22 BR   UNL     1       2.055 -10.470 -10.469  0.00  0.00    -0.050 Br
ENDBRANCH  11  15
BRANCH   1  24
ATOM     23  N   UNL     1       1.150  -3.454  -1.624  0.00  0.00    -0.315 N 
ATOM     24  C   UNL     1       0.656  -3.776  -2.836  0.00  0.00    +0.218 C 
ATOM     25  O   UNL     1      -0.523  -3.619  -3.071  0.00  0.00    -0.275 OA
ATOM     26  H   UNL     1       2.093  -3.580  -1.436  0.00  0.00    +0.149 HD
BRANCH  23  27
ATOM     27  C   UNL     1       0.262  -2.913  -0.591  0.00  0.00    +0.104 C 
BRANCH  27  28
ATOM     28  C   UNL     1       1.069  -2.634   0.679  0.00  0.00    +0.018 C 
BRANCH  28  30
ATOM     29  C   UNL     1       0.948  -1.791   3.027  0.00  0.00    +0.004 C 
ATOM     30  C   UNL     1       0.142  -2.070   1.758  0.00  0.00    -0.002 C 
ENDBRANCH  28  30
ENDBRANCH  27  28
ENDBRANCH  23  27
ENDBRANCH   1  24
TORSDOF 5
