REMARK  Name = ZINC08723268
REMARK  13 active torsions:
REMARK  status: ('A' for Active; 'I' for Inactive)
REMARK    1  A    between atoms: C_1  and  C_2
REMARK    2  A    between atoms: C_2  and  O_3
REMARK    3  A    between atoms: O_3  and  C_4
REMARK    4  A    between atoms: C_6  and  C_16
REMARK    5  A    between atoms: C_9  and  O_10
REMARK    6  A    between atoms: O_10  and  C_11
REMARK    7  A    between atoms: C_11  and  C_12
REMARK    8  A    between atoms: C_16  and  N_46
REMARK    9  A    between atoms: C_17  and  C_18
REMARK   10  A    between atoms: C_17  and  N_46
REMARK   11  A    between atoms: C_18  and  S_19
REMARK   12  A    between atoms: S_19  and  C_20
REMARK   13  A    between atoms: N_24  and  C_25
REMARK                            x       y       z     vdW  Elec       q    Type
REMARK                         _______ _______ _______ _____ _____    ______ ____
ROOT
ATOM      1  C   UNL     1       0.807   1.987   2.993  0.00  0.00    +0.163 A 
ATOM      2  C   UNL     1       1.347   1.611   4.212  0.00  0.00    +0.051 A 
ATOM      3  C   UNL     1       0.937   0.438   4.818  0.00  0.00    -0.060 A 
ATOM      4  C   UNL     1      -0.012  -0.362   4.211  0.00  0.00    +0.021 A 
ATOM      5  C   UNL     1      -0.559   0.009   2.996  0.00  0.00    +0.063 A 
ATOM      6  C   UNL     1      -0.148   1.182   2.381  0.00  0.00    +0.176 A 
ATOM      7 BR   UNL     1      -1.863  -1.084   2.172  0.00  0.00    -0.046 Br
ENDROOT
BRANCH   1   8
ATOM      8  O   UNL     1       1.209   3.141   2.396  0.00  0.00    -0.489 OA
BRANCH   8  10
ATOM      9  C   UNL     1       2.516   5.169   2.264  0.00  0.00    +0.048 C 
ATOM     10  C   UNL     1       2.192   3.918   3.083  0.00  0.00    +0.226 C 
ENDBRANCH   8  10
ENDBRANCH   1   8
BRANCH   6  11
ATOM     11  O   UNL     1      -0.682   1.547   1.184  0.00  0.00    -0.478 OA
BRANCH  11  12
ATOM     12  C   UNL     1      -0.013   1.086   0.008  0.00  0.00    +0.324 C 
BRANCH  12  13
ATOM     13  C   UNL     1      -0.742   1.585  -1.213  0.00  0.00    +0.248 C 
ATOM     14  O   UNL     1      -1.736   2.268  -1.088  0.00  0.00    -0.272 OA
ATOM     15  N   UNL     1      -0.288   1.272  -2.443  0.00  0.00    -0.327 N 
ATOM     16  H   UNL     1       0.507   0.726  -2.543  0.00  0.00    +0.145 HD
ATOM     17  H   UNL     1      -0.758   1.594  -3.229  0.00  0.00    +0.145 HD
ENDBRANCH  12  13
ENDBRANCH  11  12
ENDBRANCH   6  11
BRANCH   3  18
ATOM     18  C   UNL     1       1.526   0.032   6.145  0.00  0.00    -0.047 C 
BRANCH  18  19
ATOM     19  N   UNL     1       0.704   0.596   7.232  0.00  0.00    +0.382 N 
ATOM     20  H   UNL     1      -0.255   0.239   7.152  0.00  0.00    -0.085 HD
ATOM     21  H   UNL     1       0.696   1.620   7.153  0.00  0.00    -0.085 HD
BRANCH  19  22
ATOM     22  C   UNL     1       1.258   0.214   8.544  0.00  0.00    -0.071 C 
BRANCH  22  23
ATOM     23  C   UNL     1       0.387   0.813   9.650  0.00  0.00    +0.058 C 
BRANCH  23  24
ATOM     24  S   UNL     1       1.058   0.349  11.265  0.00  0.00    -0.086 S 
BRANCH  24  25
ATOM     25  C   UNL     1      -0.104   1.148  12.321  0.00  0.00    +0.209 A 
ATOM     26  N   UNL     1      -1.142   1.862  11.943  0.00  0.00    -0.102 NA
ATOM     27  N   UNL     1      -1.782   2.302  12.965  0.00  0.00    -0.022 NA
ATOM     28  N   UNL     1      -1.213   1.910  14.053  0.00  0.00    -0.043 NA
ATOM     29  N   UNL     1      -0.101   1.138  13.675  0.00  0.00    -0.223 N 
ATOM     30  C   UNL     1       0.858   0.468  14.557  0.00  0.00    +0.177 C 
ENDBRANCH  24  25
ENDBRANCH  23  24
ENDBRANCH  22  23
ENDBRANCH  19  22
ENDBRANCH  18  19
ENDBRANCH   3  18
TORSDOF 11
