REMARK  Name = ZINC38806293
REMARK  11 active torsions:
REMARK  status: ('A' for Active; 'I' for Inactive)
REMARK    1  A    between atoms: C_1  and  C_2
REMARK    2  A    between atoms: C_2  and  O_3
REMARK    3  A    between atoms: O_3  and  C_4
REMARK    4  A    between atoms: C_4  and  C_6
REMARK    5  A    between atoms: C_10  and  N_11
REMARK    6  A    between atoms: C_12  and  C_14
REMARK    7  A    between atoms: N_19  and  C_21
REMARK    8  A    between atoms: C_27  and  C_33
REMARK    9  A    between atoms: C_27  and  C_34
REMARK   10  A    between atoms: C_29  and  C_31
REMARK   11  A    between atoms: C_29  and  C_32
REMARK                            x       y       z     vdW  Elec       q    Type
REMARK                         _______ _______ _______ _____ _____    ______ ____
ROOT
ATOM      1  C   UNL     1       1.445  -2.400  -2.520  0.00  0.00    +0.091 A 
ATOM      2  C   UNL     1       2.860  -2.692  -2.538  0.00  0.00    -0.024 A 
ATOM      3  C   UNL     1       3.320  -3.190  -3.710  0.00  0.00    -0.016 A 
ATOM      4  S   UNL     1       1.888  -3.270  -4.744  0.00  0.00    -0.079 S 
ATOM      5  C   UNL     1       0.733  -2.668  -3.684  0.00  0.00    +0.086 A 
ATOM      6  C   UNL     1       4.730  -3.565  -4.018  0.00  0.00    -0.041 C 
ATOM      7  N   UNL     1       5.581  -3.560  -2.829  0.00  0.00    +0.389 N 
ATOM      8  C   UNL     1       4.905  -3.613  -1.541  0.00  0.00    -0.069 C 
ATOM      9  C   UNL     1       3.850  -2.509  -1.397  0.00  0.00    +0.024 C 
ATOM     10  C   UNL     1       5.955  -3.408  -0.432  0.00  0.00    -0.010 C 
ATOM     11  C   UNL     1       4.247  -4.977  -1.320  0.00  0.00    -0.010 C 
ATOM     12  C   UNL     1       5.291  -2.548  -5.031  0.00  0.00    -0.005 C 
ATOM     13  C   UNL     1       4.756  -4.951  -4.680  0.00  0.00    -0.005 C 
ATOM     14  H   UNL     1       6.226  -4.351  -2.889  0.00  0.00    -0.084 HD
ATOM     15  H   UNL     1       6.169  -2.725  -2.854  0.00  0.00    -0.084 HD
ENDROOT
BRANCH   5  16
ATOM     16  N   UNL     1      -0.621  -2.482  -3.913  0.00  0.00    -0.279 N 
ATOM     17  C   UNL     1      -1.151  -2.798  -5.112  0.00  0.00    +0.223 C 
ATOM     18  O   UNL     1      -0.443  -3.246  -5.989  0.00  0.00    -0.275 OA
ATOM     19  H   UNL     1      -1.187  -2.124  -3.212  0.00  0.00    +0.155 HD
BRANCH  17  20
ATOM     20  C   UNL     1      -2.623  -2.596  -5.362  0.00  0.00    +0.102 C 
ATOM     21  C   UNL     1      -2.994  -1.096  -5.299  0.00  0.00    +0.110 C 
ATOM     22  C   UNL     1      -2.903  -0.631  -6.736  0.00  0.00    +0.221 C 
ATOM     23  O   UNL     1      -2.843   0.528  -7.089  0.00  0.00    -0.275 OA
ATOM     24  N   UNL     1      -2.897  -1.690  -7.565  0.00  0.00    -0.271 N 
ATOM     25  C   UNL     1      -2.991  -2.952  -6.819  0.00  0.00    +0.127 C 
BRANCH  24  26
ATOM     26  C   UNL     1      -2.814  -1.601  -8.959  0.00  0.00    +0.036 A 
ATOM     27  C   UNL     1      -2.842  -0.359  -9.580  0.00  0.00    +0.023 A 
ATOM     28  C   UNL     1      -2.760  -0.274 -10.956  0.00  0.00    +0.002 A 
ATOM     29  C   UNL     1      -2.648  -1.425 -11.715  0.00  0.00    +0.000 A 
ATOM     30  C   UNL     1      -2.620  -2.663 -11.100  0.00  0.00    +0.002 A 
ATOM     31  C   UNL     1      -2.696  -2.754  -9.724  0.00  0.00    +0.023 A 
ENDBRANCH  24  26
ENDBRANCH  17  20
ENDBRANCH   5  16
BRANCH   1  32
ATOM     32  C   UNL     1       0.779  -1.849  -1.338  0.00  0.00    +0.342 C 
ATOM     33  O   UNL     1       0.306  -2.596  -0.502  0.00  0.00    -0.245 OA
BRANCH  32  34
ATOM     34  O   UNL     1       0.690  -0.513  -1.176  0.00  0.00    -0.461 OA
BRANCH  34  36
ATOM     35  C   UNL     1       0.026   1.485   0.011  0.00  0.00    +0.048 C 
ATOM     36  C   UNL     1       0.028  -0.045   0.001  0.00  0.00    +0.229 C 
ENDBRANCH  34  36
ENDBRANCH  32  34
ENDBRANCH   1  32
TORSDOF 6
