REMARK  Name = ZINC43554250
REMARK  14 active torsions:
REMARK  status: ('A' for Active; 'I' for Inactive)
REMARK    1  A    between atoms: C_1  and  C_2
REMARK    2  A    between atoms: C_5  and  O_36
REMARK    3  A    between atoms: C_7  and  C_33
REMARK    4  A    between atoms: C_7  and  C_34
REMARK    5  A    between atoms: C_17  and  O_19
REMARK    6  A    between atoms: O_19  and  C_20
REMARK    7  A    between atoms: C_20  and  C_21
REMARK    8  A    between atoms: C_23  and  C_25
REMARK    9  A    between atoms: C_25  and  C_26
REMARK   10  A    between atoms: N_28  and  C_29
REMARK   11  A    between atoms: C_29  and  C_30
REMARK   12  A    between atoms: C_30  and  O_31
REMARK   13  A    between atoms: O_31  and  C_32
REMARK   14  A    between atoms: C_34  and  O_35
REMARK                            x       y       z     vdW  Elec       q    Type
REMARK                         _______ _______ _______ _____ _____    ______ ____
ROOT
ATOM      1  C   UNL     1       0.119   1.505  -0.019  0.00  0.00    +0.012 C 
ATOM      2  C   UNL     1       0.120  -0.031  -0.010  0.00  0.00    -0.019 C 
ATOM      3  C   UNL     1      -1.323  -0.518   0.062  0.00  0.00    +0.010 C 
ATOM      4  C   UNL     1      -1.978   0.034   1.329  0.00  0.00    +0.032 C 
ATOM      5  C   UNL     1      -1.235  -0.391   2.581  0.00  0.00    +0.123 C 
ATOM      6  C   UNL     1       0.271  -0.197   2.529  0.00  0.00    +0.021 C 
ATOM      7  C   UNL     1       0.892  -0.578   1.185  0.00  0.00    +0.011 C 
ATOM      8  C   UNL     1       0.945  -2.118   1.136  0.00  0.00    +0.049 C 
ATOM      9  C   UNL     1       1.018  -2.632  -0.255  0.00  0.00    +0.015 A 
ATOM     10  C   UNL     1       0.926  -1.928  -1.410  0.00  0.00    +0.058 A 
ATOM     11  N   UNL     1       0.993  -2.649  -2.522  0.00  0.00    -0.229 NA
ATOM     12  C   UNL     1       1.158  -3.954  -2.490  0.00  0.00    +0.167 A 
ATOM     13  S   UNL     1       1.240  -4.291  -0.841  0.00  0.00    -0.057 S 
ATOM     14  N   UNL     1       1.244  -4.839  -3.558  0.00  0.00    -0.230 N 
ATOM     15  C   UNL     1       1.416  -6.157  -3.330  0.00  0.00    +0.406 C 
ATOM     16  O   UNL     1       1.495  -6.570  -2.190  0.00  0.00    -0.226 OA
ATOM     17  C   UNL     1       0.788  -0.421  -1.331  0.00  0.00    +0.054 C 
ATOM     18  C   UNL     1       0.637   1.233   2.947  0.00  0.00    +0.016 C 
ATOM     19  H   UNL     1       1.181  -4.509  -4.468  0.00  0.00    +0.160 HD
ENDROOT
BRANCH   5  20
ATOM     20  O   UNL     1      -1.547  -1.754   2.890  0.00  0.00    -0.391 OA
ATOM     21  H   UNL     1      -2.487  -1.916   3.050  0.00  0.00    +0.210 HD
ENDBRANCH   5  20
BRANCH  15  22
ATOM     22  O   UNL     1       1.499  -7.014  -4.364  0.00  0.00    -0.446 OA
BRANCH  22  23
ATOM     23  C   UNL     1       1.681  -8.396  -4.049  0.00  0.00    +0.261 C 
BRANCH  23  24
ATOM     24  C   UNL     1       1.751  -9.197  -5.323  0.00  0.00    +0.006 C 
ATOM     25  C   UNL     1       2.672 -10.117  -5.468  0.00  0.00    +0.007 C 
ENDBRANCH  23  24
ENDBRANCH  22  23
ENDBRANCH  15  22
BRANCH  17  26
ATOM     26  C   UNL     1      -0.011   0.107  -2.518  0.00  0.00    +0.106 C 
BRANCH  26  27
ATOM     27  C   UNL     1       0.734  -0.185  -3.796  0.00  0.00    +0.214 C 
ATOM     28  O   UNL     1       1.800  -0.761  -3.757  0.00  0.00    -0.276 OA
ATOM     29  N   UNL     1       0.214   0.193  -4.980  0.00  0.00    -0.313 N 
ATOM     30  H   UNL     1      -0.639   0.654  -5.011  0.00  0.00    +0.149 HD
BRANCH  29  31
ATOM     31  C   UNL     1       0.938  -0.092  -6.222  0.00  0.00    +0.132 C 
BRANCH  31  32
ATOM     32  C   UNL     1       0.136   0.439  -7.412  0.00  0.00    +0.178 C 
BRANCH  32  33
ATOM     33  O   UNL     1       0.059   1.864  -7.338  0.00  0.00    -0.381 OA
ATOM     34  C   UNL     1      -0.672   2.463  -8.409  0.00  0.00    +0.194 C 
ENDBRANCH  32  33
ENDBRANCH  31  32
ENDBRANCH  29  31
ENDBRANCH  26  27
ENDBRANCH  17  26
BRANCH   6  35
ATOM     35  C   UNL     1       0.885  -1.110   3.623  0.00  0.00    +0.165 C 
BRANCH  35  36
ATOM     36  O   UNL     1       0.372  -0.732   4.902  0.00  0.00    -0.394 OA
ATOM     37  H   UNL     1       0.714  -1.262   5.635  0.00  0.00    +0.209 HD
ENDBRANCH  35  36
ENDBRANCH   6  35
TORSDOF 11
