REMARK  Name = ZINC39631963
REMARK  14 active torsions:
REMARK  status: ('A' for Active; 'I' for Inactive)
REMARK    1  A    between atoms: C_1  and  C_2
REMARK    2  A    between atoms: C_12  and  O_13
REMARK    3  A    between atoms: O_13  and  C_14
REMARK    4  A    between atoms: C_14  and  C_15
REMARK    5  A    between atoms: C_19  and  C_28
REMARK    6  A    between atoms: N_30  and  C_31
REMARK    7  A    between atoms: C_31  and  C_33
REMARK    8  A    between atoms: C_31  and  C_34
REMARK    9  A    between atoms: C_34  and  C_35
REMARK   10  A    between atoms: C_35  and  C_36
REMARK   11  A    between atoms: C_36  and  C_37
REMARK   12  A    between atoms: C_37  and  C_38
REMARK   13  A    between atoms: C_37  and  C_39
REMARK   14  A    between atoms: C_37  and  O_40
REMARK                            x       y       z     vdW  Elec       q    Type
REMARK                         _______ _______ _______ _____ _____    ______ ____
ROOT
ATOM      1  C   UNL     1      -1.298  -5.892   2.567  0.00  0.00    +0.253 C 
ATOM      2  O   UNL     1      -1.376  -6.378   1.459  0.00  0.00    -0.272 OA
ATOM      3  N   UNL     1      -0.927  -6.655   3.614  0.00  0.00    -0.297 N 
ATOM      4  C   UNL     1      -0.685  -6.225   5.011  0.00  0.00    +0.121 C 
ATOM      5  C   UNL     1      -1.275  -7.360   5.877  0.00  0.00    +0.100 C 
ATOM      6  C   UNL     1      -1.260  -8.598   4.965  0.00  0.00    -0.004 C 
ATOM      7  C   UNL     1      -0.675  -8.116   3.629  0.00  0.00    +0.115 C 
ATOM      8  C   UNL     1      -2.680  -9.117   4.755  0.00  0.00    -0.010 C 
ATOM      9  C   UNL     1      -2.633 -10.381   3.891  0.00  0.00    -0.082 C 
ATOM     10  N   UNL     1      -1.811 -11.399   4.555  0.00  0.00    +0.379 N 
ATOM     11  C   UNL     1      -0.426 -10.929   4.670  0.00  0.00    -0.082 C 
ATOM     12  C   UNL     1      -0.379  -9.688   5.566  0.00  0.00    -0.010 C 
ATOM     13  H   UNL     1      -2.181 -11.580   5.476  0.00  0.00    -0.086 HD
ATOM     14  H   UNL     1      -1.832 -12.251   4.015  0.00  0.00    -0.086 HD
ENDROOT
BRANCH   5  15
ATOM     15  C   UNL     1      -2.686  -7.027   6.290  0.00  0.00    +0.218 C 
ATOM     16  O   UNL     1      -3.395  -6.376   5.552  0.00  0.00    -0.275 OA
ATOM     17  N   UNL     1      -3.159  -7.452   7.478  0.00  0.00    -0.312 N 
ATOM     18  H   UNL     1      -2.571  -7.909   8.099  0.00  0.00    +0.149 HD
BRANCH  17  19
ATOM     19  C   UNL     1      -4.562  -7.223   7.832  0.00  0.00    +0.070 C 
ATOM     20  C   UNL     1      -5.418  -8.370   7.289  0.00  0.00    +0.028 C 
BRANCH  19  21
ATOM     21  C   UNL     1      -4.700  -7.159   9.354  0.00  0.00    +0.022 C 
BRANCH  21  22
ATOM     22  C   UNL     1      -3.964  -5.927   9.882  0.00  0.00    +0.005 C 
BRANCH  22  23
ATOM     23  C   UNL     1      -4.002  -5.926  11.411  0.00  0.00    +0.034 C 
BRANCH  23  24
ATOM     24  C   UNL     1      -3.385  -4.628  11.936  0.00  0.00    +0.061 C 
ATOM     25  C   UNL     1      -3.452  -4.612  13.464  0.00  0.00    +0.041 C 
ATOM     26  C   UNL     1      -1.925  -4.540  11.489  0.00  0.00    +0.041 C 
BRANCH  24  27
ATOM     27  O   UNL     1      -4.110  -3.511  11.416  0.00  0.00    -0.389 OA
ATOM     28  H   UNL     1      -3.773  -2.653  11.708  0.00  0.00    +0.210 HD
ENDBRANCH  24  27
ENDBRANCH  23  24
ENDBRANCH  22  23
ENDBRANCH  21  22
ENDBRANCH  19  21
ENDBRANCH  17  19
ENDBRANCH   5  15
BRANCH   1  29
ATOM     29  C   UNL     1      -1.616  -4.433   2.773  0.00  0.00    +0.324 C 
BRANCH  29  30
ATOM     30  O   UNL     1      -2.092  -3.872   1.549  0.00  0.00    -0.479 OA
BRANCH  30  42
ATOM     31  C   UNL     1      -3.558   1.627  -0.958  0.00  0.00    +0.045 C 
ATOM     32  C   UNL     1      -3.285   0.145  -0.912  0.00  0.00    -0.033 A 
ATOM     33  C   UNL     1      -3.366  -0.614  -2.033  0.00  0.00    +0.096 A 
ATOM     34  C   UNL     1      -3.104  -1.999  -1.963  0.00  0.00    +0.338 A 
ATOM     35  O   UNL     1      -3.180  -2.670  -2.977  0.00  0.00    -0.245 OA
ATOM     36  O   UNL     1      -2.775  -2.596  -0.808  0.00  0.00    -0.418 OA
ATOM     37  C   UNL     1      -2.677  -1.897   0.344  0.00  0.00    +0.181 A 
ATOM     38  C   UNL     1      -2.918  -0.514   0.346  0.00  0.00    +0.024 A 
ATOM     39  C   UNL     1      -2.813   0.213   1.536  0.00  0.00    +0.012 A 
ATOM     40  C   UNL     1      -2.467  -0.432   2.702  0.00  0.00    +0.004 A 
ATOM     41  C   UNL     1      -2.223  -1.798   2.702  0.00  0.00    +0.049 A 
ATOM     42  C   UNL     1      -2.333  -2.534   1.536  0.00  0.00    +0.164 A 
ENDBRANCH  30  42
ENDBRANCH  29  30
ENDBRANCH   1  29
TORSDOF 10
