REMARK  Name = ZINC03175941
REMARK  10 active torsions:
REMARK  status: ('A' for Active; 'I' for Inactive)
REMARK    1  A    between atoms: C_1  and  C_2
REMARK    2  A    between atoms: C_9  and  N_29
REMARK    3  A    between atoms: C_10  and  C_13
REMARK    4  A    between atoms: N_14  and  C_15
REMARK    5  A    between atoms: C_16  and  C_28
REMARK    6  A    between atoms: N_17  and  C_27
REMARK    7  A    between atoms: N_18  and  C_21
REMARK    8  A    between atoms: N_29  and  C_30
REMARK    9  A    between atoms: C_33  and  S_36
REMARK   10  A    between atoms: S_36  and  C_37
REMARK                            x       y       z     vdW  Elec       q    Type
REMARK                         _______ _______ _______ _____ _____    ______ ____
ROOT
ATOM      1  C   UNL     1      -2.002   0.683  -0.139  0.00  0.00    +0.047 C 
ATOM      2  C   UNL     1      -1.485  -0.730  -0.055  0.00  0.00    -0.007 A 
ATOM      3  C   UNL     1      -1.234  -1.437  -1.193  0.00  0.00    +0.008 A 
ATOM      4  C   UNL     1      -0.753  -2.751  -1.099  0.00  0.00    +0.019 A 
ATOM      5  C   UNL     1      -0.541  -3.311   0.113  0.00  0.00    +0.096 A 
ATOM      6  N   UNL     1      -0.790  -2.612   1.257  0.00  0.00    -0.267 N 
ATOM      7  C   UNL     1      -1.254  -1.327   1.198  0.00  0.00    +0.145 A 
ATOM      8  N   UNL     1      -1.498  -0.628   2.305  0.00  0.00    -0.213 NA
ATOM      9  C   UNL     1      -1.296  -1.143   3.511  0.00  0.00    +0.139 A 
ATOM     10  C   UNL     1      -0.813  -2.464   3.632  0.00  0.00    +0.098 A 
ATOM     11  C   UNL     1      -0.568  -3.201   2.452  0.00  0.00    +0.269 A 
ATOM     12  O   UNL     1      -0.150  -4.345   2.512  0.00  0.00    -0.266 OA
ENDROOT
BRANCH  10  13
ATOM     13  C   UNL     1      -0.581  -3.059   4.949  0.00  0.00    +0.128 C 
ATOM     14  N   UNL     1      -0.133  -4.283   5.043  0.00  0.00    -0.247 NA
BRANCH  14  15
ATOM     15  C   UNL     1       0.084  -4.840   6.276  0.00  0.00    +0.150 A 
ATOM     16  C   UNL     1       0.551  -6.095   6.528  0.00  0.00    +0.064 A 
ATOM     17  N   UNL     1       0.627  -6.267   7.881  0.00  0.00    -0.282 N 
ATOM     18  N   UNL     1       0.200  -5.099   8.522  0.00  0.00    -0.215 N 
ATOM     19  C   UNL     1      -0.136  -4.196   7.578  0.00  0.00    +0.298 A 
ATOM     20  O   UNL     1      -0.545  -3.065   7.769  0.00  0.00    -0.264 OA
ATOM     21  C   UNL     1       1.083  -7.484   8.555  0.00  0.00    +0.171 C 
ATOM     22  C   UNL     1       0.922  -7.122   5.489  0.00  0.00    +0.067 C 
BRANCH  18  23
ATOM     23  C   UNL     1       0.138  -4.900   9.905  0.00  0.00    +0.067 A 
ATOM     24  C   UNL     1      -1.009  -4.368  10.481  0.00  0.00    +0.028 A 
ATOM     25  C   UNL     1      -1.067  -4.173  11.847  0.00  0.00    +0.002 A 
ATOM     26  C   UNL     1       0.014  -4.507  12.641  0.00  0.00    +0.000 A 
ATOM     27  C   UNL     1       1.157  -5.037  12.071  0.00  0.00    +0.002 A 
ATOM     28  C   UNL     1       1.220  -5.240  10.706  0.00  0.00    +0.028 A 
ENDBRANCH  18  23
ENDBRANCH  14  15
ENDBRANCH  10  13
BRANCH   9  29
ATOM     29  N   UNL     1      -1.558  -0.393   4.638  0.00  0.00    -0.299 N 
ATOM     30  H   UNL     1      -1.496  -0.800   5.517  0.00  0.00    +0.154 HD
BRANCH  29  31
ATOM     31  C   UNL     1      -1.913   0.956   4.516  0.00  0.00    +0.032 A 
ATOM     32  C   UNL     1      -2.793   1.528   5.425  0.00  0.00    +0.024 A 
ATOM     33  C   UNL     1      -3.144   2.858   5.304  0.00  0.00    +0.017 A 
ATOM     34  C   UNL     1      -2.615   3.624   4.272  0.00  0.00    +0.013 A 
ATOM     35  C   UNL     1      -1.735   3.052   3.363  0.00  0.00    +0.017 A 
ATOM     36  C   UNL     1      -1.380   1.723   3.488  0.00  0.00    +0.024 A 
BRANCH  34  37
ATOM     37  S   UNL     1      -3.063   5.321   4.117  0.00  0.00    -0.056 S 
BRANCH  37  38
ATOM     38  C   UNL     1      -2.144   5.886   2.659  0.00  0.00    +0.404 C 
ATOM     39  F   UNL     1      -0.772   5.720   2.879  0.00  0.00    -0.197 F 
ATOM     40  F   UNL     1      -2.531   5.134   1.544  0.00  0.00    -0.197 F 
ENDBRANCH  37  38
ENDBRANCH  34  37
ENDBRANCH  29  31
ENDBRANCH   9  29
TORSDOF 7
