REMARK  Name = ZINC17241022
REMARK  8 active torsions:
REMARK  status: ('A' for Active; 'I' for Inactive)
REMARK    1  A    between atoms: C_1  and  C_2
REMARK    2  A    between atoms: C_4  and  O_9
REMARK    3  A    between atoms: O_9  and  C_10
REMARK    4  A    between atoms: C_10  and  C_11
REMARK    5  A    between atoms: N_13  and  N_14
REMARK    6  A    between atoms: C_15  and  C_17
REMARK    7  A    between atoms: C_17  and  N_18
REMARK    8  A    between atoms: C_19  and  C_21
REMARK                            x       y       z     vdW  Elec       q    Type
REMARK                         _______ _______ _______ _____ _____    ______ ____
ROOT
ATOM      1  N   UNL     1      -2.954  -2.339   0.018  0.00  0.00    -0.233 N 
ATOM      2  C   UNL     1      -3.183  -3.667   0.013  0.00  0.00    +0.246 C 
ATOM      3  O   UNL     1      -2.250  -4.443  -0.000  0.00  0.00    -0.273 OA
ATOM      4  H   UNL     1      -3.700  -1.719   0.028  0.00  0.00    +0.173 HD
ENDROOT
BRANCH   1   7
ATOM      5  C   UNL     1      -1.412  -0.526   0.013  0.00  0.00    +0.267 C 
ATOM      6  O   UNL     1      -2.344   0.250   0.026  0.00  0.00    -0.271 OA
ATOM      7  N   UNL     1      -1.640  -1.854   0.008  0.00  0.00    -0.232 N 
ATOM      8  H   UNL     1      -0.894  -2.474  -0.003  0.00  0.00    +0.173 HD
BRANCH   5   9
ATOM      9  C   UNL     1       0.002  -0.004   0.002  0.00  0.00    +0.326 C 
BRANCH   9  10
ATOM     10  O   UNL     1      -0.017   1.425   0.010  0.00  0.00    -0.483 OA
BRANCH  10  14
ATOM     11  C   UNL     1       2.523   5.592   0.008  0.00  0.00    +0.045 C 
ATOM     12  C   UNL     1       2.463   4.086   0.001  0.00  0.00    -0.029 A 
ATOM     13  C   UNL     1       1.240   3.444   0.009  0.00  0.00    +0.050 A 
ATOM     14  C   UNL     1       1.185   2.058   0.002  0.00  0.00    +0.122 A 
ATOM     15  C   UNL     1       2.360   1.319  -0.008  0.00  0.00    +0.047 A 
ATOM     16  C   UNL     1       3.580   1.965  -0.021  0.00  0.00    +0.024 A 
ATOM     17  C   UNL     1       3.633   3.348  -0.014  0.00  0.00    +0.044 A 
ATOM     18 CL   UNL     1       5.169   4.157  -0.024  0.00  0.00    -0.083 Cl
ENDBRANCH  10  14
ENDBRANCH   9  10
ENDBRANCH   5   9
ENDBRANCH   1   7
BRANCH   2  19
ATOM     19  C   UNL     1      -4.596  -4.189   0.024  0.00  0.00    +0.202 C 
BRANCH  19  20
ATOM     20  N   UNL     1      -4.577  -5.654   0.015  0.00  0.00    -0.300 N 
ATOM     21  C   UNL     1      -5.734  -6.343   0.023  0.00  0.00    +0.280 C 
ATOM     22  O   UNL     1      -6.797  -5.749   0.036  0.00  0.00    -0.267 OA
ATOM     23  H   UNL     1      -3.730  -6.127   0.005  0.00  0.00    +0.150 HD
BRANCH  21  24
ATOM     24  C   UNL     1      -5.715  -7.809   0.015  0.00  0.00    +0.191 A 
ATOM     25  C   UNL     1      -6.809  -8.626   0.021  0.00  0.00    +0.056 A 
ATOM     26  C   UNL     1      -6.329  -9.944   0.009  0.00  0.00    +0.058 A 
ATOM     27  C   UNL     1      -4.977  -9.875  -0.003  0.00  0.00    +0.171 A 
ATOM     28  O   UNL     1      -4.612  -8.587  -0.006  0.00  0.00    -0.444 OA
ATOM     29 BR   UNL     1      -3.799 -11.354  -0.023  0.00  0.00    -0.008 Br
ENDBRANCH  21  24
ENDBRANCH  19  20
ENDBRANCH   2  19
TORSDOF 7
