REMARK  Name = ZINC13592027
REMARK  7 active torsions:
REMARK  status: ('A' for Active; 'I' for Inactive)
REMARK    1  A    between atoms: C_1  and  C_2
REMARK    2  A    between atoms: C_12  and  C_22
REMARK    3  A    between atoms: C_15  and  C_18
REMARK    4  A    between atoms: C_18  and  C_19
REMARK    5  A    between atoms: N_24  and  C_25
REMARK    6  A    between atoms: C_28  and  O_31
REMARK    7  A    between atoms: O_31  and  C_32
REMARK                            x       y       z     vdW  Elec       q    Type
REMARK                         _______ _______ _______ _____ _____    ______ ____
ROOT
ATOM      1  C   UNL     1      -0.758   1.826   0.452  0.00  0.00    +0.046 C 
ATOM      2  C   UNL     1      -0.543   0.341   0.312  0.00  0.00    -0.028 A 
ATOM      3  C   UNL     1      -0.483  -0.230  -0.943  0.00  0.00    +0.025 A 
ATOM      4  C   UNL     1      -0.286  -1.593  -1.081  0.00  0.00    +0.042 A 
ATOM      5  C   UNL     1      -0.148  -2.387   0.045  0.00  0.00    +0.027 A 
ATOM      6  C   UNL     1      -0.208  -1.820   1.298  0.00  0.00    +0.005 A 
ATOM      7  C   UNL     1      -0.401  -0.450   1.449  0.00  0.00    +0.042 A 
ATOM      8  N   UNL     1      -0.420  -0.112   2.804  0.00  0.00    -0.283 N 
ATOM      9  C   UNL     1      -0.243  -1.185   3.598  0.00  0.00    +0.243 C 
ATOM     10  O   UNL     1      -0.215  -1.190   4.811  0.00  0.00    -0.273 OA
ATOM     11  C   UNL     1      -0.099  -2.380   2.691  0.00  0.00    +0.135 C 
ATOM     12  C   UNL     1      -1.194  -3.419   2.955  0.00  0.00    +0.110 C 
ATOM     13  C   UNL     1      -0.431  -4.719   3.306  0.00  0.00    +0.034 C 
ATOM     14  C   UNL     1       0.965  -4.484   2.674  0.00  0.00    +0.064 C 
ATOM     15  N   UNL     1       1.203  -3.033   2.900  0.00  0.00    -0.296 NA
ATOM     16 CL   UNL     1      -0.212  -2.305  -2.663  0.00  0.00    -0.084 Cl
ATOM     17  H   UNL     1      -0.546   0.791   3.135  0.00  0.00    +0.155 HD
ATOM     18  H   UNL     1       1.895  -2.676   2.258  0.00  0.00    +0.123 HD
ENDROOT
BRANCH  12  19
ATOM     19  C   UNL     1      -2.035  -3.619   1.720  0.00  0.00    +0.223 C 
ATOM     20  O   UNL     1      -1.787  -4.530   0.959  0.00  0.00    -0.275 OA
ATOM     21  N   UNL     1      -3.063  -2.787   1.463  0.00  0.00    -0.285 N 
ATOM     22  H   UNL     1      -3.218  -2.017   2.033  0.00  0.00    +0.155 HD
BRANCH  21  23
ATOM     23  C   UNL     1      -3.908  -3.033   0.373  0.00  0.00    +0.034 A 
ATOM     24  C   UNL     1      -4.189  -4.339  -0.007  0.00  0.00    +0.027 A 
ATOM     25  C   UNL     1      -5.023  -4.581  -1.081  0.00  0.00    +0.047 A 
ATOM     26  C   UNL     1      -5.579  -3.520  -1.781  0.00  0.00    +0.120 A 
ATOM     27  C   UNL     1      -5.298  -2.215  -1.402  0.00  0.00    +0.047 A 
ATOM     28  C   UNL     1      -4.470  -1.972  -0.324  0.00  0.00    +0.027 A 
BRANCH  26  29
ATOM     29  O   UNL     1      -6.399  -3.759  -2.838  0.00  0.00    -0.495 OA
ATOM     30  C   UNL     1      -6.936  -2.620  -3.513  0.00  0.00    +0.277 C 
ENDBRANCH  26  29
ENDBRANCH  21  23
ENDBRANCH  12  19
BRANCH  14  31
ATOM     31  C   UNL     1       2.027  -5.325   3.384  0.00  0.00    +0.114 C 
BRANCH  31  32
ATOM     32  C   UNL     1       3.347  -5.171   2.673  0.00  0.00    +0.212 C 
ATOM     33  O   UNL     1       3.430  -4.458   1.696  0.00  0.00    -0.276 OA
ATOM     34  N   UNL     1       4.436  -5.826   3.124  0.00  0.00    -0.329 N 
ATOM     35  H   UNL     1       4.369  -6.396   3.906  0.00  0.00    +0.145 HD
ATOM     36  H   UNL     1       5.285  -5.727   2.667  0.00  0.00    +0.145 HD
ENDBRANCH  31  32
ENDBRANCH  14  31
TORSDOF 5
