REMARK  Name = ZINC63573609
REMARK  7 active torsions:
REMARK  status: ('A' for Active; 'I' for Inactive)
REMARK    1  A    between atoms: C_1  and  C_2
REMARK    2  A    between atoms: C_4  and  C_35
REMARK    3  A    between atoms: N_14  and  C_15
REMARK    4  A    between atoms: C_18  and  C_21
REMARK    5  A    between atoms: N_23  and  C_24
REMARK    6  A    between atoms: C_24  and  C_25
REMARK    7  A    between atoms: C_25  and  C_26
REMARK                            x       y       z     vdW  Elec       q    Type
REMARK                         _______ _______ _______ _____ _____    ______ ____
ROOT
ATOM      1  C   UNL     1       1.144   3.343   3.399  0.00  0.00    +0.035 A 
ATOM      2  C   UNL     1       1.290   3.969   2.165  0.00  0.00    +0.024 A 
ATOM      3  C   UNL     1       1.572   5.315   2.103  0.00  0.00    +0.015 A 
ATOM      4  C   UNL     1       1.712   6.053   3.282  0.00  0.00    +0.037 A 
ATOM      5  C   UNL     1       1.565   5.420   4.520  0.00  0.00    +0.015 A 
ATOM      6  C   UNL     1       1.277   4.075   4.574  0.00  0.00    +0.024 A 
ENDROOT
BRANCH   1  20
ATOM      7  C   UNL     1      -1.193   1.881   0.833  0.00  0.00    +0.046 C 
ATOM      8  C   UNL     1      -1.297   0.398   0.586  0.00  0.00    -0.025 A 
ATOM      9  C   UNL     1      -2.095  -0.093  -0.437  0.00  0.00    +0.028 A 
ATOM     10  C   UNL     1      -2.171  -1.456  -0.638  0.00  0.00    +0.040 A 
ATOM     11  N   UNL     1      -1.500  -2.291   0.131  0.00  0.00    -0.244 NA
ATOM     12  C   UNL     1      -0.727  -1.867   1.122  0.00  0.00    +0.119 A 
ATOM     13  C   UNL     1      -0.590  -0.504   1.377  0.00  0.00    +0.072 A 
ATOM     14  N   UNL     1       0.230   0.002   2.387  0.00  0.00    -0.252 N 
ATOM     15  C   UNL     1       0.699  -0.807   3.509  0.00  0.00    +0.126 C 
ATOM     16  C   UNL     1       1.393  -2.061   2.958  0.00  0.00    +0.095 C 
ATOM     17  S   UNL     1       0.126  -3.057   2.108  0.00  0.00    -0.103 S 
ATOM     18  C   UNL     1       0.607   1.294   2.324  0.00  0.00    +0.311 C 
ATOM     19  O   UNL     1       0.721   1.842   1.244  0.00  0.00    -0.252 OA
ATOM     20  N   UNL     1       0.858   1.980   3.457  0.00  0.00    -0.269 N 
ATOM     21  C   UNL     1      -3.032  -1.997  -1.751  0.00  0.00    +0.065 C 
ATOM     22  H   UNL     1       0.839   1.524   4.313  0.00  0.00    +0.156 HD
ENDBRANCH   1  20
BRANCH   4  23
ATOM     23  C   UNL     1       2.015   7.495   3.220  0.00  0.00    +0.244 C 
ATOM     24  O   UNL     1       2.143   8.044   2.143  0.00  0.00    -0.270 OA
ATOM     25  N   UNL     1       2.150   8.205   4.358  0.00  0.00    -0.311 N 
ATOM     26  H   UNL     1       2.048   7.768   5.218  0.00  0.00    +0.149 HD
BRANCH  25  27
ATOM     27  C   UNL     1       2.451   9.638   4.297  0.00  0.00    +0.109 C 
BRANCH  27  28
ATOM     28  C   UNL     1       2.551  10.199   5.716  0.00  0.00    +0.052 C 
BRANCH  28  29
ATOM     29  C   UNL     1       2.861  11.673   5.653  0.00  0.00    -0.040 C 
ATOM     30  C   UNL     1       1.974  12.693   5.705  0.00  0.00    -0.001 A 
ATOM     31  C   UNL     1       0.512  12.734   5.831  0.00  0.00    +0.010 A 
ATOM     32  C   UNL     1      -0.110  13.935   5.856  0.00  0.00    +0.001 A 
ATOM     33  C   UNL     1       0.604  15.137   5.763  0.00  0.00    +0.002 A 
ATOM     34  C   UNL     1       1.948  15.180   5.646  0.00  0.00    +0.026 A 
ATOM     35  C   UNL     1       2.705  13.977   5.611  0.00  0.00    +0.043 A 
ATOM     36  N   UNL     1       3.994  13.759   5.504  0.00  0.00    -0.380 N 
ATOM     37  C   UNL     1       4.226  12.310   5.525  0.00  0.00    +0.144 C 
ATOM     38  H   UNL     1       4.679  14.441   5.427  0.00  0.00    +0.160 HD
ENDBRANCH  28  29
ENDBRANCH  27  28
ENDBRANCH  25  27
ENDBRANCH   4  23
TORSDOF 5
