REMARK  Name = ZINC54727095
REMARK  11 active torsions:
REMARK  status: ('A' for Active; 'I' for Inactive)
REMARK    1  A    between atoms: C_1  and  C_2
REMARK    2  A    between atoms: C_2  and  O_3
REMARK    3  A    between atoms: O_3  and  C_4
REMARK    4  A    between atoms: C_9  and  N_12
REMARK    5  A    between atoms: N_15  and  C_16
REMARK    6  A    between atoms: C_16  and  C_17
REMARK    7  A    between atoms: C_17  and  C_18
REMARK    8  A    between atoms: C_17  and  C_19
REMARK    9  A    between atoms: C_17  and  N_20
REMARK   10  A    between atoms: C_22  and  C_29
REMARK   11  A    between atoms: C_25  and  C_28
REMARK                            x       y       z     vdW  Elec       q    Type
REMARK                         _______ _______ _______ _____ _____    ______ ____
ROOT
ATOM      1  N   UNL     1       1.258  -3.276  -6.683  0.00  0.00    -0.296 N 
ATOM      2  C   UNL     1       1.734  -4.418  -7.218  0.00  0.00    +0.300 C 
ATOM      3  O   UNL     1       2.583  -5.058  -6.628  0.00  0.00    -0.253 OA
ATOM      4  N   UNL     1       1.270  -4.849  -8.407  0.00  0.00    -0.301 N 
ATOM      5  H   UNL     1       0.581  -2.765  -7.154  0.00  0.00    +0.151 HD
ATOM      6  H   UNL     1       0.593  -4.339  -8.878  0.00  0.00    +0.150 HD
ENDROOT
BRANCH   1  12
ATOM      7  C   UNL     1       0.895  -0.913  -1.849  0.00  0.00    +0.403 C 
ATOM      8  O   UNL     1       0.374  -1.550  -0.955  0.00  0.00    -0.226 OA
ATOM      9  N   UNL     1       1.502  -1.555  -2.867  0.00  0.00    -0.267 N 
ATOM     10  C   UNL     1       2.141  -0.799  -3.953  0.00  0.00    +0.113 C 
ATOM     11  C   UNL     1       1.581  -1.291  -5.292  0.00  0.00    +0.041 C 
ATOM     12  C   UNL     1       1.762  -2.807  -5.390  0.00  0.00    +0.077 C 
ATOM     13  C   UNL     1       0.986  -3.490  -4.261  0.00  0.00    +0.041 C 
ATOM     14  C   UNL     1       1.544  -3.023  -2.909  0.00  0.00    +0.113 C 
BRANCH   7  15
ATOM     15  O   UNL     1       0.864   0.432  -1.824  0.00  0.00    -0.451 OA
BRANCH  15  17
ATOM     16  C   UNL     1       0.270   2.567  -0.860  0.00  0.00    +0.048 C 
ATOM     17  C   UNL     1       0.203   1.046  -0.716  0.00  0.00    +0.230 C 
ENDBRANCH  15  17
ENDBRANCH   7  15
ENDBRANCH   1  12
BRANCH   4  18
ATOM     18  C   UNL     1       1.788  -6.090  -8.989  0.00  0.00    +0.093 C 
BRANCH  18  19
ATOM     19  C   UNL     1       1.010  -6.419 -10.265  0.00  0.00    -0.055 C 
ATOM     20  C   UNL     1       1.281  -5.343 -11.319  0.00  0.00    -0.008 C 
ATOM     21  C   UNL     1       1.458  -7.781 -10.799  0.00  0.00    -0.008 C 
BRANCH  19  22
ATOM     22  N   UNL     1      -0.428  -6.459  -9.965  0.00  0.00    +0.384 N 
ATOM     23  C   UNL     1      -0.680  -7.461  -8.922  0.00  0.00    -0.075 C 
ATOM     24  C   UNL     1      -2.164  -7.450  -8.549  0.00  0.00    -0.031 C 
ATOM     25  C   UNL     1      -3.000  -7.780  -9.789  0.00  0.00    +0.003 C 
ATOM     26  C   UNL     1      -2.673  -6.773 -10.895  0.00  0.00    -0.031 C 
ATOM     27  C   UNL     1      -1.170  -6.809 -11.182  0.00  0.00    -0.075 C 
ATOM     28  C   UNL     1      -3.445  -7.139 -12.164  0.00  0.00    +0.005 C 
ATOM     29  C   UNL     1      -2.425  -8.496  -7.463  0.00  0.00    +0.005 C 
ATOM     30  H   UNL     1      -0.728  -5.553  -9.638  0.00  0.00    -0.081 HD
ENDBRANCH  19  22
ENDBRANCH  18  19
ENDBRANCH   4  18
TORSDOF 6
