REMARK  Name = ZINC12504520
REMARK  10 active torsions:
REMARK  status: ('A' for Active; 'I' for Inactive)
REMARK    1  A    between atoms: C_1  and  C_2
REMARK    2  A    between atoms: C_10  and  C_33
REMARK    3  A    between atoms: C_11  and  C_32
REMARK    4  A    between atoms: C_16  and  C_29
REMARK    5  A    between atoms: C_21  and  C_22
REMARK    6  A    between atoms: C_22  and  C_23
REMARK    7  A    between atoms: C_23  and  C_24
REMARK    8  A    between atoms: C_29  and  C_31
REMARK    9  A    between atoms: C_35  and  C_39
REMARK   10  A    between atoms: C_36  and  C_37
REMARK                            x       y       z     vdW  Elec       q    Type
REMARK                         _______ _______ _______ _____ _____    ______ ____
ROOT
ATOM      1  C   UNL     1       0.631   1.676  -0.274  0.00  0.00    +0.046 C 
ATOM      2  C   UNL     1       0.484   0.178  -0.199  0.00  0.00    -0.022 A 
ATOM      3  C   UNL     1       0.413  -0.699  -1.290  0.00  0.00    +0.045 A 
ATOM      4  C   UNL     1       0.522  -0.330  -2.628  0.00  0.00    +0.049 C 
ATOM      5  C   UNL     1       0.307  -1.270  -3.640  0.00  0.00    +0.043 C 
ATOM      6  N   UNL     1      -0.124  -2.526  -3.470  0.00  0.00    -0.285 N 
ATOM      7  C   UNL     1      -0.335  -3.105  -4.648  0.00  0.00    +0.196 C 
ATOM      8  O   UNL     1      -0.837  -4.316  -4.827  0.00  0.00    -0.425 OA
ATOM      9  C   UNL     1      -0.418  -5.228  -4.154  0.00  0.00    +0.209 A 
ATOM     10  C   UNL     1      -0.044  -6.556  -4.656  0.00  0.00    +0.039 A 
ATOM     11  C   UNL     1       0.302  -7.317  -3.554  0.00  0.00    -0.015 A 
ATOM     12  C   UNL     1       0.163  -6.508  -2.411  0.00  0.00    +0.048 A 
ATOM     13  N   UNL     1      -0.213  -5.239  -2.797  0.00  0.00    -0.325 N 
ATOM     14  H   UNL     1      -0.316  -4.478  -2.205  0.00  0.00    +0.169 HD
ATOM     15  C   UNL     1       0.346  -6.973  -1.119  0.00  0.00    +0.054 C 
ATOM     16  C   UNL     1       0.273  -6.177   0.018  0.00  0.00    +0.068 C 
ATOM     17  N   UNL     1       0.242  -4.825  -0.022  0.00  0.00    -0.255 NA
ATOM     18  C   UNL     1       0.195  -4.293   1.208  0.00  0.00    +0.113 C 
ATOM     19  C   UNL     1       0.218  -2.960   1.499  0.00  0.00    +0.045 C 
ATOM     20  C   UNL     1       0.295  -1.918   0.574  0.00  0.00    +0.045 A 
ATOM     21  C   UNL     1       0.404  -0.563   0.942  0.00  0.00    -0.019 A 
ATOM     22  N   UNL     1       0.269  -1.981  -0.795  0.00  0.00    -0.355 N 
ATOM     23  H   UNL     1       0.167  -2.787  -1.326  0.00  0.00    +0.166 HD
ATOM     24  C   UNL     1       0.749  -8.756  -3.574  0.00  0.00    +0.046 C 
ATOM     25  C   UNL     1       0.056  -2.229  -5.687  0.00  0.00    +0.016 C 
ATOM     26  C   UNL     1       0.469  -1.052  -5.089  0.00  0.00    +0.003 C 
ATOM     27  C   UNL     1       0.030  -2.522  -7.165  0.00  0.00    +0.049 C 
ATOM     28  H   UNL     1      -0.263  -2.952  -2.610  0.00  0.00    +0.155 HD
ENDROOT
BRANCH  16  29
ATOM     29  C   UNL     1       0.223  -6.814   1.352  0.00  0.00    -0.032 C 
ATOM     30  C   UNL     1       1.287  -7.458   1.822  0.00  0.00    +0.014 C 
ATOM     31  C   UNL     1      -1.035  -6.734   2.179  0.00  0.00    +0.045 C 
ENDBRANCH  16  29
BRANCH  10  32
ATOM     32  C   UNL     1      -0.038  -6.993  -6.063  0.00  0.00    +0.006 C 
ATOM     33  C   UNL     1      -1.105  -6.786  -6.829  0.00  0.00    +0.009 C 
ENDBRANCH  10  32
BRANCH  26  34
ATOM     34  C   UNL     1       0.966   0.162  -5.758  0.00  0.00    +0.002 C 
ATOM     35  C   UNL     1       0.243   0.736  -6.716  0.00  0.00    +0.009 C 
ENDBRANCH  26  34
BRANCH  21  36
ATOM     36  C   UNL     1       0.424  -0.026   2.350  0.00  0.00    +0.049 C 
BRANCH  36  37
ATOM     37  C   UNL     1      -1.011   0.158   2.847  0.00  0.00    +0.130 C 
BRANCH  37  38
ATOM     38  C   UNL     1      -0.991   0.695   4.255  0.00  0.00    +0.356 C 
ATOM     39  O   UNL     1       0.073   0.910   4.809  0.00  0.00    -0.246 OA
ATOM     40  O   UNL     1      -2.038   0.913   4.839  0.00  0.00    -0.246 OA
ENDBRANCH  37  38
ENDBRANCH  36  37
ENDBRANCH  21  36
TORSDOF 6
