REMARK  Name = ZINC35662534
REMARK  4 active torsions:
REMARK  status: ('A' for Active; 'I' for Inactive)
REMARK    1  A    between atoms: C_5  and  O_10
REMARK    2  A    between atoms: C_6  and  C_7
REMARK    3  A    between atoms: O_10  and  C_11
REMARK    4  A    between atoms: C_11  and  C_12
REMARK                            x       y       z     vdW  Elec       q    Type
REMARK                         _______ _______ _______ _____ _____    ______ ____
ROOT
ATOM      1  C   UNL     1      -0.017   1.395   0.010  0.00  0.00    +0.039 A 
ATOM      2  C   UNL     1       1.169   2.098   0.002  0.00  0.00    +0.043 A 
ATOM      3  C   UNL     1       2.381   1.425  -0.013  0.00  0.00    +0.043 A 
ATOM      4  C   UNL     1       2.415   0.044  -0.021  0.00  0.00    +0.085 A 
ATOM      5  C   UNL     1       1.231  -0.680  -0.013  0.00  0.00    +0.154 A 
ATOM      6  C   UNL     1       0.002  -0.004   0.002  0.00  0.00    +0.107 A 
ATOM      7 CL   UNL     1       3.939  -0.786  -0.040  0.00  0.00    -0.080 Cl
ATOM      8 CL   UNL     1       1.143   3.834   0.011  0.00  0.00    -0.083 Cl
ENDROOT
BRANCH   6   9
ATOM      9  C   UNL     1      -1.260  -0.761   0.011  0.00  0.00    +0.390 C 
ATOM     10  O   UNL     1      -2.329  -0.168   0.024  0.00  0.00    -0.240 OA
ATOM     11  O   UNL     1      -1.239  -1.985   0.004  0.00  0.00    -0.240 OA
ENDBRANCH   6   9
BRANCH   5  12
ATOM     12  O   UNL     1       1.262  -2.037  -0.021  0.00  0.00    -0.480 OA
BRANCH  12  13
ATOM     13  C   UNL     1       1.290  -2.692   1.249  0.00  0.00    +0.325 C 
BRANCH  13  14
ATOM     14  C   UNL     1       1.322  -4.184   1.043  0.00  0.00    +0.258 C 
ATOM     15  O   UNL     1       1.322  -4.642  -0.080  0.00  0.00    -0.272 OA
ATOM     16  N   UNL     1       1.351  -5.011   2.107  0.00  0.00    -0.238 N 
ATOM     17  C   UNL     1       1.381  -6.346   1.923  0.00  0.00    +0.303 C 
ATOM     18  O   UNL     1       1.381  -6.804   0.797  0.00  0.00    -0.253 OA
ATOM     19  N   UNL     1       1.410  -7.172   2.987  0.00  0.00    -0.313 N 
ATOM     20  H   UNL     1       1.351  -4.645   3.005  0.00  0.00    +0.159 HD
ATOM     21  H   UNL     1       1.410  -6.806   3.885  0.00  0.00    +0.146 HD
ATOM     22  H   UNL     1       1.431  -8.133   2.855  0.00  0.00    +0.146 HD
ENDBRANCH  13  14
ENDBRANCH  12  13
ENDBRANCH   5  12
TORSDOF 4
