REMARK  Name = ZINC06149209
REMARK  11 active torsions:
REMARK  status: ('A' for Active; 'I' for Inactive)
REMARK    1  A    between atoms: C_1  and  C_2
REMARK    2  A    between atoms: C_2  and  C_3
REMARK    3  A    between atoms: C_3  and  C_4
REMARK    4  A    between atoms: C_3  and  C_5
REMARK    5  A    between atoms: C_3  and  N_6
REMARK    6  A    between atoms: C_7  and  C_11
REMARK    7  A    between atoms: C_11  and  C_13
REMARK    8  A    between atoms: C_11  and  N_76
REMARK    9  A    between atoms: C_17  and  O_25
REMARK   10  A    between atoms: O_25  and  C_26
REMARK   11  A    between atoms: C_26  and  C_27
REMARK                            x       y       z     vdW  Elec       q    Type
REMARK                         _______ _______ _______ _____ _____    ______ ____
ROOT
ATOM      1  C   UNL     1      -2.551   0.933   0.065  0.00  0.00    +0.039 C 
ENDROOT
BRANCH   1   2
ATOM      2  C   UNL     1      -1.385   1.871   0.248  0.00  0.00    +0.011 A 
ATOM      3  C   UNL     1      -0.120   1.382   0.256  0.00  0.00    +0.017 A 
ATOM      4  C   UNL     1       0.991   2.319   0.429  0.00  0.00    +0.002 A 
ATOM      5  C   UNL     1       2.317   1.873   0.440  0.00  0.00    +0.055 A 
ATOM      6  C   UNL     1       3.341   2.784   0.605  0.00  0.00    +0.121 A 
ATOM      7  C   UNL     1       3.059   4.139   0.761  0.00  0.00    +0.047 A 
ATOM      8  C   UNL     1       1.758   4.590   0.753  0.00  0.00    +0.030 A 
ATOM      9  C   UNL     1       0.711   3.689   0.587  0.00  0.00    +0.049 A 
ATOM     10  N   UNL     1      -0.600   4.122   0.575  0.00  0.00    -0.322 N 
ATOM     11  H   UNL     1      -0.798   5.096   0.687  0.00  0.00    +0.169 HD
ATOM     12  C   UNL     1      -1.613   3.253   0.415  0.00  0.00    +0.251 A 
ATOM     13  O   UNL     1      -2.759   3.671   0.410  0.00  0.00    -0.268 OA
BRANCH   6  14
ATOM     14  O   UNL     1       4.632   2.356   0.616  0.00  0.00    -0.492 OA
BRANCH  14  15
ATOM     15  C   UNL     1       5.643   3.350   0.791  0.00  0.00    +0.225 C 
ATOM     16  C   UNL     1       7.021   2.684   0.776  0.00  0.00    +0.048 C 
ENDBRANCH  14  15
ENDBRANCH   6  14
ENDBRANCH   1   2
BRANCH   1  27
ATOM     17  C   UNL     1      -4.741   0.369   0.928  0.00  0.00    -0.077 C 
ATOM     18  C   UNL     1      -5.750   0.682   2.035  0.00  0.00    -0.018 C 
ATOM     19  C   UNL     1      -5.160   0.273   3.388  0.00  0.00    +0.003 C 
ATOM     20  C   UNL     1      -3.837   1.013   3.603  0.00  0.00    -0.044 C 
ATOM     21  C   UNL     1      -2.883   0.691   2.451  0.00  0.00    -0.071 C 
ATOM     22  C   UNL     1      -4.098   2.520   3.644  0.00  0.00    +0.005 C 
ATOM     23  C   UNL     1      -2.777   3.261   3.861  0.00  0.00    +0.000 C 
ATOM     24  C   UNL     1      -2.154   2.815   5.185  0.00  0.00    +0.000 C 
ATOM     25  C   UNL     1      -1.891   1.308   5.143  0.00  0.00    +0.000 C 
ATOM     26  C   UNL     1      -3.212   0.566   4.925  0.00  0.00    +0.005 C 
ATOM     27  N   UNL     1      -3.499   1.131   1.181  0.00  0.00    +0.390 N 
ATOM     28  H   UNL     1      -3.729   2.129   1.250  0.00  0.00    -0.080 HD
ENDBRANCH   1  27
BRANCH   1  30
ATOM     29  N   UNL     1      -3.275   0.476  -2.337  0.00  0.00    -0.225 N 
ATOM     30  C   UNL     1      -3.248   1.246  -1.234  0.00  0.00    +0.143 A 
ATOM     31  N   UNL     1      -3.951   2.318  -1.506  0.00  0.00    -0.115 NA
ATOM     32  N   UNL     1      -4.380   2.216  -2.717  0.00  0.00    -0.023 NA
ATOM     33  N   UNL     1      -3.976   1.102  -3.221  0.00  0.00    -0.043 NA
BRANCH  29  34
ATOM     34  C   UNL     1      -2.630  -0.829  -2.503  0.00  0.00    +0.061 C 
ATOM     35  C   UNL     1      -1.128  -0.692  -2.245  0.00  0.00    +0.036 C 
ATOM     36  C   UNL     1      -3.230  -1.825  -1.509  0.00  0.00    +0.036 C 
BRANCH  34  38
ATOM     37  C   UNL     1      -2.184  -2.695  -4.104  0.00  0.00    +0.006 C 
ATOM     38  C   UNL     1      -2.858  -1.333  -3.930  0.00  0.00    +0.026 C 
ENDBRANCH  34  38
ENDBRANCH  29  34
ENDBRANCH   1  30
TORSDOF 7
