REMARK  Name = ZINC08705970
REMARK  12 active torsions:
REMARK  status: ('A' for Active; 'I' for Inactive)
REMARK    1  A    between atoms: C_1  and  C_2
REMARK    2  A    between atoms: C_5  and  N_9
REMARK    3  A    between atoms: C_7  and  C_8
REMARK    4  A    between atoms: C_10  and  C_35
REMARK    5  A    between atoms: C_12  and  C_15
REMARK    6  A    between atoms: C_13  and  C_14
REMARK    7  A    between atoms: C_15  and  C_17
REMARK    8  A    between atoms: C_17  and  O_18
REMARK    9  A    between atoms: O_18  and  C_19
REMARK   10  A    between atoms: C_19  and  C_21
REMARK   11  A    between atoms: N_24  and  C_27
REMARK   12  A    between atoms: C_30  and  C_32
REMARK                            x       y       z     vdW  Elec       q    Type
REMARK                         _______ _______ _______ _____ _____    ______ ____
ROOT
ATOM      1  C   UNL     1       1.543   8.355   0.033  0.00  0.00    +0.311 C 
ATOM      2  O   UNL     1       0.366   8.628   0.045  0.00  0.00    -0.251 OA
ENDROOT
BRANCH   1   3
ATOM      3  C   UNL     1       2.572   9.457   0.030  0.00  0.00    +0.101 C 
ATOM      4  C   UNL     1       3.458   9.333   1.272  0.00  0.00    +0.033 C 
ATOM      5  C   UNL     1       4.460  10.490   1.296  0.00  0.00    +0.107 C 
ATOM      6  N   UNL     1       3.735  11.768   1.312  0.00  0.00    -0.317 N 
ATOM      7  C   UNL     1       2.915  11.929   0.105  0.00  0.00    +0.107 C 
ATOM      8  C   UNL     1       1.866  10.816   0.047  0.00  0.00    +0.033 C 
BRANCH   6   9
ATOM      9  C   UNL     1       4.609  12.831   1.464  0.00  0.00    +0.099 A 
ATOM     10  C   UNL     1       5.474  12.859   2.556  0.00  0.00    +0.042 A 
ATOM     11  C   UNL     1       6.336  13.912   2.703  0.00  0.00    +0.018 A 
ATOM     12  C   UNL     1       6.316  14.933   1.740  0.00  0.00    +0.053 A 
ATOM     13  C   UNL     1       5.423  14.840   0.672  0.00  0.00    +0.097 A 
ATOM     14  N   UNL     1       4.564  13.803   0.504  0.00  0.00    -0.349 N 
ATOM     15  H   UNL     1       3.922  13.751  -0.295  0.00  0.00    +0.167 HD
BRANCH  12  16
ATOM     16  C   UNL     1       7.226  16.088   1.856  0.00  0.00    +0.243 C 
ATOM     17  O   UNL     1       8.001  16.161   2.791  0.00  0.00    -0.270 OA
ATOM     18  N   UNL     1       7.199  17.064   0.926  0.00  0.00    -0.325 N 
ATOM     19  H   UNL     1       6.581  17.006   0.181  0.00  0.00    +0.145 HD
ATOM     20  H   UNL     1       7.798  17.823   1.002  0.00  0.00    +0.145 HD
ENDBRANCH  12  16
ENDBRANCH   6   9
ENDBRANCH   1   3
BRANCH   1  21
ATOM     21  O   UNL     1       1.935   7.071   0.022  0.00  0.00    -0.456 OA
BRANCH  21  22
ATOM     22  C   UNL     1       0.890   6.063   0.026  0.00  0.00    +0.311 C 
BRANCH  22  23
ATOM     23  C   UNL     1       1.514   4.692   0.013  0.00  0.00    +0.202 C 
ATOM     24  O   UNL     1       2.722   4.576   0.002  0.00  0.00    -0.288 OA
BRANCH  23  28
ATOM     25  N   UNL     1      -0.017   1.397   0.010  0.00  0.00    -0.317 N 
ATOM     26  C   UNL     1      -1.150   2.163   0.019  0.00  0.00    +0.022 A 
ATOM     27  C   UNL     1      -0.805   3.461   0.028  0.00  0.00    +0.034 A 
ATOM     28  C   UNL     1       0.664   3.500   0.015  0.00  0.00    +0.042 A 
ATOM     29  C   UNL     1       1.079   2.181   0.004  0.00  0.00    +0.032 A 
ATOM     30  C   UNL     1       2.508   1.704  -0.012  0.00  0.00    +0.064 C 
ATOM     31  C   UNL     1      -2.561   1.634   0.021  0.00  0.00    +0.064 C 
BRANCH  25  36
ATOM     32  C   UNL     1       0.059  -4.277  -0.021  0.00  0.00    +0.044 C 
ATOM     33  C   UNL     1       0.039  -2.771  -0.013  0.00  0.00    -0.047 A 
ATOM     34  C   UNL     1       0.547  -2.079   1.072  0.00  0.00    +0.005 A 
ATOM     35  C   UNL     1       0.530  -0.699   1.083  0.00  0.00    +0.026 A 
ATOM     36  C   UNL     1       0.002  -0.004   0.002  0.00  0.00    +0.047 A 
ATOM     37  C   UNL     1      -0.512  -0.701  -1.083  0.00  0.00    +0.029 A 
ATOM     38  C   UNL     1      -0.487  -2.082  -1.090  0.00  0.00    -0.046 A 
ATOM     39  C   UNL     1      -1.039  -2.839  -2.271  0.00  0.00    +0.044 C 
ENDBRANCH  25  36
ENDBRANCH  23  28
ENDBRANCH  22  23
ENDBRANCH  21  22
ENDBRANCH   1  21
TORSDOF 8
