REMARK  Name = ZINC39638525
REMARK  7 active torsions:
REMARK  status: ('A' for Active; 'I' for Inactive)
REMARK    1  A    between atoms: C_1  and  C_2
REMARK    2  A    between atoms: C_2  and  O_3
REMARK    3  A    between atoms: O_3  and  C_4
REMARK    4  A    between atoms: C_9  and  C_10
REMARK    5  A    between atoms: C_10  and  N_11
REMARK    6  A    between atoms: C_12  and  C_14
REMARK    7  A    between atoms: C_25  and  C_27
REMARK                            x       y       z     vdW  Elec       q    Type
REMARK                         _______ _______ _______ _____ _____    ______ ____
ROOT
ATOM      1  C   UNL     1       5.323   0.471  -3.318  0.00  0.00    +0.100 C 
ATOM      2  C   UNL     1       5.135   1.412  -2.107  0.00  0.00    +0.121 C 
ATOM      3  N   UNL     1       6.148   2.476  -2.298  0.00  0.00    -0.296 N 
ATOM      4  C   UNL     1       6.135   2.740  -3.757  0.00  0.00    +0.115 C 
ATOM      5  C   UNL     1       5.979   1.347  -4.400  0.00  0.00    -0.004 C 
ATOM      6  C   UNL     1       5.079   1.432  -5.629  0.00  0.00    -0.010 C 
ATOM      7  C   UNL     1       5.778   2.259  -6.712  0.00  0.00    -0.082 C 
ATOM      8  N   UNL     1       7.058   1.630  -7.060  0.00  0.00    +0.379 N 
ATOM      9  C   UNL     1       7.952   1.637  -5.896  0.00  0.00    -0.082 C 
ATOM     10  C   UNL     1       7.345   0.784  -4.779  0.00  0.00    -0.010 C 
ATOM     11  C   UNL     1       6.910   3.070  -1.358  0.00  0.00    +0.248 C 
ATOM     12  O   UNL     1       6.876   2.675  -0.209  0.00  0.00    -0.270 OA
ATOM     13  H   UNL     1       6.895   0.678  -7.352  0.00  0.00    -0.086 HD
ATOM     14  H   UNL     1       7.488   2.142  -7.816  0.00  0.00    -0.086 HD
ENDROOT
BRANCH  11  15
ATOM     15  C   UNL     1       7.786   4.202  -1.724  0.00  0.00    +0.055 A 
ATOM     16  C   UNL     1       7.379   5.117  -2.697  0.00  0.00    +0.016 A 
ATOM     17  C   UNL     1       8.200   6.171  -3.034  0.00  0.00    +0.021 A 
ATOM     18  C   UNL     1       9.429   6.324  -2.411  0.00  0.00    +0.042 A 
ATOM     19  C   UNL     1       9.839   5.421  -1.446  0.00  0.00    +0.040 A 
ATOM     20  C   UNL     1       9.022   4.364  -1.094  0.00  0.00    +0.054 A 
ATOM     21 CL   UNL     1       9.534   3.236   0.122  0.00  0.00    -0.083 Cl
ATOM     22 CL   UNL     1      10.457   7.654  -2.842  0.00  0.00    -0.083 Cl
ENDBRANCH  11  15
BRANCH   1  24
ATOM     23  N   UNL     1       3.926  -1.163  -4.541  0.00  0.00    -0.311 N 
ATOM     24  C   UNL     1       3.989  -0.041  -3.797  0.00  0.00    +0.218 C 
ATOM     25  O   UNL     1       2.973   0.555  -3.511  0.00  0.00    -0.275 OA
ATOM     26  H   UNL     1       4.739  -1.640  -4.769  0.00  0.00    +0.149 HD
BRANCH  23  27
ATOM     27  C   UNL     1       2.630  -1.662  -5.006  0.00  0.00    +0.143 C 
BRANCH  27  33
ATOM     28  C   UNL     1       3.030  -4.132  -5.167  0.00  0.00    +0.125 A 
ATOM     29  C   UNL     1       3.213  -5.288  -5.912  0.00  0.00    +0.046 A 
ATOM     30  C   UNL     1       3.204  -5.229  -7.292  0.00  0.00    +0.004 A 
ATOM     31  C   UNL     1       3.014  -4.018  -7.931  0.00  0.00    +0.001 A 
ATOM     32  C   UNL     1       2.832  -2.864  -7.192  0.00  0.00    +0.009 A 
ATOM     33  C   UNL     1       2.834  -2.919  -5.811  0.00  0.00    +0.011 A 
BRANCH  28  34
ATOM     34  O   UNL     1       3.038  -4.188  -3.809  0.00  0.00    -0.492 OA
BRANCH  34  36
ATOM     35  C   UNL     1       3.222  -5.335  -1.690  0.00  0.00    +0.048 C 
ATOM     36  C   UNL     1       3.245  -5.470  -3.214  0.00  0.00    +0.225 C 
ENDBRANCH  34  36
ENDBRANCH  28  34
ENDBRANCH  27  33
ENDBRANCH  23  27
ENDBRANCH   1  24
TORSDOF 6
