REMARK  Name = ZINC12622583
REMARK  11 active torsions:
REMARK  status: ('A' for Active; 'I' for Inactive)
REMARK    1  A    between atoms: C_1  and  C_2
REMARK    2  A    between atoms: C_2  and  O_3
REMARK    3  A    between atoms: O_3  and  C_4
REMARK    4  A    between atoms: C_7  and  N_10
REMARK    5  A    between atoms: C_11  and  C_13
REMARK    6  A    between atoms: C_16  and  N_19
REMARK    7  A    between atoms: C_20  and  C_22
REMARK    8  A    between atoms: C_22  and  N_23
REMARK    9  A    between atoms: C_26  and  C_30
REMARK   10  A    between atoms: C_26  and  C_31
REMARK   11  A    between atoms: C_34  and  C_37
REMARK                            x       y       z     vdW  Elec       q    Type
REMARK                         _______ _______ _______ _____ _____    ______ ____
ROOT
ATOM      1  N   UNL     1       2.525  -3.385  -1.740  0.00  0.00    -0.284 N 
ATOM      2  C   UNL     1       2.094  -2.137  -1.468  0.00  0.00    +0.235 C 
ATOM      3  O   UNL     1       1.823  -1.378  -2.374  0.00  0.00    -0.274 OA
ATOM      4  H   UNL     1       2.812  -3.967  -1.018  0.00  0.00    +0.155 HD
ENDROOT
BRANCH   1   8
ATOM      5  C   UNL     1       2.622  -4.744  -5.676  0.00  0.00    +0.037 A 
ATOM      6  C   UNL     1       3.584  -5.180  -4.761  0.00  0.00    +0.015 A 
ATOM      7  C   UNL     1       3.549  -4.729  -3.461  0.00  0.00    +0.024 A 
ATOM      8  C   UNL     1       2.557  -3.840  -3.057  0.00  0.00    +0.033 A 
ATOM      9  C   UNL     1       1.595  -3.408  -3.965  0.00  0.00    +0.024 A 
ATOM     10  C   UNL     1       1.627  -3.851  -5.268  0.00  0.00    +0.015 A 
BRANCH   5  12
ATOM     11  N   UNL     1       1.727  -4.805  -7.952  0.00  0.00    -0.281 N 
ATOM     12  C   UNL     1       2.656  -5.226  -7.070  0.00  0.00    +0.248 C 
ATOM     13  O   UNL     1       3.521  -6.003  -7.424  0.00  0.00    -0.270 OA
ATOM     14  H   UNL     1       1.082  -4.128  -7.691  0.00  0.00    +0.155 HD
BRANCH  11  18
ATOM     15  C   UNL     1       1.626  -6.407 -11.799  0.00  0.00    +0.121 A 
ATOM     16  C   UNL     1       2.021  -7.197 -10.729  0.00  0.00    +0.047 A 
ATOM     17  C   UNL     1       2.054  -6.667  -9.455  0.00  0.00    +0.027 A 
ATOM     18  C   UNL     1       1.693  -5.343  -9.244  0.00  0.00    +0.034 A 
ATOM     19  C   UNL     1       1.293  -4.554 -10.315  0.00  0.00    +0.027 A 
ATOM     20  C   UNL     1       1.266  -5.084 -11.590  0.00  0.00    +0.047 A 
BRANCH  15  21
ATOM     21  O   UNL     1       1.594  -6.930 -13.054  0.00  0.00    -0.492 OA
BRANCH  21  23
ATOM     22  C   UNL     1       1.205  -6.819 -15.437  0.00  0.00    +0.048 C 
ATOM     23  C   UNL     1       1.179  -6.060 -14.109  0.00  0.00    +0.225 C 
ENDBRANCH  21  23
ENDBRANCH  15  21
ENDBRANCH  11  18
ENDBRANCH   5  12
ENDBRANCH   1   8
BRANCH   2  24
ATOM     24  C   UNL     1       1.950  -1.685  -0.038  0.00  0.00    +0.214 C 
BRANCH  24  25
ATOM     25  N   UNL     1       1.470  -0.301  -0.009  0.00  0.00    -0.215 N 
ATOM     26  C   UNL     1       0.168   0.049   0.014  0.00  0.00    +0.251 C 
ATOM     27  O   UNL     1      -0.790  -0.694   0.017  0.00  0.00    -0.272 OA
ATOM     28  C   UNL     1       0.152   1.565   0.037  0.00  0.00    +0.135 C 
ATOM     29  N   UNL     1       1.580   1.927   0.022  0.00  0.00    -0.281 N 
ATOM     30  C   UNL     1       2.269   0.772  -0.004  0.00  0.00    +0.310 C 
ATOM     31  O   UNL     1       3.483   0.710  -0.023  0.00  0.00    -0.252 OA
ATOM     32  C   UNL     1      -0.520   2.076   1.313  0.00  0.00    +0.047 C 
ATOM     33  H   UNL     1       1.950   2.823   0.030  0.00  0.00    +0.152 HD
BRANCH  28  34
ATOM     34  C   UNL     1      -0.545   2.106  -1.185  0.00  0.00    -0.015 A 
ATOM     35  C   UNL     1      -1.551   1.374  -1.788  0.00  0.00    +0.006 A 
ATOM     36  C   UNL     1      -2.193   1.873  -2.905  0.00  0.00    +0.004 A 
ATOM     37  C   UNL     1      -1.823   3.099  -3.426  0.00  0.00    -0.050 A 
ATOM     38  C   UNL     1      -0.814   3.828  -2.826  0.00  0.00    +0.004 A 
ATOM     39  C   UNL     1      -0.175   3.332  -1.705  0.00  0.00    +0.006 A 
ATOM     40  C   UNL     1      -2.520   3.640  -4.648  0.00  0.00    +0.044 C 
ENDBRANCH  28  34
ENDBRANCH  24  25
ENDBRANCH   2  24
TORSDOF 8
