REMARK  Name = ZINC36161466
REMARK  13 active torsions:
REMARK  status: ('A' for Active; 'I' for Inactive)
REMARK    1  A    between atoms: C_1  and  C_2
REMARK    2  A    between atoms: C_15  and  C_17
REMARK    3  A    between atoms: C_17  and  N_18
REMARK    4  A    between atoms: N_18  and  C_19
REMARK    5  A    between atoms: N_18  and  C_24
REMARK    6  A    between atoms: C_19  and  C_20
REMARK    7  A    between atoms: C_20  and  C_21
REMARK    8  A    between atoms: C_21  and  C_22
REMARK    9  A    between atoms: C_21  and  C_23
REMARK   10  A    between atoms: C_24  and  C_25
REMARK   11  A    between atoms: C_25  and  C_27
REMARK   12  A    between atoms: C_25  and  O_34
REMARK   13  A    between atoms: C_27  and  C_28
REMARK                            x       y       z     vdW  Elec       q    Type
REMARK                         _______ _______ _______ _____ _____    ______ ____
ROOT
ATOM      1  N   UNL     1       2.435  -8.412   2.259  0.00  0.00    +0.386 N 
ATOM      2  H   UNL     1       1.814  -8.419   3.054  0.00  0.00    -0.081 HD
ENDROOT
BRANCH   1   3
ATOM      3  C   UNL     1       1.654  -8.227   1.029  0.00  0.00    -0.003 C 
BRANCH   3  17
ATOM      4  C   UNL     1      -3.895  -0.168   2.868  0.00  0.00    +0.008 C 
ATOM      5  C   UNL     1      -3.361  -1.554   2.503  0.00  0.00    -0.009 C 
ATOM      6  C   UNL     1      -2.806  -1.532   1.076  0.00  0.00    +0.008 C 
ATOM      7  C   UNL     1      -2.502  -2.957   0.616  0.00  0.00    +0.037 C 
ATOM      8  C   UNL     1      -1.609  -3.632   1.654  0.00  0.00    -0.023 A 
ATOM      9  C   UNL     1      -1.523  -3.139   2.911  0.00  0.00    -0.004 A 
ATOM     10  S   UNL     1      -0.394  -4.217   3.757  0.00  0.00    -0.073 S 
ATOM     11  C   UNL     1      -0.042  -5.322   2.428  0.00  0.00    +0.116 A 
ATOM     12  C   UNL     1      -0.818  -4.814   1.363  0.00  0.00    +0.075 A 
ATOM     13  C   UNL     1      -0.745  -5.514   0.112  0.00  0.00    +0.260 A 
ATOM     14  O   UNL     1      -1.376  -5.157  -0.869  0.00  0.00    -0.267 OA
ATOM     15  N   UNL     1       0.070  -6.596   0.090  0.00  0.00    -0.312 N 
ATOM     16  H   UNL     1       0.149  -7.098  -0.736  0.00  0.00    +0.170 HD
ATOM     17  C   UNL     1       0.779  -7.009   1.168  0.00  0.00    +0.094 A 
ATOM     18  N   UNL     1       0.738  -6.395   2.330  0.00  0.00    -0.229 NA
ATOM     19  C   UNL     1      -2.232  -1.942   3.468  0.00  0.00    +0.046 C 
ENDBRANCH   3  17
ENDBRANCH   1   3
BRANCH   1  20
ATOM     20  C   UNL     1       3.397  -7.311   2.399  0.00  0.00    -0.078 C 
BRANCH  20  21
ATOM     21  C   UNL     1       4.394  -7.354   1.239  0.00  0.00    -0.016 C 
BRANCH  21  22
ATOM     22  C   UNL     1       5.456  -6.271   1.439  0.00  0.00    -0.019 C 
ATOM     23  C   UNL     1       6.522  -6.395   0.348  0.00  0.00    +0.007 C 
ATOM     24  C   UNL     1       4.800  -4.892   1.357  0.00  0.00    +0.007 C 
ENDBRANCH  21  22
ENDBRANCH  20  21
ENDBRANCH   1  20
BRANCH   1  25
ATOM     25  C   UNL     1       3.159  -9.689   2.193  0.00  0.00    -0.046 C 
BRANCH  25  26
ATOM     26  C   UNL     1       3.839  -9.961   3.536  0.00  0.00    +0.102 C 
BRANCH  26  27
ATOM     27  O   UNL     1       4.882  -9.007   3.744  0.00  0.00    -0.393 OA
ATOM     28  H   UNL     1       5.572  -9.025   3.066  0.00  0.00    +0.210 HD
ENDBRANCH  26  27
BRANCH  26  29
ATOM     29  C   UNL     1       4.431 -11.371   3.532  0.00  0.00    +0.064 C 
BRANCH  29  30
ATOM     30  C   UNL     1       4.992 -11.685   4.895  0.00  0.00    -0.045 A 
ATOM     31  C   UNL     1       6.308 -11.377   5.188  0.00  0.00    +0.004 A 
ATOM     32  C   UNL     1       6.822 -11.665   6.439  0.00  0.00    +0.000 A 
ATOM     33  C   UNL     1       6.021 -12.259   7.396  0.00  0.00    +0.000 A 
ATOM     34  C   UNL     1       4.706 -12.565   7.103  0.00  0.00    +0.000 A 
ATOM     35  C   UNL     1       4.190 -12.274   5.854  0.00  0.00    +0.004 A 
ENDBRANCH  29  30
ENDBRANCH  26  29
ENDBRANCH  25  26
ENDBRANCH   1  25
TORSDOF 10
