REMARK  Name = ZINC23642155
REMARK  8 active torsions:
REMARK  status: ('A' for Active; 'I' for Inactive)
REMARK    1  A    between atoms: C_4  and  C_7
REMARK    2  A    between atoms: C_15  and  C_18
REMARK    3  A    between atoms: C_18  and  O_19
REMARK    4  A    between atoms: O_19  and  C_20
REMARK    5  A    between atoms: C_20  and  C_22
REMARK    6  A    between atoms: C_22  and  C_23
REMARK    7  A    between atoms: C_23  and  C_25
REMARK    8  A    between atoms: C_23  and  N_32
REMARK                            x       y       z     vdW  Elec       q    Type
REMARK                         _______ _______ _______ _____ _____    ______ ____
ROOT
ATOM      1  O   UNL     1       0.258   4.358  -0.390  0.00  0.00    -0.460 OA
ENDROOT
BRANCH   1   2
ATOM      2  C   UNL     1      -0.131   5.631  -0.213  0.00  0.00    +0.310 C 
ATOM      3  O   UNL     1       0.696   6.506  -0.109  0.00  0.00    -0.251 OA
BRANCH   2   4
ATOM      4  C   UNL     1      -1.598   5.968  -0.144  0.00  0.00    +0.147 C 
BRANCH   4   5
ATOM      5  C   UNL     1      -1.765   7.475   0.061  0.00  0.00    +0.115 C 
BRANCH   5   6
ATOM      6  C   UNL     1      -3.229   7.830   0.007  0.00  0.00    -0.027 A 
ATOM      7  C   UNL     1      -4.109   7.028  -0.696  0.00  0.00    +0.007 A 
ATOM      8  C   UNL     1      -5.452   7.349  -0.740  0.00  0.00    +0.020 A 
ATOM      9  C   UNL     1      -5.915   8.480  -0.091  0.00  0.00    +0.041 A 
ATOM     10  C   UNL     1      -5.033   9.286   0.607  0.00  0.00    +0.020 A 
ATOM     11  C   UNL     1      -3.690   8.960   0.655  0.00  0.00    +0.007 A 
ATOM     12 CL   UNL     1      -7.601   8.889  -0.153  0.00  0.00    -0.084 Cl
ENDBRANCH   5   6
BRANCH   5  13
ATOM     13  N   UNL     1      -1.218   7.855   1.366  0.00  0.00    -0.292 N 
ATOM     14  C   UNL     1      -1.775   7.374   2.495  0.00  0.00    +0.298 C 
ATOM     15  O   UNL     1      -2.669   6.552   2.430  0.00  0.00    -0.253 OA
ATOM     16  N   UNL     1      -1.340   7.803   3.696  0.00  0.00    -0.313 N 
ATOM     17  H   UNL     1      -0.354   8.532   1.424  0.00  0.00    +0.151 HD
ATOM     18  H   UNL     1      -1.794   7.410   4.618  0.00  0.00    +0.146 HD
ATOM     19  H   UNL     1      -0.531   8.546   3.755  0.00  0.00    +0.146 HD
ENDBRANCH   5  13
ENDBRANCH   4   5
ENDBRANCH   2   4
ENDBRANCH   1   2
BRANCH   1  20
ATOM     20  C   UNL     1       1.687   4.107  -0.447  0.00  0.00    +0.271 C 
BRANCH  20  28
ATOM     21  C   UNL     1       5.547   2.543  -1.081  0.00  0.00    +0.340 C 
ATOM     22  O   UNL     1       5.774   1.238  -0.535  0.00  0.00    -0.333 OA
ATOM     23  C   UNL     1       4.855   0.258  -1.027  0.00  0.00    +0.203 C 
ATOM     24  C   UNL     1       3.450   0.795  -0.922  0.00  0.00    +0.023 A 
ATOM     25  C   UNL     1       2.378  -0.073  -1.020  0.00  0.00    +0.047 A 
ATOM     26  C   UNL     1       1.084   0.410  -0.932  0.00  0.00    +0.124 A 
ATOM     27  C   UNL     1       0.861   1.764  -0.747  0.00  0.00    +0.049 A 
ATOM     28  C   UNL     1       1.930   2.633  -0.648  0.00  0.00    +0.035 A 
ATOM     29  C   UNL     1       3.228   2.149  -0.734  0.00  0.00    +0.136 A 
ATOM     30  O   UNL     1       4.274   3.013  -0.628  0.00  0.00    -0.459 OA
ATOM     31  F   UNL     1       0.038  -0.440  -1.027  0.00  0.00    -0.205 F 
BRANCH  21  35
ATOM     32  C   UNL     1       8.612   5.206   0.247  0.00  0.00    +0.000 A 
ATOM     33  C   UNL     1       8.941   4.092  -0.503  0.00  0.00    +0.000 A 
ATOM     34  C   UNL     1       7.949   3.231  -0.932  0.00  0.00    +0.010 A 
ATOM     35  C   UNL     1       6.629   3.483  -0.613  0.00  0.00    +0.020 A 
ATOM     36  C   UNL     1       6.299   4.599   0.133  0.00  0.00    +0.010 A 
ATOM     37  C   UNL     1       7.291   5.458   0.566  0.00  0.00    +0.000 A 
ENDBRANCH  21  35
ENDBRANCH  20  28
ENDBRANCH   1  20
TORSDOF 8
