REMARK  Name = ZINC12497781
REMARK  9 active torsions:
REMARK  status: ('A' for Active; 'I' for Inactive)
REMARK    1  A    between atoms: C_1  and  C_2
REMARK    2  A    between atoms: C_2  and  O_3
REMARK    3  A    between atoms: O_3  and  C_4
REMARK    4  A    between atoms: C_7  and  N_10
REMARK    5  A    between atoms: C_15  and  C_32
REMARK    6  A    between atoms: C_17  and  C_22
REMARK    7  A    between atoms: C_17  and  C_28
REMARK    8  A    between atoms: C_28  and  O_30
REMARK    9  A    between atoms: O_30  and  C_31
REMARK                            x       y       z     vdW  Elec       q    Type
REMARK                         _______ _______ _______ _____ _____    ______ ____
ROOT
ATOM      1  N   UNL     1       1.085  -0.332  -0.776  0.00  0.00    -0.210 N 
ATOM      2  C   UNL     1       1.904   0.735  -1.018  0.00  0.00    +0.229 C 
ATOM      3  O   UNL     1       2.758   0.821  -1.874  0.00  0.00    -0.275 OA
ATOM      4  C   UNL     1       1.526   1.780  -0.003  0.00  0.00    +0.078 C 
ATOM      5  C   UNL     1       1.369   3.236  -0.461  0.00  0.00    -0.023 C 
ATOM      6  C   UNL     1      -0.599   2.556   0.770  0.00  0.00    +0.070 C 
ATOM      7  C   UNL     1      -0.018   1.440   0.010  0.00  0.00    +0.090 C 
ATOM      8  C   UNL     1       0.002  -0.004   0.002  0.00  0.00    +0.229 C 
ATOM      9  O   UNL     1      -0.766  -0.759   0.558  0.00  0.00    -0.275 OA
ATOM     10  N   UNL     1       0.253   3.724   0.398  0.00  0.00    +0.398 N 
ATOM     11  H   UNL     1      -0.308   4.412  -0.118  0.00  0.00    -0.083 HD
ATOM     12  H   UNL     1       0.633   4.160   1.247  0.00  0.00    -0.083 HD
ENDROOT
BRANCH   5  13
ATOM     13  C   UNL     1       0.989   3.300  -1.918  0.00  0.00    -0.025 A 
ATOM     14  C   UNL     1      -0.329   3.507  -2.280  0.00  0.00    +0.005 A 
ATOM     15  C   UNL     1      -0.678   3.565  -3.616  0.00  0.00    +0.000 A 
ATOM     16  C   UNL     1       0.290   3.417  -4.592  0.00  0.00    +0.003 A 
ATOM     17  C   UNL     1       1.608   3.209  -4.233  0.00  0.00    +0.038 A 
ATOM     18  C   UNL     1       1.960   3.156  -2.894  0.00  0.00    +0.125 A 
ATOM     19  F   UNL     1       3.249   2.959  -2.542  0.00  0.00    -0.205 F 
ENDBRANCH   5  13
BRANCH   1  23
ATOM     20  C   UNL     1       1.797  -4.171  -2.244  0.00  0.00    +0.121 A 
ATOM     21  C   UNL     1       2.680  -3.142  -2.537  0.00  0.00    +0.047 A 
ATOM     22  C   UNL     1       2.445  -1.871  -2.051  0.00  0.00    +0.027 A 
ATOM     23  C   UNL     1       1.324  -1.623  -1.270  0.00  0.00    +0.044 A 
ATOM     24  C   UNL     1       0.444  -2.654  -0.973  0.00  0.00    +0.027 A 
ATOM     25  C   UNL     1       0.677  -3.924  -1.463  0.00  0.00    +0.047 A 
BRANCH  20  26
ATOM     26  O   UNL     1       2.030  -5.423  -2.721  0.00  0.00    -0.492 OA
BRANCH  26  28
ATOM     27  C   UNL     1       1.506  -7.765  -3.003  0.00  0.00    +0.048 C 
ATOM     28  C   UNL     1       1.079  -6.434  -2.381  0.00  0.00    +0.225 C 
ENDBRANCH  26  28
ENDBRANCH  20  26
ENDBRANCH   1  23
BRANCH   6  29
ATOM     29  C   UNL     1      -2.029   2.787   0.356  0.00  0.00    -0.047 A 
ATOM     30  C   UNL     1      -2.797   1.730  -0.095  0.00  0.00    +0.003 A 
ATOM     31  C   UNL     1      -4.111   1.941  -0.470  0.00  0.00    +0.000 A 
ATOM     32  C   UNL     1      -4.654   3.210  -0.403  0.00  0.00    +0.000 A 
ATOM     33  C   UNL     1      -3.884   4.268   0.043  0.00  0.00    +0.000 A 
ATOM     34  C   UNL     1      -2.572   4.056   0.423  0.00  0.00    +0.003 A 
ENDBRANCH   6  29
BRANCH   6  35
ATOM     35  C   UNL     1      -0.514   2.286   2.250  0.00  0.00    +0.301 C 
ATOM     36  O   UNL     1      -0.455   1.149   2.655  0.00  0.00    -0.252 OA
BRANCH  35  37
ATOM     37  O   UNL     1      -0.503   3.309   3.119  0.00  0.00    -0.469 OA
ATOM     38  C   UNL     1      -0.419   2.975   4.530  0.00  0.00    +0.280 C 
ENDBRANCH  35  37
ENDBRANCH   6  35
TORSDOF 7
