REMARK  Name = ZINC01818258
REMARK  10 active torsions:
REMARK  status: ('A' for Active; 'I' for Inactive)
REMARK    1  A    between atoms: C_1  and  C_2
REMARK    2  A    between atoms: C_5  and  N_8
REMARK    3  A    between atoms: C_9  and  C_31
REMARK    4  A    between atoms: C_12  and  S_13
REMARK    5  A    between atoms: S_13  and  C_14
REMARK    6  A    between atoms: C_14  and  C_15
REMARK    7  A    between atoms: N_17  and  N_18
REMARK    8  A    between atoms: C_19  and  C_20
REMARK    9  A    between atoms: C_21  and  C_22
REMARK   10  A    between atoms: C_27  and  N_28
REMARK                            x       y       z     vdW  Elec       q    Type
REMARK                         _______ _______ _______ _____ _____    ______ ____
ROOT
ATOM      1  N   UNL     1       0.277  -2.806  -0.829  0.00  0.00    -0.270 N 
ATOM      2  C   UNL     1      -0.738  -3.530  -0.242  0.00  0.00    +0.169 A 
ATOM      3  N   UNL     1      -0.418  -4.799  -0.352  0.00  0.00    -0.128 NA
ATOM      4  N   UNL     1       0.709  -4.918  -0.958  0.00  0.00    -0.122 NA
ATOM      5  C   UNL     1       1.177  -3.732  -1.279  0.00  0.00    +0.197 A 
ENDROOT
BRANCH   1  10
ATOM      6  C   UNL     1       0.632   2.839  -1.304  0.00  0.00    +0.044 C 
ATOM      7  C   UNL     1       0.537   1.340  -1.178  0.00  0.00    -0.050 A 
ATOM      8  C   UNL     1       0.356   0.563  -2.307  0.00  0.00    +0.005 A 
ATOM      9  C   UNL     1       0.269  -0.811  -2.195  0.00  0.00    +0.026 A 
ATOM     10  C   UNL     1       0.365  -1.412  -0.947  0.00  0.00    +0.051 A 
ATOM     11  C   UNL     1       0.547  -0.629   0.185  0.00  0.00    +0.026 A 
ATOM     12  C   UNL     1       0.638   0.745   0.066  0.00  0.00    +0.005 A 
ENDBRANCH   1  10
BRANCH   2  13
ATOM     13  C   UNL     1      -1.956  -2.982   0.392  0.00  0.00    +0.020 A 
ATOM     14  C   UNL     1      -2.358  -1.673   0.121  0.00  0.00    +0.013 A 
ATOM     15  C   UNL     1      -3.495  -1.168   0.716  0.00  0.00    +0.021 A 
ATOM     16  C   UNL     1      -4.237  -1.956   1.580  0.00  0.00    +0.041 A 
ATOM     17  C   UNL     1      -3.843  -3.255   1.852  0.00  0.00    +0.021 A 
ATOM     18  C   UNL     1      -2.711  -3.774   1.259  0.00  0.00    +0.013 A 
ATOM     19 CL   UNL     1      -5.667  -1.312   2.325  0.00  0.00    -0.084 Cl
ENDBRANCH   2  13
BRANCH   5  20
ATOM     20  S   UNL     1       2.686  -3.399  -2.125  0.00  0.00    -0.076 S 
BRANCH  20  21
ATOM     21  C   UNL     1       3.391  -5.042  -2.431  0.00  0.00    +0.174 C 
BRANCH  21  22
ATOM     22  C   UNL     1       4.702  -4.899  -3.160  0.00  0.00    +0.242 C 
ATOM     23  O   UNL     1       5.120  -3.797  -3.445  0.00  0.00    -0.273 OA
ATOM     24  N   UNL     1       5.410  -5.996  -3.494  0.00  0.00    -0.206 N 
ATOM     25  H   UNL     1       5.076  -6.877  -3.267  0.00  0.00    +0.177 HD
BRANCH  24  26
ATOM     26  N   UNL     1       6.629  -5.863  -4.172  0.00  0.00    -0.188 NA
ATOM     27  C   UNL     1       7.313  -6.923  -4.495  0.00  0.00    +0.130 C 
BRANCH  27  28
ATOM     28  C   UNL     1       8.547  -6.788  -5.181  0.00  0.00    +0.022 C 
ATOM     29  C   UNL     1       9.256  -7.886  -5.516  0.00  0.00    +0.012 C 
BRANCH  29  30
ATOM     30  C   UNL     1      10.537  -7.746  -6.228  0.00  0.00    +0.005 A 
ATOM     31  C   UNL     1      11.073  -6.476  -6.467  0.00  0.00    +0.010 A 
ATOM     32  C   UNL     1      12.274  -6.354  -7.134  0.00  0.00    +0.001 A 
ATOM     33  C   UNL     1      12.947  -7.483  -7.567  0.00  0.00    +0.002 A 
ATOM     34  C   UNL     1      12.423  -8.742  -7.335  0.00  0.00    +0.033 A 
ATOM     35  C   UNL     1      11.226  -8.881  -6.663  0.00  0.00    +0.133 A 
BRANCH  35  36
ATOM     36  N   UNL     1      10.670 -10.230  -6.410  0.00  0.00    +0.057 N 
ATOM     37  O   UNL     1      10.114 -10.467  -5.363  0.00  0.00    -0.126 OA
ATOM     38  O   UNL     1      10.773 -11.094  -7.249  0.00  0.00    -0.126 OA
ENDBRANCH  35  36
ENDBRANCH  29  30
ENDBRANCH  27  28
ENDBRANCH  24  26
ENDBRANCH  21  22
ENDBRANCH  20  21
ENDBRANCH   5  20
TORSDOF 9
