REMARK  Name = ZINC59170381
REMARK  5 active torsions:
REMARK  status: ('A' for Active; 'I' for Inactive)
REMARK    1  A    between atoms: C_4  and  N_7
REMARK    2  A    between atoms: C_8  and  C_10
REMARK    3  A    between atoms: N_20  and  C_21
REMARK    4  A    between atoms: C_24  and  S_27
REMARK    5  A    between atoms: S_27  and  N_30
REMARK                            x       y       z     vdW  Elec       q    Type
REMARK                         _______ _______ _______ _____ _____    ______ ____
ROOT
ATOM      1  C   UNL     1       4.916  -2.683   0.200  0.00  0.00    +0.098 A 
ATOM      2  C   UNL     1       4.958  -4.071   0.181  0.00  0.00    +0.030 A 
ATOM      3  C   UNL     1       6.278  -4.704   0.222  0.00  0.00    +0.020 A 
ATOM      4  C   UNL     1       6.428  -6.067  -0.059  0.00  0.00    +0.031 A 
ATOM      5  C   UNL     1       7.681  -6.638  -0.017  0.00  0.00    +0.042 A 
ATOM      6  C   UNL     1       8.792  -5.869   0.303  0.00  0.00    +0.023 A 
ATOM      7  C   UNL     1       8.659  -4.524   0.584  0.00  0.00    +0.048 A 
ATOM      8  C   UNL     1       7.407  -3.929   0.549  0.00  0.00    +0.138 A 
ATOM      9  O   UNL     1       7.261  -2.611   0.830  0.00  0.00    -0.439 OA
ATOM     10  C   UNL     1       6.209  -1.971   0.254  0.00  0.00    +0.212 A 
ATOM     11  N   UNL     1       6.335  -0.757  -0.235  0.00  0.00    -0.325 N 
ATOM     12 CL   UNL     1       7.872  -8.328  -0.364  0.00  0.00    -0.084 Cl
ATOM     13  H   UNL     1       5.607  -0.357  -0.735  0.00  0.00    +0.169 HD
ENDROOT
BRANCH  11  14
ATOM     14  C   UNL     1       7.494  -0.058  -0.038  0.00  0.00    +0.042 A 
ATOM     15  C   UNL     1       8.097  -0.038   1.222  0.00  0.00    +0.027 A 
ATOM     16  C   UNL     1       9.266   0.669   1.413  0.00  0.00    +0.030 A 
ATOM     17  C   UNL     1       9.841   1.358   0.359  0.00  0.00    +0.105 A 
ATOM     18  C   UNL     1       9.250   1.343  -0.891  0.00  0.00    +0.030 A 
ATOM     19  C   UNL     1       8.084   0.635  -1.099  0.00  0.00    +0.027 A 
BRANCH  17  20
ATOM     20  S   UNL     1      11.334   2.259   0.613  0.00  0.00    +0.056 S 
ATOM     21  O   UNL     1      11.377   3.264  -0.392  0.00  0.00    -0.153 OA
ATOM     22  O   UNL     1      11.394   2.565   1.999  0.00  0.00    -0.153 OA
BRANCH  20  23
ATOM     23  N   UNL     1      12.589   1.225   0.301  0.00  0.00    -0.204 NA
ATOM     24  H   UNL     1      12.409   0.309   0.035  0.00  0.00    +0.144 HD
ATOM     25  H   UNL     1      13.505   1.534   0.385  0.00  0.00    +0.144 HD
ENDBRANCH  20  23
ENDBRANCH  17  20
ENDBRANCH  11  14
BRANCH   1  27
ATOM     26  N   UNL     1       3.622  -0.614   0.318  0.00  0.00    -0.281 N 
ATOM     27  C   UNL     1       3.638  -1.952   0.161  0.00  0.00    +0.253 C 
ATOM     28  O   UNL     1       2.597  -2.557  -0.013  0.00  0.00    -0.270 OA
ATOM     29  H   UNL     1       4.456  -0.125   0.404  0.00  0.00    +0.155 HD
BRANCH  26  33
ATOM     30  C   UNL     1      -0.008   1.427   0.435  0.00  0.00    +0.000 A 
ATOM     31  C   UNL     1       1.051   1.856   1.215  0.00  0.00    +0.002 A 
ATOM     32  C   UNL     1       2.255   1.182   1.178  0.00  0.00    +0.023 A 
ATOM     33  C   UNL     1       2.403   0.071   0.358  0.00  0.00    +0.034 A 
ATOM     34  C   UNL     1       1.338  -0.358  -0.424  0.00  0.00    +0.023 A 
ATOM     35  C   UNL     1       0.136   0.321  -0.383  0.00  0.00    +0.002 A 
ENDBRANCH  26  33
ENDBRANCH   1  27
TORSDOF 5
