REMARK  Name = ZINC59993634
REMARK  10 active torsions:
REMARK  status: ('A' for Active; 'I' for Inactive)
REMARK    1  A    between atoms: C_1  and  C_2
REMARK    2  A    between atoms: C_2  and  C_3
REMARK    3  A    between atoms: C_2  and  C_4
REMARK    4  A    between atoms: C_7  and  C_10
REMARK    5  A    between atoms: C_10  and  C_11
REMARK    6  A    between atoms: C_11  and  N_12
REMARK    7  A    between atoms: C_13  and  C_15
REMARK    8  A    between atoms: C_15  and  N_16
REMARK    9  A    between atoms: C_19  and  N_22
REMARK   10  A    between atoms: N_25  and  C_26
REMARK                            x       y       z     vdW  Elec       q    Type
REMARK                         _______ _______ _______ _____ _____    ______ ____
ROOT
ATOM      1  N   UNL     1     -10.993  -0.367  -1.904  0.00  0.00    +0.385 N 
ATOM      2  C   UNL     1     -10.613  -0.280  -3.320  0.00  0.00    -0.076 C 
ATOM      3  C   UNL     1     -11.474   0.774  -4.019  0.00  0.00    +0.004 C 
ATOM      4  C   UNL     1     -12.949   0.376  -3.907  0.00  0.00    +0.071 C 
ATOM      5  C   UNL     1     -13.314   0.216  -2.429  0.00  0.00    +0.004 C 
ATOM      6  C   UNL     1     -12.385  -0.818  -1.789  0.00  0.00    -0.076 C 
ATOM      7  H   UNL     1     -10.898   0.541  -1.476  0.00  0.00    -0.081 HD
ENDROOT
BRANCH   4   8
ATOM      8  N   UNL     1     -13.784   1.419  -4.508  0.00  0.00    -0.297 N 
ATOM      9  C   UNL     1     -15.007   1.112  -4.985  0.00  0.00    +0.300 C 
ATOM     10  O   UNL     1     -15.416  -0.031  -4.917  0.00  0.00    -0.253 OA
ATOM     11  N   UNL     1     -15.775   2.071  -5.538  0.00  0.00    -0.297 N 
ATOM     12  H   UNL     1     -13.458   2.331  -4.562  0.00  0.00    +0.151 HD
ATOM     13  H   UNL     1     -15.449   2.983  -5.592  0.00  0.00    +0.151 HD
BRANCH  11  14
ATOM     14  C   UNL     1     -17.104   1.737  -6.056  0.00  0.00    +0.074 C 
ATOM     15  C   UNL     1     -16.976   1.219  -7.490  0.00  0.00    +0.022 C 
ATOM     16  C   UNL     1     -18.364   0.870  -8.032  0.00  0.00    +0.002 C 
ATOM     17  C   UNL     1     -19.246   2.120  -8.018  0.00  0.00    +0.000 C 
ATOM     18  C   UNL     1     -19.374   2.639  -6.584  0.00  0.00    +0.002 C 
ATOM     19  C   UNL     1     -17.986   2.987  -6.042  0.00  0.00    +0.022 C 
ENDBRANCH  11  14
ENDBRANCH   4   8
BRANCH   1  20
ATOM     20  C   UNL     1     -10.112  -1.323  -1.221  0.00  0.00    +0.019 C 
BRANCH  20  22
ATOM     21  N   UNL     1      -7.711  -1.516  -0.658  0.00  0.00    -0.317 N 
ATOM     22  C   UNL     1      -8.698  -0.801  -1.232  0.00  0.00    +0.196 C 
ATOM     23  O   UNL     1      -8.449   0.263  -1.758  0.00  0.00    -0.278 OA
ATOM     24  H   UNL     1      -7.910  -2.368  -0.237  0.00  0.00    +0.149 HD
BRANCH  21  25
ATOM     25  C   UNL     1      -6.337  -1.009  -0.669  0.00  0.00    +0.109 C 
BRANCH  25  26
ATOM     26  C   UNL     1      -5.419  -2.005   0.043  0.00  0.00    +0.054 C 
BRANCH  26  30
ATOM     27  C   UNL     1      -1.412  -0.526   0.013  0.00  0.00    -0.045 A 
ATOM     28  C   UNL     1      -2.259  -0.204   1.056  0.00  0.00    +0.004 A 
ATOM     29  C   UNL     1      -3.556  -0.683   1.066  0.00  0.00    +0.004 A 
ATOM     30  C   UNL     1      -4.006  -1.482   0.032  0.00  0.00    -0.046 A 
ATOM     31  C   UNL     1      -3.159  -1.803  -1.012  0.00  0.00    +0.004 A 
ATOM     32  C   UNL     1      -1.863  -1.321  -1.024  0.00  0.00    +0.004 A 
BRANCH  27  34
ATOM     33  C   UNL     1      -0.019   1.526   0.010  0.00  0.00    +0.012 C 
ATOM     34  C   UNL     1       0.002  -0.004   0.002  0.00  0.00    +0.013 C 
ATOM     35  C   UNL     1       0.742  -0.511   1.242  0.00  0.00    +0.012 C 
ENDBRANCH  27  34
ENDBRANCH  26  30
ENDBRANCH  25  26
ENDBRANCH  21  25
ENDBRANCH  20  22
ENDBRANCH   1  20
TORSDOF 8
