REMARK  Name = ZINC35515224
REMARK  11 active torsions:
REMARK  status: ('A' for Active; 'I' for Inactive)
REMARK    1  A    between atoms: C_1  and  C_2
REMARK    2  A    between atoms: C_2  and  O_3
REMARK    3  A    between atoms: O_3  and  C_4
REMARK    4  A    between atoms: C_6  and  C_16
REMARK    5  A    between atoms: C_9  and  O_10
REMARK    6  A    between atoms: O_10  and  C_11
REMARK    7  A    between atoms: C_11  and  C_12
REMARK    8  A    between atoms: C_12  and  C_13
REMARK    9  A    between atoms: C_13  and  C_14
REMARK   10  A    between atoms: C_13  and  C_15
REMARK   11  A    between atoms: C_35  and  C_38
REMARK                            x       y       z     vdW  Elec       q    Type
REMARK                         _______ _______ _______ _____ _____    ______ ____
ROOT
ATOM      1  C   UNL     1      -0.217  -4.963  -0.535  0.00  0.00    +0.151 C 
ATOM      2  C   UNL     1      -1.521  -5.512  -0.056  0.00  0.00    +0.072 A 
ATOM      3  C   UNL     1      -2.771  -4.844   0.320  0.00  0.00    +0.199 A 
ATOM      4  O   UNL     1      -2.981  -3.660   0.121  0.00  0.00    -0.287 OA
ATOM      5  C   UNL     1      -3.756  -5.747   0.966  0.00  0.00    +0.067 A 
ATOM      6  C   UNL     1      -4.907  -5.227   1.558  0.00  0.00    +0.053 A 
ATOM      7  C   UNL     1      -5.809  -6.080   2.158  0.00  0.00    +0.124 A 
ATOM      8  C   UNL     1      -5.569  -7.449   2.171  0.00  0.00    +0.042 A 
ATOM      9  C   UNL     1      -4.438  -7.972   1.588  0.00  0.00    +0.050 A 
ATOM     10  C   UNL     1      -3.512  -7.130   0.972  0.00  0.00    +0.140 A 
ATOM     11  O   UNL     1      -2.413  -7.672   0.398  0.00  0.00    -0.450 OA
ATOM     12  C   UNL     1      -1.402  -6.872   0.006  0.00  0.00    +0.199 A 
ATOM     13  C   UNL     1      -0.040  -7.237  -0.418  0.00  0.00    +0.288 C 
ATOM     14  O   UNL     1       0.391  -8.371  -0.472  0.00  0.00    -0.266 OA
ATOM     15  N   UNL     1       0.660  -6.128  -0.738  0.00  0.00    -0.238 N 
ATOM     16  C   UNL     1       1.980  -6.091  -1.182  0.00  0.00    +0.129 A 
ATOM     17  C   UNL     1       2.610  -4.865  -1.369  0.00  0.00    +0.044 A 
ATOM     18  C   UNL     1       3.921  -4.843  -1.810  0.00  0.00    +0.008 A 
ATOM     19  C   UNL     1       4.560  -6.052  -2.049  0.00  0.00    -0.032 A 
ATOM     20  C   UNL     1       3.874  -7.232  -1.841  0.00  0.00    +0.116 A 
ATOM     21  N   UNL     1       2.625  -7.223  -1.415  0.00  0.00    -0.240 NA
ATOM     22  C   UNL     1       5.988  -6.076  -2.530  0.00  0.00    +0.045 C 
ATOM     23  F   UNL     1      -6.927  -5.585   2.734  0.00  0.00    -0.205 F 
ENDROOT
BRANCH   1  26
ATOM     24  C   UNL     1       0.802  -1.825   1.306  0.00  0.00    +0.162 A 
ATOM     25  C   UNL     1       0.261  -2.673   0.353  0.00  0.00    +0.055 A 
ATOM     26  C   UNL     1       0.372  -4.043   0.502  0.00  0.00    -0.018 A 
ATOM     27  C   UNL     1       1.024  -4.570   1.602  0.00  0.00    +0.009 A 
ATOM     28  C   UNL     1       1.566  -3.730   2.557  0.00  0.00    +0.050 A 
ATOM     29  C   UNL     1       1.462  -2.356   2.410  0.00  0.00    +0.162 A 
BRANCH  24  30
ATOM     30  O   UNL     1       0.693  -0.477   1.160  0.00  0.00    -0.489 OA
BRANCH  30  32
ATOM     31  C   UNL     1      -0.019   1.526   0.010  0.00  0.00    +0.048 C 
ATOM     32  C   UNL     1       0.002  -0.004   0.002  0.00  0.00    +0.226 C 
ENDBRANCH  30  32
ENDBRANCH  24  30
BRANCH  29  33
ATOM     33  O   UNL     1       2.000  -1.528   3.345  0.00  0.00    -0.488 OA
BRANCH  33  34
ATOM     34  C   UNL     1       2.664  -2.143   4.451  0.00  0.00    +0.229 C 
BRANCH  34  35
ATOM     35  C   UNL     1       3.200  -1.060   5.390  0.00  0.00    +0.044 C 
BRANCH  35  36
ATOM     36  C   UNL     1       3.910  -1.719   6.575  0.00  0.00    -0.014 C 
ATOM     37  C   UNL     1       5.146  -2.470   6.075  0.00  0.00    +0.007 C 
ATOM     38  C   UNL     1       4.336  -0.643   7.576  0.00  0.00    +0.007 C 
ENDBRANCH  35  36
ENDBRANCH  34  35
ENDBRANCH  33  34
ENDBRANCH  29  33
ENDBRANCH   1  26
TORSDOF 7
