REMARK  Name = ZINC09706273
REMARK  16 active torsions:
REMARK  status: ('A' for Active; 'I' for Inactive)
REMARK    1  A    between atoms: C_1  and  C_2
REMARK    2  A    between atoms: C_2  and  N_70
REMARK    3  A    between atoms: C_3  and  C_4
REMARK    4  A    between atoms: C_3  and  N_70
REMARK    5  A    between atoms: C_5  and  C_6
REMARK    6  A    between atoms: C_5  and  N_70
REMARK    7  A    between atoms: C_6  and  C_7
REMARK    8  A    between atoms: C_7  and  C_8
REMARK    9  A    between atoms: C_8  and  C_10
REMARK   10  A    between atoms: C_8  and  N_11
REMARK   11  A    between atoms: C_12  and  C_14
REMARK   12  A    between atoms: N_16  and  C_17
REMARK   13  A    between atoms: C_25  and  C_26
REMARK   14  A    between atoms: N_28  and  C_29
REMARK   15  A    between atoms: C_32  and  O_35
REMARK   16  A    between atoms: O_35  and  C_36
REMARK                            x       y       z     vdW  Elec       q    Type
REMARK                         _______ _______ _______ _____ _____    ______ ____
ROOT
ATOM      1  C   UNL     1      -1.641  -1.507  -0.024  0.00  0.00    +0.093 A 
ATOM      2  C   UNL     1      -1.875  -0.232   0.665  0.00  0.00    +0.042 A 
ATOM      3  C   UNL     1      -1.161   0.506   1.610  0.00  0.00    +0.013 A 
ATOM      4  C   UNL     1      -1.665   1.692   2.066  0.00  0.00    +0.001 A 
ATOM      5  C   UNL     1      -2.881   2.166   1.595  0.00  0.00    +0.004 A 
ATOM      6  C   UNL     1      -3.601   1.452   0.661  0.00  0.00    +0.047 A 
ATOM      7  C   UNL     1      -3.108   0.243   0.183  0.00  0.00    +0.138 A 
ATOM      8  O   UNL     1      -3.572  -0.651  -0.712  0.00  0.00    -0.448 OA
ATOM      9  C   UNL     1      -2.722  -1.693  -0.843  0.00  0.00    +0.212 A 
ENDROOT
BRANCH   1  12
ATOM     10  C   UNL     1       0.677  -1.833   0.339  0.00  0.00    +0.303 C 
ATOM     11  O   UNL     1       0.812  -0.638   0.502  0.00  0.00    -0.265 OA
ATOM     12  N   UNL     1      -0.549  -2.350   0.125  0.00  0.00    -0.274 N 
ATOM     13  H   UNL     1      -0.668  -3.312   0.074  0.00  0.00    +0.155 HD
BRANCH  10  15
ATOM     14  N   UNL     1       3.096  -2.214   0.590  0.00  0.00    -0.305 N 
ATOM     15  C   UNL     1       1.870  -2.731   0.375  0.00  0.00    +0.300 C 
ATOM     16  O   UNL     1       1.735  -3.926   0.212  0.00  0.00    -0.265 OA
ATOM     17  H   UNL     1       3.204  -1.259   0.720  0.00  0.00    +0.149 HD
BRANCH  14  18
ATOM     18  C   UNL     1       4.266  -3.095   0.625  0.00  0.00    +0.070 C 
ATOM     19  C   UNL     1       4.774  -3.327  -0.799  0.00  0.00    +0.028 C 
BRANCH  18  20
ATOM     20  C   UNL     1       5.370  -2.443   1.460  0.00  0.00    +0.020 C 
BRANCH  20  21
ATOM     21  C   UNL     1       4.908  -2.325   2.914  0.00  0.00    -0.017 C 
BRANCH  21  22
ATOM     22  C   UNL     1       6.012  -1.673   3.749  0.00  0.00    -0.079 C 
BRANCH  22  23
ATOM     23  N   UNL     1       5.543  -1.546   5.144  0.00  0.00    +0.379 N 
ATOM     24  H   UNL     1       4.626  -1.083   5.148  0.00  0.00    -0.082 HD
BRANCH  23  26
ATOM     25  C   UNL     1       6.768  -3.577   5.843  0.00  0.00    -0.017 C 
ATOM     26  C   UNL     1       5.406  -2.886   5.755  0.00  0.00    -0.082 C 
ENDBRANCH  23  26
BRANCH  23  27
ATOM     27  C   UNL     1       6.495  -0.730   5.926  0.00  0.00    -0.082 C 
ATOM     28  C   UNL     1       5.927  -0.513   7.330  0.00  0.00    -0.017 C 
ENDBRANCH  23  27
ENDBRANCH  22  23
ENDBRANCH  21  22
ENDBRANCH  20  21
ENDBRANCH  18  20
ENDBRANCH  14  18
ENDBRANCH  10  15
ENDBRANCH   1  12
BRANCH   9  29
ATOM     29  C   UNL     1      -2.923  -2.840  -1.727  0.00  0.00    +0.285 C 
ATOM     30  O   UNL     1      -2.136  -3.769  -1.707  0.00  0.00    -0.266 OA
ATOM     31  N   UNL     1      -3.978  -2.868  -2.565  0.00  0.00    -0.279 N 
ATOM     32  H   UNL     1      -4.643  -2.163  -2.531  0.00  0.00    +0.155 HD
BRANCH  31  33
ATOM     33  C   UNL     1      -4.118  -3.919  -3.479  0.00  0.00    +0.034 A 
ATOM     34  C   UNL     1      -2.992  -4.574  -3.963  0.00  0.00    +0.027 A 
ATOM     35  C   UNL     1      -3.131  -5.614  -4.861  0.00  0.00    +0.047 A 
ATOM     36  C   UNL     1      -4.394  -5.997  -5.288  0.00  0.00    +0.120 A 
ATOM     37  C   UNL     1      -5.518  -5.340  -4.810  0.00  0.00    +0.047 A 
ATOM     38  C   UNL     1      -5.381  -4.304  -3.908  0.00  0.00    +0.027 A 
BRANCH  36  39
ATOM     39  O   UNL     1      -4.529  -7.018  -6.176  0.00  0.00    -0.495 OA
ATOM     40  C   UNL     1      -3.329  -7.650  -6.627  0.00  0.00    +0.277 C 
ENDBRANCH  36  39
ENDBRANCH  31  33
ENDBRANCH   9  29
TORSDOF 12
