REMARK  Name = ZINC09598339
REMARK  12 active torsions:
REMARK  status: ('A' for Active; 'I' for Inactive)
REMARK    1  A    between atoms: C_1  and  C_2
REMARK    2  A    between atoms: C_5  and  C_7
REMARK    3  A    between atoms: C_12  and  C_17
REMARK    4  A    between atoms: C_20  and  O_25
REMARK    5  A    between atoms: C_21  and  O_23
REMARK    6  A    between atoms: O_23  and  C_24
REMARK    7  A    between atoms: O_25  and  C_26
REMARK    8  A    between atoms: C_28  and  C_41
REMARK    9  A    between atoms: C_29  and  C_30
REMARK   10  A    between atoms: N_32  and  C_33
REMARK   11  A    between atoms: C_36  and  O_39
REMARK   12  A    between atoms: O_39  and  C_40
REMARK                            x       y       z     vdW  Elec       q    Type
REMARK                         _______ _______ _______ _____ _____    ______ ____
ROOT
ATOM      1  C   UNL     1       0.929  -4.753   0.013  0.00  0.00    +0.126 C 
ATOM      2  C   UNL     1       1.076  -6.145   0.568  0.00  0.00    +0.027 C 
ATOM      3  C   UNL     1       2.264  -6.784   0.526  0.00  0.00    +0.016 C 
ATOM      4  C   UNL     1       2.418  -8.176   1.085  0.00  0.00    +0.059 C 
ATOM      5  C   UNL     1       1.097  -8.935   0.945  0.00  0.00    +0.032 C 
ATOM      6  C   UNL     1       0.007  -8.154   1.686  0.00  0.00    +0.088 C 
ATOM      7  C   UNL     1      -0.058  -6.758   1.130  0.00  0.00    +0.162 C 
ATOM      8  O   UNL     1      -1.109  -6.149   1.167  0.00  0.00    -0.292 OA
ATOM      9  N   UNL     1       3.361  -6.175  -0.024  0.00  0.00    -0.321 N 
ATOM     10  C   UNL     1       3.401  -4.816  -0.172  0.00  0.00    +0.014 C 
ATOM     11  C   UNL     1       2.267  -4.096  -0.160  0.00  0.00    +0.046 C 
ATOM     12  C   UNL     1       4.727  -4.121  -0.351  0.00  0.00    +0.061 C 
ATOM     13  H   UNL     1       4.219  -6.780  -0.350  0.00  0.00    +0.152 HD
ENDROOT
BRANCH   1  18
ATOM     14  C   UNL     1      -0.614  -2.361   4.177  0.00  0.00    +0.086 C 
ATOM     15  C   UNL     1      -0.580  -2.887   2.765  0.00  0.00    +0.102 A 
ATOM     16  C   UNL     1      -1.519  -2.677   1.825  0.00  0.00    +0.044 A 
ATOM     17  C   UNL     1      -1.083  -3.343   0.656  0.00  0.00    +0.046 A 
ATOM     18  C   UNL     1       0.091  -3.927   0.954  0.00  0.00    +0.117 A 
ATOM     19  O   UNL     1       0.393  -3.645   2.232  0.00  0.00    -0.464 OA
ENDBRANCH   1  18
BRANCH   5  20
ATOM     20  C   UNL     1       1.237 -10.311   1.545  0.00  0.00    -0.040 A 
ATOM     21  C   UNL     1       1.560 -10.450   2.882  0.00  0.00    +0.008 A 
ATOM     22  C   UNL     1       1.690 -11.709   3.438  0.00  0.00    +0.049 A 
ATOM     23  C   UNL     1       1.495 -12.835   2.654  0.00  0.00    +0.161 A 
ATOM     24  C   UNL     1       1.170 -12.695   1.308  0.00  0.00    +0.162 A 
ATOM     25  C   UNL     1       1.036 -11.430   0.759  0.00  0.00    +0.053 A 
BRANCH  24  26
ATOM     26  O   UNL     1       0.978 -13.797   0.535  0.00  0.00    -0.491 OA
ATOM     27  C   UNL     1       0.645 -13.577  -0.837  0.00  0.00    +0.277 C 
ENDBRANCH  24  26
BRANCH  23  28
ATOM     28  O   UNL     1       1.623 -14.075   3.199  0.00  0.00    -0.491 OA
ATOM     29  C   UNL     1       1.960 -14.143   4.586  0.00  0.00    +0.277 C 
ENDBRANCH  23  28
ENDBRANCH   5  20
BRANCH  11  30
ATOM     30  C   UNL     1       2.336  -2.689  -0.308  0.00  0.00    +0.247 C 
ATOM     31  O   UNL     1       2.117  -2.179  -1.392  0.00  0.00    -0.270 OA
ATOM     32  N   UNL     1       2.645  -1.914   0.751  0.00  0.00    -0.282 N 
ATOM     33  H   UNL     1       2.980  -2.376   1.691  0.00  0.00    +0.155 HD
BRANCH  32  34
ATOM     34  C   UNL     1       2.539  -0.521   0.654  0.00  0.00    +0.034 A 
ATOM     35  C   UNL     1       2.187   0.228   1.769  0.00  0.00    +0.027 A 
ATOM     36  C   UNL     1       2.083   1.602   1.673  0.00  0.00    +0.047 A 
ATOM     37  C   UNL     1       2.330   2.233   0.462  0.00  0.00    +0.120 A 
ATOM     38  C   UNL     1       2.682   1.486  -0.652  0.00  0.00    +0.047 A 
ATOM     39  C   UNL     1       2.786   0.112  -0.557  0.00  0.00    +0.027 A 
BRANCH  37  40
ATOM     40  O   UNL     1       2.228   3.586   0.368  0.00  0.00    -0.495 OA
ATOM     41  C   UNL     1       2.495   4.170  -0.908  0.00  0.00    +0.277 C 
ENDBRANCH  37  40
ENDBRANCH  32  34
ENDBRANCH  11  30
TORSDOF 7
