REMARK  Name = ZINC23186221
REMARK  10 active torsions:
REMARK  status: ('A' for Active; 'I' for Inactive)
REMARK    1  A    between atoms: C_1  and  N_2
REMARK    2  A    between atoms: C_3  and  C_5
REMARK    3  A    between atoms: C_8  and  C_11
REMARK    4  A    between atoms: C_11  and  N_12
REMARK    5  A    between atoms: N_12  and  C_13
REMARK    6  A    between atoms: N_12  and  C_26
REMARK    7  A    between atoms: C_13  and  C_14
REMARK    8  A    between atoms: C_14  and  C_15
REMARK    9  A    between atoms: N_17  and  C_18
REMARK   10  A    between atoms: C_26  and  C_27
REMARK                            x       y       z     vdW  Elec       q    Type
REMARK                         _______ _______ _______ _____ _____    ______ ____
ROOT
ATOM      1  N   UNL     1       0.813   3.950  -0.239  0.00  0.00    +0.387 N 
ATOM      2  H   UNL     1       0.615   3.622   0.792  0.00  0.00    -0.081 HD
ENDROOT
BRANCH   1   3
ATOM      3  C   UNL     1      -0.059   3.177  -1.133  0.00  0.00    -0.042 C 
BRANCH   3   7
ATOM      4  C   UNL     1       0.399  -0.996  -0.319  0.00  0.00    +0.037 A 
ATOM      5  C   UNL     1      -0.565  -0.250   0.362  0.00  0.00    +0.013 A 
ATOM      6  C   UNL     1      -0.708   1.096   0.094  0.00  0.00    +0.002 A 
ATOM      7  C   UNL     1       0.102   1.707  -0.846  0.00  0.00    -0.064 A 
ATOM      8  C   UNL     1       1.060   0.974  -1.524  0.00  0.00    +0.002 A 
ATOM      9  C   UNL     1       1.213  -0.373  -1.266  0.00  0.00    +0.013 A 
BRANCH   4  12
ATOM     10  C   UNL     1       1.647  -4.585  -0.416  0.00  0.00    +0.128 C 
ATOM     11  N   UNL     1       1.489  -3.155  -0.696  0.00  0.00    -0.314 N 
ATOM     12  C   UNL     1       0.557  -2.438  -0.037  0.00  0.00    +0.244 C 
ATOM     13  O   UNL     1      -0.153  -2.978   0.789  0.00  0.00    -0.270 OA
ATOM     14  H   UNL     1       2.132  -2.667  -1.443  0.00  0.00    +0.149 HD
ENDBRANCH   4  12
ENDBRANCH   3   7
ENDBRANCH   1   3
BRANCH   1  15
ATOM     15  C   UNL     1       0.513   5.386  -0.322  0.00  0.00    -0.069 C 
BRANCH  15  16
ATOM     16  C   UNL     1      -0.776   5.683   0.448  0.00  0.00    +0.077 C 
BRANCH  16  17
ATOM     17  C   UNL     1      -1.015   7.170   0.473  0.00  0.00    +0.215 C 
ATOM     18  O   UNL     1      -0.231   7.919  -0.071  0.00  0.00    -0.276 OA
ATOM     19  N   UNL     1      -2.099   7.668   1.100  0.00  0.00    -0.283 N 
ATOM     20  H   UNL     1      -2.761   6.999   1.669  0.00  0.00    +0.155 HD
BRANCH  19  21
ATOM     21  C   UNL     1      -2.381   9.038   1.028  0.00  0.00    +0.070 A 
ATOM     22  C   UNL     1      -1.388   9.970   1.302  0.00  0.00    +0.064 A 
ATOM     23  C   UNL     1      -1.669  11.321   1.225  0.00  0.00    +0.022 A 
ATOM     24  C   UNL     1      -2.941  11.745   0.887  0.00  0.00    +0.003 A 
ATOM     25  C   UNL     1      -3.934  10.821   0.619  0.00  0.00    +0.022 A 
ATOM     26  C   UNL     1      -3.658   9.468   0.689  0.00  0.00    +0.064 A 
ATOM     27 CL   UNL     1      -4.905   8.309   0.353  0.00  0.00    -0.082 Cl
ATOM     28 CL   UNL     1       0.207   9.437   1.733  0.00  0.00    -0.082 Cl
ENDBRANCH  19  21
ENDBRANCH  16  17
ENDBRANCH  15  16
ENDBRANCH   1  15
BRANCH   1  29
ATOM     29  C   UNL     1       2.229   3.690  -0.530  0.00  0.00    -0.003 C 
BRANCH  29  30
ATOM     30  C   UNL     1       3.075   4.171   0.620  0.00  0.00    +0.089 A 
ATOM     31  C   UNL     1       3.423   3.445   1.698  0.00  0.00    +0.042 A 
ATOM     32  C   UNL     1       4.213   4.282   2.518  0.00  0.00    +0.041 A 
ATOM     33  C   UNL     1       4.301   5.470   1.893  0.00  0.00    +0.195 A 
ATOM     34  O   UNL     1       3.615   5.395   0.741  0.00  0.00    -0.470 OA
ENDBRANCH  29  30
ENDBRANCH   1  29
TORSDOF 9
