REMARK  Name = ZINC45896317
REMARK  11 active torsions:
REMARK  status: ('A' for Active; 'I' for Inactive)
REMARK    1  A    between atoms: C_1  and  C_2
REMARK    2  A    between atoms: C_2  and  C_3
REMARK    3  A    between atoms: C_3  and  N_4
REMARK    4  A    between atoms: C_13  and  O_14
REMARK    5  A    between atoms: C_15  and  N_16
REMARK    6  A    between atoms: N_19  and  C_20
REMARK    7  A    between atoms: C_20  and  C_26
REMARK    8  A    between atoms: C_26  and  C_27
REMARK    9  A    between atoms: C_27  and  O_29
REMARK   10  A    between atoms: O_29  and  C_30
REMARK   11  A    between atoms: C_30  and  C_31
REMARK                            x       y       z     vdW  Elec       q    Type
REMARK                         _______ _______ _______ _____ _____    ______ ____
ROOT
ATOM      1  N   UNL     1      -1.035  -0.783  -3.362  0.00  0.00    -0.262 N 
ATOM      2  C   UNL     1      -1.728  -0.098  -4.293  0.00  0.00    +0.305 C 
ATOM      3  O   UNL     1      -2.571  -0.664  -4.962  0.00  0.00    -0.252 OA
ATOM      4  N   UNL     1      -1.486   1.214  -4.483  0.00  0.00    -0.293 N 
ATOM      5  H   UNL     1      -0.425  -0.316  -2.770  0.00  0.00    +0.157 HD
ATOM      6  H   UNL     1      -0.774   1.652  -3.991  0.00  0.00    +0.151 HD
ENDROOT
BRANCH   1  17
ATOM      7  N   UNL     1      -3.416  -1.947  -2.386  0.00  0.00    -0.382 N 
ATOM      8  C   UNL     1      -2.417  -2.723  -2.750  0.00  0.00    +0.075 A 
ATOM      9  C   UNL     1      -2.515  -4.198  -2.665  0.00  0.00    +0.042 A 
ATOM     10  C   UNL     1      -3.669  -4.821  -2.197  0.00  0.00    +0.013 A 
ATOM     11  C   UNL     1      -3.721  -6.197  -2.134  0.00  0.00    +0.001 A 
ATOM     12  C   UNL     1      -2.632  -6.957  -2.532  0.00  0.00    +0.004 A 
ATOM     13  C   UNL     1      -1.484  -6.349  -2.996  0.00  0.00    +0.047 A 
ATOM     14  C   UNL     1      -1.413  -4.964  -3.069  0.00  0.00    +0.141 A 
ATOM     15  O   UNL     1      -0.298  -4.351  -3.521  0.00  0.00    -0.424 OA
ATOM     16  C   UNL     1      -0.192  -3.015  -3.604  0.00  0.00    +0.309 A 
ATOM     17  C   UNL     1      -1.197  -2.179  -3.248  0.00  0.00    +0.140 A 
ATOM     18  H   UNL     1      -4.322  -2.294  -2.379  0.00  0.00    +0.160 HD
BRANCH  16  19
ATOM     19  O   UNL     1       0.962  -2.483  -4.069  0.00  0.00    -0.479 OA
ATOM     20  H   UNL     1       1.630  -3.140  -4.307  0.00  0.00    +0.295 HD
ENDBRANCH  16  19
BRANCH   7  21
ATOM     21  C   UNL     1      -3.160  -0.559  -1.993  0.00  0.00    +0.112 C 
BRANCH  21  23
ATOM     22  C   UNL     1      -3.456   1.135  -0.181  0.00  0.00    +0.005 C 
ATOM     23  C   UNL     1      -3.733  -0.311  -0.596  0.00  0.00    +0.017 C 
ENDBRANCH  21  23
ENDBRANCH   7  21
ENDBRANCH   1  17
BRANCH   4  24
ATOM     24  C   UNL     1      -2.299   1.979  -5.432  0.00  0.00    +0.046 C 
ATOM     25  C   UNL     1      -1.771   3.412  -5.516  0.00  0.00    +0.026 C 
ATOM     26  C   UNL     1      -1.849   4.066  -4.136  0.00  0.00    +0.002 C 
ATOM     27  C   UNL     1      -3.304   4.086  -3.662  0.00  0.00    +0.000 C 
ATOM     28  C   UNL     1      -3.832   2.652  -3.578  0.00  0.00    +0.002 C 
ATOM     29  C   UNL     1      -3.754   1.998  -4.958  0.00  0.00    +0.026 C 
BRANCH  24  30
ATOM     30  C   UNL     1      -2.221   1.324  -6.813  0.00  0.00    +0.146 C 
BRANCH  30  31
ATOM     31  C   UNL     1      -0.776   1.168  -7.214  0.00  0.00    +0.309 C 
ATOM     32  O   UNL     1       0.101   1.447  -6.431  0.00  0.00    -0.251 OA
BRANCH  31  33
ATOM     33  O   UNL     1      -0.465   0.720  -8.440  0.00  0.00    -0.465 OA
BRANCH  33  34
ATOM     34  C   UNL     1       0.924   0.596  -8.752  0.00  0.00    +0.229 C 
ATOM     35  C   UNL     1       1.081   0.075 -10.182  0.00  0.00    +0.048 C 
ENDBRANCH  33  34
ENDBRANCH  31  33
ENDBRANCH  30  31
ENDBRANCH  24  30
ENDBRANCH   4  24
TORSDOF 9
