REMARK  Name = ZINC36597102
REMARK  12 active torsions:
REMARK  status: ('A' for Active; 'I' for Inactive)
REMARK    1  A    between atoms: C_1  and  C_2
REMARK    2  A    between atoms: C_5  and  C_7
REMARK    3  A    between atoms: C_7  and  N_8
REMARK    4  A    between atoms: N_8  and  C_9
REMARK    5  A    between atoms: C_9  and  C_11
REMARK    6  A    between atoms: C_9  and  C_20
REMARK    7  A    between atoms: C_14  and  O_19
REMARK    8  A    between atoms: C_15  and  O_17
REMARK    9  A    between atoms: O_17  and  C_18
REMARK   10  A    between atoms: N_22  and  C_23
REMARK   11  A    between atoms: C_29  and  C_31
REMARK   12  A    between atoms: C_32  and  C_33
REMARK                            x       y       z     vdW  Elec       q    Type
REMARK                         _______ _______ _______ _____ _____    ______ ____
ROOT
ATOM      1  C   UNL     1       3.125  -2.914  -2.179  0.00  0.00    +0.194 C 
ENDROOT
BRANCH   1   2
ATOM      2  C   UNL     1       2.346  -1.850  -1.450  0.00  0.00    -0.014 A 
ATOM      3  C   UNL     1       1.642  -2.173  -0.304  0.00  0.00    +0.010 A 
ATOM      4  C   UNL     1       0.927  -1.200   0.368  0.00  0.00    +0.049 A 
ATOM      5  C   UNL     1       0.915   0.102  -0.105  0.00  0.00    +0.158 A 
ATOM      6  C   UNL     1       1.624   0.428  -1.257  0.00  0.00    +0.162 A 
ATOM      7  C   UNL     1       2.343  -0.551  -1.924  0.00  0.00    +0.055 A 
BRANCH   6   8
ATOM      8  O   UNL     1       1.615   1.704  -1.725  0.00  0.00    -0.491 OA
ATOM      9  C   UNL     1       2.365   1.965  -2.913  0.00  0.00    +0.277 C 
ENDBRANCH   6   8
BRANCH   5  10
ATOM     10  O   UNL     1       0.211   1.061   0.555  0.00  0.00    -0.503 OA
ATOM     11  H   UNL     1       0.719   1.522   1.237  0.00  0.00    +0.292 HD
ENDBRANCH   5  10
ENDBRANCH   1   2
BRANCH   1  12
ATOM     12  C   UNL     1       4.353  -3.273  -1.383  0.00  0.00    +0.238 C 
ATOM     13  O   UNL     1       4.257  -3.987  -0.408  0.00  0.00    -0.273 OA
ATOM     14  N   UNL     1       5.559  -2.799  -1.754  0.00  0.00    -0.311 N 
ATOM     15  H   UNL     1       5.636  -2.228  -2.534  0.00  0.00    +0.149 HD
BRANCH  14  16
ATOM     16  C   UNL     1       6.753  -3.148  -0.981  0.00  0.00    +0.073 C 
ATOM     17  C   UNL     1       6.899  -2.180   0.196  0.00  0.00    +0.022 C 
ATOM     18  C   UNL     1       8.146  -2.544   1.004  0.00  0.00    +0.002 C 
ATOM     19  C   UNL     1       9.382  -2.446   0.107  0.00  0.00    +0.000 C 
ATOM     20  C   UNL     1       9.236  -3.414  -1.069  0.00  0.00    +0.002 C 
ATOM     21  C   UNL     1       7.989  -3.050  -1.878  0.00  0.00    +0.022 C 
ENDBRANCH  14  16
ENDBRANCH   1  12
BRANCH   1  22
ATOM     22  N   UNL     1       2.287  -4.104  -2.346  0.00  0.00    -0.268 N 
ATOM     23  C   UNL     1       1.017  -3.979  -2.780  0.00  0.00    +0.293 C 
ATOM     24  O   UNL     1       0.567  -2.877  -3.034  0.00  0.00    -0.260 OA
BRANCH  23  25
ATOM     25  C   UNL     1       0.198  -5.142  -2.943  0.00  0.00    -0.003 C 
ATOM     26  C   UNL     1      -0.474  -6.095  -3.077  0.00  0.00    -0.057 C 
BRANCH  26  27
ATOM     27  C   UNL     1      -1.293  -7.258  -3.240  0.00  0.00    +0.025 A 
ATOM     28  C   UNL     1      -0.781  -8.526  -2.944  0.00  0.00    +0.017 A 
ATOM     29  C   UNL     1      -1.577  -9.641  -3.103  0.00  0.00    +0.001 A 
ATOM     30  C   UNL     1      -2.878  -9.508  -3.555  0.00  0.00    +0.000 A 
ATOM     31  C   UNL     1      -3.392  -8.258  -3.851  0.00  0.00    +0.001 A 
ATOM     32  C   UNL     1      -2.611  -7.132  -3.691  0.00  0.00    +0.017 A 
ENDBRANCH  26  27
ENDBRANCH  23  25
BRANCH  22  33
ATOM     33  C   UNL     1       2.829  -5.431  -2.040  0.00  0.00    +0.184 C 
BRANCH  33  38
ATOM     34  C   UNL     1       2.376  -6.028   2.947  0.00  0.00    +0.086 C 
ATOM     35  C   UNL     1       2.115  -6.148   1.468  0.00  0.00    +0.102 A 
ATOM     36  C   UNL     1       1.128  -6.862   0.899  0.00  0.00    +0.045 A 
ATOM     37  C   UNL     1       1.254  -6.695  -0.499  0.00  0.00    +0.046 A 
ATOM     38  C   UNL     1       2.312  -5.888  -0.701  0.00  0.00    +0.122 A 
ATOM     39  O   UNL     1       2.826  -5.556   0.495  0.00  0.00    -0.463 OA
ENDBRANCH  33  38
ENDBRANCH  22  33
ENDBRANCH   1  22
TORSDOF 10
