REMARK  Name = ZINC39464519
REMARK  6 active torsions:
REMARK  status: ('A' for Active; 'I' for Inactive)
REMARK    1  A    between atoms: C_4  and  O_7
REMARK    2  A    between atoms: O_7  and  S_8
REMARK    3  A    between atoms: S_8  and  C_11
REMARK    4  A    between atoms: C_16  and  O_17
REMARK    5  A    between atoms: P_22  and  C_28
REMARK    6  A    between atoms: C_33  and  O_34
REMARK                            x       y       z     vdW  Elec       q    Type
REMARK                         _______ _______ _______ _____ _____    ______ ____
ROOT
ATOM      1  C   UNL     1       3.192  -2.273   2.002  0.00  0.00    +0.169 A 
ATOM      2  C   UNL     1       2.052  -2.017   2.736  0.00  0.00    +0.038 A 
ATOM      3  C   UNL     1       1.302  -3.062   3.254  0.00  0.00    -0.039 A 
ATOM      4  C   UNL     1       1.692  -4.366   3.038  0.00  0.00    -0.020 A 
ATOM      5  C   UNL     1       2.837  -4.627   2.301  0.00  0.00    +0.053 A 
ATOM      6  C   UNL     1       3.586  -3.585   1.778  0.00  0.00    +0.145 A 
ATOM      7  C   UNL     1       0.910  -5.535   3.577  0.00  0.00    +0.130 C 
ATOM      8  C   UNL     1       1.887  -6.574   4.136  0.00  0.00    +0.194 C 
ATOM      9  O   UNL     1       1.141  -7.738   4.542  0.00  0.00    -0.311 OA
ATOM     10  P   UNL     1      -0.160  -7.527   5.495  0.00  0.00    +0.318 P 
ATOM     11  O   UNL     1      -1.087  -8.672   5.357  0.00  0.00    -0.266 OA
ATOM     12  N   UNL     1      -0.882  -6.139   4.960  0.00  0.00    -0.175 NA
ATOM     13  N   UNL     1      -0.030  -5.110   4.614  0.00  0.00    -0.225 NA
ATOM     14  C   UNL     1      -0.824  -3.957   4.162  0.00  0.00    +0.108 C 
ATOM     15  C   UNL     1       0.066  -2.733   4.052  0.00  0.00    +0.052 C 
ATOM     16  H   UNL     1      -1.847  -6.056   4.904  0.00  0.00    +0.151 HD
ENDROOT
BRANCH  10  17
ATOM     17  C   UNL     1       0.355  -7.343   7.225  0.00  0.00    +0.094 A 
ATOM     18  C   UNL     1       0.628  -6.088   7.736  0.00  0.00    +0.018 A 
ATOM     19  C   UNL     1       1.020  -5.948   9.054  0.00  0.00    +0.001 A 
ATOM     20  C   UNL     1       1.140  -7.062   9.864  0.00  0.00    +0.004 A 
ATOM     21  C   UNL     1       0.868  -8.318   9.359  0.00  0.00    +0.046 A 
ATOM     22  C   UNL     1       0.469  -8.461   8.038  0.00  0.00    +0.131 A 
BRANCH  22  23
ATOM     23  O   UNL     1       0.194  -9.695   7.539  0.00  0.00    -0.506 OA
ATOM     24  H   UNL     1       0.960 -10.143   7.153  0.00  0.00    +0.292 HD
ENDBRANCH  22  23
ENDBRANCH  10  17
BRANCH   1  25
ATOM     25  S   UNL     1       4.140  -0.941   1.346  0.00  0.00    +0.154 S 
ATOM     26  O   UNL     1       5.458  -1.436   1.154  0.00  0.00    -0.131 OA
ATOM     27  O   UNL     1       3.863   0.192   2.158  0.00  0.00    -0.131 OA
BRANCH  25  28
ATOM     28  O   UNL     1       3.586  -0.632  -0.037  0.00  0.00    -0.342 OA
BRANCH  28  32
ATOM     29  C   UNL     1      -0.017   1.378   0.010  0.00  0.00    +0.000 A 
ATOM     30  C   UNL     1       1.170   2.088   0.002  0.00  0.00    +0.004 A 
ATOM     31  C   UNL     1       2.377   1.417  -0.013  0.00  0.00    +0.048 A 
ATOM     32  C   UNL     1       2.399   0.030  -0.021  0.00  0.00    +0.157 A 
ATOM     33  C   UNL     1       1.207  -0.680  -0.013  0.00  0.00    +0.048 A 
ATOM     34  C   UNL     1       0.002  -0.004   0.002  0.00  0.00    +0.004 A 
ENDBRANCH  28  32
ENDBRANCH  25  28
ENDBRANCH   1  25
BRANCH   6  35
ATOM     35  O   UNL     1       4.704  -3.846   1.052  0.00  0.00    -0.505 OA
ATOM     36  H   UNL     1       5.512  -3.903   1.581  0.00  0.00    +0.292 HD
ENDBRANCH   6  35
TORSDOF 6
