REMARK  Name = ZINC38684101
REMARK  14 active torsions:
REMARK  status: ('A' for Active; 'I' for Inactive)
REMARK    1  A    between atoms: C_1  and  C_2
REMARK    2  A    between atoms: C_6  and  C_8
REMARK    3  A    between atoms: C_8  and  O_10
REMARK    4  A    between atoms: O_10  and  C_11
REMARK    5  A    between atoms: C_18  and  N_37
REMARK    6  A    between atoms: C_19  and  C_35
REMARK    7  A    between atoms: C_20  and  C_22
REMARK    8  A    between atoms: C_25  and  O_30
REMARK    9  A    between atoms: C_26  and  O_28
REMARK   10  A    between atoms: O_28  and  C_29
REMARK   11  A    between atoms: O_30  and  C_31
REMARK   12  A    between atoms: C_31  and  C_32
REMARK   13  A    between atoms: C_32  and  C_33
REMARK   14  A    between atoms: C_32  and  C_34
REMARK                            x       y       z     vdW  Elec       q    Type
REMARK                         _______ _______ _______ _____ _____    ______ ____
ROOT
ATOM      1  C   UNL     1       0.117  -4.926   3.586  0.00  0.00    +0.135 A 
ATOM      2  C   UNL     1       0.071  -4.294   4.821  0.00  0.00    +0.047 A 
ATOM      3  C   UNL     1       0.120  -5.041   5.981  0.00  0.00    +0.012 A 
ATOM      4  C   UNL     1       0.215  -6.420   5.919  0.00  0.00    +0.008 A 
ATOM      5  C   UNL     1       0.261  -7.057   4.689  0.00  0.00    +0.138 A 
ATOM      6  C   UNL     1       0.206  -6.307   3.521  0.00  0.00    +0.093 A 
ATOM      7  O   UNL     1       0.353  -8.407   4.608  0.00  0.00    -0.441 OA
ATOM      8  C   UNL     1       0.783  -9.114   5.666  0.00  0.00    +0.199 C 
ATOM      9  C   UNL     1       0.768  -8.606   6.921  0.00  0.00    +0.098 C 
ATOM     10  C   UNL     1       0.267  -7.217   7.196  0.00  0.00    +0.098 C 
ENDROOT
BRANCH  10  11
ATOM     11  C   UNL     1      -1.115  -7.294   7.793  0.00  0.00    -0.031 A 
ATOM     12  C   UNL     1      -2.144  -7.879   7.077  0.00  0.00    +0.008 A 
ATOM     13  C   UNL     1      -3.413  -7.952   7.620  0.00  0.00    +0.050 A 
ATOM     14  C   UNL     1      -3.656  -7.439   8.884  0.00  0.00    +0.162 A 
ATOM     15  C   UNL     1      -2.621  -6.850   9.604  0.00  0.00    +0.162 A 
ATOM     16  C   UNL     1      -1.350  -6.784   9.056  0.00  0.00    +0.054 A 
BRANCH  15  17
ATOM     17  O   UNL     1      -2.855  -6.345  10.845  0.00  0.00    -0.491 OA
ATOM     18  C   UNL     1      -1.745  -5.755  11.525  0.00  0.00    +0.277 C 
ENDBRANCH  15  17
BRANCH  14  19
ATOM     19  O   UNL     1      -4.904  -7.509   9.420  0.00  0.00    -0.488 OA
BRANCH  19  20
ATOM     20  C   UNL     1      -5.918  -8.126   8.623  0.00  0.00    +0.232 C 
BRANCH  20  21
ATOM     21  C   UNL     1      -7.244  -8.113   9.386  0.00  0.00    +0.020 C 
ATOM     22  C   UNL     1      -7.707  -6.668   9.581  0.00  0.00    +0.010 C 
ATOM     23  C   UNL     1      -8.299  -8.883   8.589  0.00  0.00    +0.010 C 
ENDBRANCH  20  21
ENDBRANCH  19  20
ENDBRANCH  14  19
ENDBRANCH  10  11
BRANCH   8  24
ATOM     24  N   UNL     1       1.250 -10.390   5.469  0.00  0.00    -0.328 N 
ATOM     25  H   UNL     1       1.266 -10.768   4.576  0.00  0.00    +0.145 HD
ATOM     26  H   UNL     1       1.563 -10.913   6.223  0.00  0.00    +0.145 HD
ENDBRANCH   8  24
BRANCH   9  27
ATOM     27  C   UNL     1       1.240  -9.410   8.009  0.00  0.00    +0.101 C 
ATOM     28  N   UNL     1       1.614 -10.047   8.871  0.00  0.00    -0.191 NA
ENDBRANCH   9  27
BRANCH   1  29
ATOM     29  O   UNL     1       0.068  -4.192   2.443  0.00  0.00    -0.422 OA
BRANCH  29  30
ATOM     30  C   UNL     1       1.188  -3.550   2.057  0.00  0.00    +0.344 C 
ATOM     31  O   UNL     1       2.172  -3.563   2.768  0.00  0.00    -0.245 OA
BRANCH  30  37
ATOM     32  C   UNL     1       3.646  -0.770  -1.279  0.00  0.00    +0.044 C 
ATOM     33  C   UNL     1       2.397  -1.491  -0.841  0.00  0.00    -0.050 A 
ATOM     34  C   UNL     1       1.273  -1.478  -1.649  0.00  0.00    +0.003 A 
ATOM     35  C   UNL     1       0.122  -2.138  -1.256  0.00  0.00    +0.001 A 
ATOM     36  C   UNL     1       0.088  -2.813  -0.053  0.00  0.00    +0.015 A 
ATOM     37  C   UNL     1       1.218  -2.830   0.767  0.00  0.00    +0.060 A 
ATOM     38  C   UNL     1       2.378  -2.167   0.361  0.00  0.00    +0.018 A 
ENDBRANCH  30  37
ENDBRANCH  29  30
ENDBRANCH   1  29
TORSDOF 10
