REMARK  Name = ZINC06856328
REMARK  5 active torsions:
REMARK  status: ('A' for Active; 'I' for Inactive)
REMARK    1  A    between atoms: C_2  and  C_3
REMARK    2  A    between atoms: C_3  and  C_4
REMARK    3  A    between atoms: C_8  and  C_11
REMARK    4  A    between atoms: C_9  and  O_10
REMARK    5  A    between atoms: N_12  and  N_13
REMARK                            x       y       z     vdW  Elec       q    Type
REMARK                         _______ _______ _______ _____ _____    ______ ____
ROOT
ATOM      1  C   UNL     1      -1.318  -1.726  -1.159  0.00  0.00    -0.002 A 
ATOM      2  C   UNL     1      -1.927  -1.349  -2.342  0.00  0.00    +0.007 A 
ATOM      3  C   UNL     1      -1.955  -2.216  -3.421  0.00  0.00    +0.001 A 
ATOM      4  C   UNL     1      -1.377  -3.464  -3.326  0.00  0.00    +0.013 A 
ATOM      5  C   UNL     1      -0.759  -3.857  -2.136  0.00  0.00    +0.036 A 
ATOM      6  C   UNL     1      -0.728  -2.974  -1.048  0.00  0.00    +0.129 A 
ENDROOT
BRANCH   6   7
ATOM      7  O   UNL     1      -0.126  -3.342   0.113  0.00  0.00    -0.506 OA
ATOM      8  H   UNL     1      -0.715  -3.785   0.738  0.00  0.00    +0.292 HD
ENDBRANCH   6   7
BRANCH   5   9
ATOM      9  C   UNL     1      -0.140  -5.189  -2.027  0.00  0.00    +0.142 C 
ATOM     10  N   UNL     1       0.434  -5.550  -0.919  0.00  0.00    -0.187 NA
BRANCH  10  11
ATOM     11  N   UNL     1       1.022  -6.817  -0.816  0.00  0.00    -0.205 N 
ATOM     12  C   UNL     1       1.635  -7.203   0.367  0.00  0.00    +0.235 A 
ATOM     13  N   UNL     1       2.250  -8.402   0.601  0.00  0.00    -0.303 N 
ATOM     14  H   UNL     1       2.334  -9.132  -0.032  0.00  0.00    +0.171 HD
ATOM     15  C   UNL     1       2.725  -8.391   1.882  0.00  0.00    +0.201 A 
ATOM     16  S   UNL     1       3.598  -9.700   2.674  0.00  0.00    -0.009 SA
ATOM     17  N   UNL     1       2.417  -7.234   2.418  0.00  0.00    -0.120 NA
ATOM     18  N   UNL     1       1.731  -6.480   1.457  0.00  0.00    -0.111 NA
ATOM     19  H   UNL     1       1.002  -7.425  -1.572  0.00  0.00    +0.177 HD
ENDBRANCH  10  11
ENDBRANCH   5   9
BRANCH   1  20
ATOM     20  C   UNL     1      -1.293  -0.775   0.010  0.00  0.00    +0.065 C 
BRANCH  20  22
ATOM     21  C   UNL     1      -0.016   1.306   0.009  0.00  0.00    +0.004 C 
ATOM     22  C   UNL     1       0.002  -0.004   0.002  0.00  0.00    -0.030 C 
ENDBRANCH  20  22
ENDBRANCH   1  20
TORSDOF 5
