REMARK  Name = ZINC35317782
REMARK  15 active torsions:
REMARK  status: ('A' for Active; 'I' for Inactive)
REMARK    1  A    between atoms: C_1  and  C_2
REMARK    2  A    between atoms: C_9  and  C_11
REMARK    3  A    between atoms: C_11  and  C_12
REMARK    4  A    between atoms: C_12  and  C_13
REMARK    5  A    between atoms: C_18  and  C_20
REMARK    6  A    between atoms: C_20  and  C_22
REMARK    7  A    between atoms: C_20  and  N_25
REMARK    8  A    between atoms: C_22  and  C_23
REMARK    9  A    between atoms: C_22  and  C_24
REMARK   10  A    between atoms: C_26  and  C_28
REMARK   11  A    between atoms: C_28  and  C_29
REMARK   12  A    between atoms: C_29  and  C_30
REMARK   13  A    between atoms: C_30  and  C_31
REMARK   14  A    between atoms: C_31  and  C_32
REMARK   15  A    between atoms: C_32  and  N_33
REMARK                            x       y       z     vdW  Elec       q    Type
REMARK                         _______ _______ _______ _____ _____    ______ ____
ROOT
ATOM      1  C   UNL     1      -0.826   2.268  -0.534  0.00  0.00    +0.029 C 
ATOM      2  C   UNL     1      -0.162   0.926  -0.217  0.00  0.00    +0.090 C 
ATOM      3  C   UNL     1      -1.239  -0.120   0.095  0.00  0.00    +0.130 C 
ATOM      4  N   UNL     1      -1.850   0.207   1.391  0.00  0.00    -0.297 N 
ATOM      5  C   UNL     1      -0.982   0.352   2.567  0.00  0.00    +0.127 C 
ATOM      6  C   UNL     1       0.095   1.399   2.255  0.00  0.00    +0.127 C 
ATOM      7  N   UNL     1       0.710   1.072   0.957  0.00  0.00    -0.296 N 
ATOM      8  C   UNL     1       2.043   0.907   0.847  0.00  0.00    +0.216 C 
ATOM      9  O   UNL     1       2.533   0.635  -0.229  0.00  0.00    -0.276 OA
ATOM     10  C   UNL     1      -3.183   0.371   1.498  0.00  0.00    +0.236 C 
ATOM     11  O   UNL     1      -3.879   0.351   0.504  0.00  0.00    -0.274 OA
ENDROOT
BRANCH   8  12
ATOM     12  C   UNL     1       2.924   1.060   2.059  0.00  0.00    +0.096 C 
BRANCH  12  13
ATOM     13  C   UNL     1       4.383   0.823   1.663  0.00  0.00    +0.013 C 
BRANCH  13  14
ATOM     14  C   UNL     1       5.278   0.979   2.894  0.00  0.00    -0.011 C 
ATOM     15  C   UNL     1       5.287   2.450   3.358  0.00  0.00    +0.003 C 
ATOM     16  C   UNL     1       6.743   2.690   3.830  0.00  0.00    +0.000 C 
ATOM     17  C   UNL     1       7.573   1.887   2.798  0.00  0.00    +0.000 C 
ATOM     18  C   UNL     1       6.731   0.621   2.538  0.00  0.00    +0.003 C 
ENDBRANCH  13  14
ENDBRANCH  12  13
ENDBRANCH   8  12
BRANCH  10  19
ATOM     19  C   UNL     1      -3.810   0.580   2.852  0.00  0.00    +0.162 C 
BRANCH  19  20
ATOM     20  N   UNL     1      -5.091  -0.128   2.912  0.00  0.00    -0.304 N 
ATOM     21  C   UNL     1      -5.590  -0.520   4.101  0.00  0.00    +0.214 C 
ATOM     22  O   UNL     1      -4.978  -0.286   5.122  0.00  0.00    -0.276 OA
ATOM     23  H   UNL     1      -5.581  -0.316   2.096  0.00  0.00    +0.149 HD
BRANCH  21  24
ATOM     24  C   UNL     1      -6.908  -1.248   4.163  0.00  0.00    +0.096 C 
BRANCH  24  25
ATOM     25  C   UNL     1      -7.242  -1.576   5.620  0.00  0.00    +0.009 C 
BRANCH  25  26
ATOM     26  C   UNL     1      -8.579  -2.316   5.682  0.00  0.00    -0.001 C 
BRANCH  26  27
ATOM     27  C   UNL     1      -8.913  -2.644   7.139  0.00  0.00    -0.020 C 
BRANCH  27  28
ATOM     28  C   UNL     1     -10.251  -3.384   7.202  0.00  0.00    -0.086 C 
BRANCH  28  29
ATOM     29  N   UNL     1     -10.572  -3.699   8.600  0.00  0.00    +0.378 N 
ATOM     30  H   UNL     1     -11.454  -4.186   8.641  0.00  0.00    -0.090 HD
ATOM     31  H   UNL     1      -9.846  -4.282   8.988  0.00  0.00    -0.090 HD
ATOM     32  H   UNL     1     -10.635  -2.843   9.131  0.00  0.00    -0.090 HD
ENDBRANCH  28  29
ENDBRANCH  27  28
ENDBRANCH  26  27
ENDBRANCH  25  26
ENDBRANCH  24  25
ENDBRANCH  21  24
ENDBRANCH  19  20
BRANCH  19  33
ATOM     33  C   UNL     1      -4.043   2.075   3.081  0.00  0.00    +0.012 C 
ATOM     34  C   UNL     1      -4.604   2.294   4.488  0.00  0.00    +0.009 C 
ATOM     35  C   UNL     1      -2.717   2.825   2.938  0.00  0.00    +0.009 C 
ENDBRANCH  19  33
ENDBRANCH  10  19
TORSDOF 12
