REMARK  Name = ZINC12520866
REMARK  9 active torsions:
REMARK  status: ('A' for Active; 'I' for Inactive)
REMARK    1  A    between atoms: C_3  and  S_34
REMARK    2  A    between atoms: C_6  and  C_7
REMARK    3  A    between atoms: C_7  and  C_8
REMARK    4  A    between atoms: C_8  and  N_9
REMARK    5  A    between atoms: C_10  and  C_12
REMARK    6  A    between atoms: C_15  and  N_18
REMARK    7  A    between atoms: N_18  and  S_19
REMARK    8  A    between atoms: S_19  and  C_22
REMARK    9  A    between atoms: S_34  and  N_37
REMARK                            x       y       z     vdW  Elec       q    Type
REMARK                         _______ _______ _______ _____ _____    ______ ____
ROOT
ATOM      1  C   UNL     1      -4.830  -2.934  -2.641  0.00  0.00    +0.037 A 
ATOM      2  C   UNL     1      -5.381  -3.327  -1.418  0.00  0.00    +0.015 A 
ATOM      3  C   UNL     1      -6.575  -4.011  -1.390  0.00  0.00    +0.025 A 
ATOM      4  C   UNL     1      -7.234  -4.311  -2.579  0.00  0.00    +0.048 A 
ATOM      5  C   UNL     1      -6.687  -3.922  -3.799  0.00  0.00    +0.025 A 
ATOM      6  C   UNL     1      -5.497  -3.232  -3.833  0.00  0.00    +0.015 A 
ENDROOT
BRANCH   1   8
ATOM      7  N   UNL     1      -2.908  -1.914  -1.524  0.00  0.00    -0.311 N 
ATOM      8  C   UNL     1      -3.550  -2.201  -2.674  0.00  0.00    +0.244 C 
ATOM      9  O   UNL     1      -3.075  -1.855  -3.738  0.00  0.00    -0.270 OA
ATOM     10  H   UNL     1      -3.288  -2.189  -0.675  0.00  0.00    +0.149 HD
BRANCH   7  11
ATOM     11  C   UNL     1      -1.638  -1.185  -1.556  0.00  0.00    +0.109 C 
BRANCH  11  12
ATOM     12  C   UNL     1      -1.124  -0.991  -0.128  0.00  0.00    +0.054 C 
BRANCH  12  18
ATOM     13  C   UNL     1       0.190   1.139  -0.105  0.00  0.00    +0.005 A 
ATOM     14  C   UNL     1       1.389   1.826  -0.136  0.00  0.00    +0.029 A 
ATOM     15  C   UNL     1       2.581   1.133  -0.223  0.00  0.00    +0.105 A 
ATOM     16  C   UNL     1       2.574  -0.249  -0.279  0.00  0.00    +0.029 A 
ATOM     17  C   UNL     1       1.375  -0.936  -0.247  0.00  0.00    +0.005 A 
ATOM     18  C   UNL     1       0.183  -0.242  -0.162  0.00  0.00    -0.046 A 
BRANCH  15  19
ATOM     19  S   UNL     1       4.109   2.009  -0.262  0.00  0.00    +0.056 S 
ATOM     20  O   UNL     1       5.051   1.153  -0.895  0.00  0.00    -0.153 OA
ATOM     21  O   UNL     1       3.818   3.312  -0.747  0.00  0.00    -0.153 OA
BRANCH  19  22
ATOM     22  N   UNL     1       4.612   2.188   1.305  0.00  0.00    -0.204 NA
ATOM     23  H   UNL     1       4.075   1.831   2.030  0.00  0.00    +0.144 HD
ATOM     24  H   UNL     1       5.443   2.649   1.498  0.00  0.00    +0.144 HD
ENDBRANCH  19  22
ENDBRANCH  15  19
ENDBRANCH  12  18
ENDBRANCH  11  12
ENDBRANCH   7  11
ENDBRANCH   1   8
BRANCH   4  25
ATOM     25  N   UNL     1      -8.440  -5.003  -2.548  0.00  0.00    -0.216 N 
ATOM     26  H   UNL     1      -8.533  -5.791  -1.991  0.00  0.00    +0.174 HD
BRANCH  25  27
ATOM     27  S   UNL     1      -9.717  -4.480  -3.463  0.00  0.00    +0.072 S 
ATOM     28  O   UNL     1      -9.235  -4.337  -4.792  0.00  0.00    -0.150 OA
ATOM     29  O   UNL     1     -10.819  -5.317  -3.138  0.00  0.00    -0.150 OA
BRANCH  27  30
ATOM     30  C   UNL     1     -10.132  -2.862  -2.902  0.00  0.00    +0.111 A 
ATOM     31  C   UNL     1     -10.971  -2.704  -1.812  0.00  0.00    +0.031 A 
ATOM     32  C   UNL     1     -11.302  -1.440  -1.365  0.00  0.00    +0.030 A 
ATOM     33  C   UNL     1     -10.792  -0.324  -2.010  0.00  0.00    +0.067 A 
ATOM     34  C   UNL     1      -9.945  -0.483  -3.109  0.00  0.00    +0.069 A 
ATOM     35  C   UNL     1      -9.614  -1.756  -3.547  0.00  0.00    +0.056 A 
ATOM     36  N   UNL     1      -9.599   0.796  -3.538  0.00  0.00    -0.306 N 
ATOM     37  H   UNL     1      -9.019   1.006  -4.287  0.00  0.00    +0.170 HD
ATOM     38  C   UNL     1     -10.206   1.692  -2.737  0.00  0.00    +0.325 A 
ATOM     39  O   UNL     1     -10.113   2.900  -2.840  0.00  0.00    -0.247 OA
ATOM     40  N   UNL     1     -10.933   1.046  -1.805  0.00  0.00    -0.306 N 
ATOM     41  H   UNL     1     -11.464   1.465  -1.110  0.00  0.00    +0.170 HD
ENDBRANCH  27  30
ENDBRANCH  25  27
ENDBRANCH   4  25
TORSDOF 9
