REMARK  Name = ZINC38741911
REMARK  5 active torsions:
REMARK  status: ('A' for Active; 'I' for Inactive)
REMARK    1  A    between atoms: C_1  and  C_2
REMARK    2  A    between atoms: C_2  and  C_34
REMARK    3  A    between atoms: C_8  and  N_22
REMARK    4  A    between atoms: N_11  and  C_12
REMARK    5  A    between atoms: N_22  and  C_23
REMARK                            x       y       z     vdW  Elec       q    Type
REMARK                         _______ _______ _______ _____ _____    ______ ____
ROOT
ATOM      1  C   UNL     1      -0.018   1.255  -0.160  0.00  0.00    +0.011 C 
ATOM      2  C   UNL     1      -0.174  -0.267  -0.171  0.00  0.00    -0.027 C 
ATOM      3  C   UNL     1      -1.671  -0.617  -0.116  0.00  0.00    +0.028 C 
ATOM      4  C   UNL     1      -2.217  -0.068   1.181  0.00  0.00    +0.089 C 
ATOM      5  C   UNL     1      -1.587  -0.901   2.336  0.00  0.00    +0.110 C 
ATOM      6  C   UNL     1      -2.410  -0.417   3.524  0.00  0.00    +0.165 C 
ATOM      7  N   UNL     1      -3.726  -0.040   2.937  0.00  0.00    -0.231 NA
ATOM      8  N   UNL     1      -3.641  -0.223   1.476  0.00  0.00    -0.211 NA
ATOM      9  C   UNL     1      -0.124  -0.576   2.308  0.00  0.00    +0.142 C 
ATOM     10  O   UNL     1       0.453  -0.103   3.257  0.00  0.00    -0.297 OA
ATOM     11  C   UNL     1       0.592  -0.855   1.012  0.00  0.00    +0.081 C 
ATOM     12  C   UNL     1       0.416  -0.818  -1.471  0.00  0.00    +0.011 C 
ATOM     13  H   UNL     1      -3.969   0.910   3.173  0.00  0.00    +0.143 HD
ENDROOT
BRANCH   8  14
ATOM     14  C   UNL     1      -4.437   0.794   0.776  0.00  0.00    +0.199 C 
ATOM     15  N   UNL     1      -4.297   0.663  -0.681  0.00  0.00    -0.364 N 
ATOM     16  C   UNL     1      -3.782   1.653  -1.352  0.00  0.00    +0.045 A 
ATOM     17  C   UNL     1      -3.553   1.726  -2.814  0.00  0.00    +0.026 A 
ATOM     18  C   UNL     1      -3.006   2.833  -3.352  0.00  0.00    +0.002 A 
ATOM     19  C   UNL     1      -2.632   3.946  -2.585  0.00  0.00    +0.001 A 
ATOM     20  C   UNL     1      -2.805   3.967  -1.242  0.00  0.00    +0.011 A 
ATOM     21  C   UNL     1      -3.368   2.860  -0.590  0.00  0.00    +0.008 A 
ATOM     22  P   UNL     1      -3.751   2.486   1.060  0.00  0.00    +0.001 P 
ATOM     23  H   UNL     1      -4.583  -0.146  -1.134  0.00  0.00    +0.162 HD
ENDBRANCH   8  14
BRANCH   6  24
ATOM     24  N   UNL     1      -2.575  -1.494   4.505  0.00  0.00    -0.327 N 
ATOM     25  H   UNL     1      -2.791  -2.391   4.207  0.00  0.00    +0.148 HD
BRANCH  24  26
ATOM     26  C   UNL     1      -2.420  -1.227   5.868  0.00  0.00    +0.030 A 
ATOM     27  C   UNL     1      -2.416  -2.271   6.785  0.00  0.00    +0.024 A 
ATOM     28  C   UNL     1      -2.263  -2.005   8.131  0.00  0.00    +0.023 A 
ATOM     29  C   UNL     1      -2.115  -0.700   8.568  0.00  0.00    +0.059 A 
ATOM     30  C   UNL     1      -2.120   0.342   7.657  0.00  0.00    +0.061 A 
ATOM     31  C   UNL     1      -2.266   0.081   6.307  0.00  0.00    +0.044 A 
ATOM     32 CL   UNL     1      -1.935   1.978   8.209  0.00  0.00    -0.082 Cl
ATOM     33 CL   UNL     1      -1.923  -0.370  10.262  0.00  0.00    -0.082 Cl
ENDBRANCH  24  26
ENDBRANCH   6  24
TORSDOF 3
