REMARK  Name = ZINC63389396
REMARK  11 active torsions:
REMARK  status: ('A' for Active; 'I' for Inactive)
REMARK    1  A    between atoms: C_1  and  O_2
REMARK    2  A    between atoms: O_2  and  C_3
REMARK    3  A    between atoms: C_8  and  O_9
REMARK    4  A    between atoms: O_9  and  C_10
REMARK    5  A    between atoms: N_13  and  C_16
REMARK    6  A    between atoms: C_16  and  C_17
REMARK    7  A    between atoms: N_19  and  C_20
REMARK    8  A    between atoms: C_20  and  C_21
REMARK    9  A    between atoms: N_23  and  C_24
REMARK   10  A    between atoms: C_24  and  C_25
REMARK   11  A    between atoms: C_25  and  C_26
REMARK                            x       y       z     vdW  Elec       q    Type
REMARK                         _______ _______ _______ _____ _____    ______ ____
ROOT
ATOM      1  C   UNL     1       2.613   1.018  -7.360  0.00  0.00    +0.231 C 
ATOM      2  O   UNL     1       1.419   0.839  -7.242  0.00  0.00    -0.274 OA
ATOM      3  N   UNL     1       3.086   1.750  -8.388  0.00  0.00    -0.305 N 
ATOM      4  H   UNL     1       4.040   1.893  -8.483  0.00  0.00    +0.149 HD
ENDROOT
BRANCH   1   5
ATOM      5  C   UNL     1       3.567   0.421  -6.358  0.00  0.00    +0.205 C 
BRANCH   5  14
ATOM      6  C   UNL     1       0.607  -0.608  -1.057  0.00  0.00    +0.162 A 
ATOM      7  C   UNL     1       1.169   0.161  -2.056  0.00  0.00    +0.064 A 
ATOM      8  C   UNL     1       1.784  -0.463  -3.143  0.00  0.00    +0.061 A 
ATOM      9  C   UNL     1       1.846  -1.868  -3.201  0.00  0.00    +0.044 A 
ATOM     10  C   UNL     1       1.275  -2.628  -2.198  0.00  0.00    +0.073 A 
ATOM     11  C   UNL     1       0.659  -2.001  -1.125  0.00  0.00    +0.163 A 
ATOM     12  N   UNL     1       2.504  -2.455  -4.279  0.00  0.00    -0.328 N 
ATOM     13  C   UNL     1       2.529  -1.742  -5.562  0.00  0.00    +0.214 C 
ATOM     14  N   UNL     1       2.812  -0.323  -5.347  0.00  0.00    -0.273 N 
ATOM     15  C   UNL     1       2.390   0.313  -4.236  0.00  0.00    +0.250 C 
ATOM     16  O   UNL     1       2.510   1.520  -4.137  0.00  0.00    -0.270 OA
ATOM     17  H   UNL     1       2.938  -3.317  -4.184  0.00  0.00    +0.148 HD
BRANCH   6  19
ATOM     18  C   UNL     1      -0.017   1.425   0.010  0.00  0.00    +0.277 C 
ATOM     19  O   UNL     1       0.002  -0.004   0.002  0.00  0.00    -0.491 OA
ENDBRANCH   6  19
BRANCH  11  20
ATOM     20  O   UNL     1       0.101  -2.747  -0.137  0.00  0.00    -0.491 OA
ATOM     21  C   UNL     1       0.189  -4.167  -0.267  0.00  0.00    +0.277 C 
ENDBRANCH  11  20
ENDBRANCH   5  14
ENDBRANCH   1   5
BRANCH   3  22
ATOM     22  C   UNL     1       2.158   2.329  -9.363  0.00  0.00    +0.200 C 
BRANCH  22  23
ATOM     23  C   UNL     1       2.935   3.094 -10.403  0.00  0.00    +0.230 C 
ATOM     24  O   UNL     1       4.144   3.150 -10.336  0.00  0.00    -0.274 OA
ATOM     25  N   UNL     1       2.285   3.717 -11.406  0.00  0.00    -0.314 N 
ATOM     26  H   UNL     1       1.318   3.672 -11.459  0.00  0.00    +0.149 HD
BRANCH  25  27
ATOM     27  C   UNL     1       3.041   4.461 -12.417  0.00  0.00    +0.108 C 
BRANCH  27  28
ATOM     28  C   UNL     1       2.071   5.066 -13.435  0.00  0.00    +0.052 C 
BRANCH  28  29
ATOM     29  C   UNL     1       2.848   5.831 -14.475  0.00  0.00    -0.040 C 
ATOM     30  C   UNL     1       3.256   5.378 -15.682  0.00  0.00    +0.000 A 
ATOM     31  C   UNL     1       3.105   4.086 -16.361  0.00  0.00    +0.030 A 
ATOM     32  C   UNL     1       3.636   3.927 -17.596  0.00  0.00    +0.042 A 
ATOM     33  C   UNL     1       4.325   4.965 -18.241  0.00  0.00    +0.022 A 
ATOM     34  C   UNL     1       4.505   6.180 -17.680  0.00  0.00    +0.027 A 
ATOM     35  C   UNL     1       3.988   6.457 -16.384  0.00  0.00    +0.043 A 
ATOM     36  N   UNL     1       4.030   7.535 -15.640  0.00  0.00    -0.380 N 
ATOM     37  C   UNL     1       3.324   7.264 -14.383  0.00  0.00    +0.144 C 
ATOM     38 CL   UNL     1       3.459   2.400 -18.403  0.00  0.00    -0.084 Cl
ATOM     39  H   UNL     1       4.454   8.373 -15.882  0.00  0.00    +0.160 HD
ENDBRANCH  28  29
ENDBRANCH  27  28
ENDBRANCH  25  27
ENDBRANCH  22  23
ENDBRANCH   3  22
TORSDOF 9
