REMARK  Name = ZINC40394266
REMARK  11 active torsions:
REMARK  status: ('A' for Active; 'I' for Inactive)
REMARK    1  A    between atoms: C_1  and  C_2
REMARK    2  A    between atoms: C_2  and  C_3
REMARK    3  A    between atoms: C_3  and  N_4
REMARK    4  A    between atoms: C_6  and  C_20
REMARK    5  A    between atoms: N_11  and  C_12
REMARK    6  A    between atoms: C_12  and  C_13
REMARK    7  A    between atoms: C_13  and  C_14
REMARK    8  A    between atoms: C_23  and  C_25
REMARK    9  A    between atoms: C_25  and  N_26
REMARK   10  A    between atoms: C_28  and  C_35
REMARK   11  A    between atoms: C_31  and  C_34
REMARK                            x       y       z     vdW  Elec       q    Type
REMARK                         _______ _______ _______ _____ _____    ______ ____
ROOT
ATOM      1  N   UNL     1       0.738  -1.962  -1.265  0.00  0.00    -0.328 N 
ATOM      2  C   UNL     1       1.336  -2.640  -2.311  0.00  0.00    +0.136 A 
ATOM      3  C   UNL     1       1.357  -4.049  -2.334  0.00  0.00    +0.096 A 
ATOM      4  C   UNL     1       1.974  -4.682  -3.414  0.00  0.00    +0.131 A 
ATOM      5  N   UNL     1       2.513  -3.944  -4.370  0.00  0.00    -0.222 NA
ATOM      6  C   UNL     1       2.475  -2.620  -4.316  0.00  0.00    +0.217 A 
ATOM      7  N   UNL     1       1.896  -1.974  -3.314  0.00  0.00    -0.199 NA
ATOM      8  N   UNL     1       3.052  -1.890  -5.338  0.00  0.00    -0.313 N 
ATOM      9  H   UNL     1       0.332  -2.457  -0.536  0.00  0.00    +0.147 HD
ATOM     10  H   UNL     1       3.032  -0.921  -5.314  0.00  0.00    +0.149 HD
ENDROOT
BRANCH   3  11
ATOM     11  C   UNL     1       0.744  -4.835  -1.245  0.00  0.00    +0.253 A 
ATOM     12  N   UNL     1       0.133  -4.354  -0.186  0.00  0.00    -0.107 NA
ATOM     13  N   UNL     1      -0.275  -5.329   0.547  0.00  0.00    -0.111 NA
ATOM     14  C   UNL     1       0.055  -6.460  -0.008  0.00  0.00    +0.232 A 
ATOM     15  O   UNL     1       0.700  -6.179  -1.155  0.00  0.00    -0.419 OA
BRANCH  14  16
ATOM     16  C   UNL     1      -0.239  -7.836   0.533  0.00  0.00    +0.182 C 
BRANCH  16  17
ATOM     17  N   UNL     1      -1.537  -8.297   0.022  0.00  0.00    -0.297 NA
ATOM     18  C   UNL     1      -1.487  -8.502  -1.433  0.00  0.00    +0.069 C 
ATOM     19  C   UNL     1      -2.870  -8.923  -1.933  0.00  0.00    -0.060 C 
ATOM     20  N   UNL     1      -3.279 -10.163  -1.260  0.00  0.00    +0.384 N 
ATOM     21  C   UNL     1      -3.348  -9.935   0.189  0.00  0.00    -0.060 C 
ATOM     22  C   UNL     1      -1.968  -9.523   0.707  0.00  0.00    +0.069 C 
ATOM     23  C   UNL     1      -3.790 -11.223   0.887  0.00  0.00    -0.012 C 
ATOM     24  C   UNL     1      -2.817  -9.157  -3.444  0.00  0.00    -0.012 C 
ATOM     25  H   UNL     1      -4.185 -10.447  -1.599  0.00  0.00    -0.085 HD
ATOM     26  H   UNL     1      -2.605 -10.888  -1.455  0.00  0.00    -0.085 HD
ENDBRANCH  16  17
ENDBRANCH  14  16
ENDBRANCH   3  11
BRANCH   1  27
ATOM     27  C   UNL     1       0.718  -0.497  -1.257  0.00  0.00    +0.102 C 
BRANCH  27  29
ATOM     28  C   UNL     1      -0.019   1.526   0.010  0.00  0.00    +0.005 C 
ATOM     29  C   UNL     1       0.002  -0.004   0.002  0.00  0.00    +0.015 C 
ENDBRANCH  27  29
ENDBRANCH   1  27
BRANCH   8  30
ATOM     30  C   UNL     1       3.693  -2.582  -6.460  0.00  0.00    +0.109 C 
BRANCH  30  31
ATOM     31  C   UNL     1       4.247  -1.550  -7.445  0.00  0.00    +0.054 C 
BRANCH  31  32
ATOM     32  C   UNL     1       4.907  -2.261  -8.598  0.00  0.00    -0.043 A 
ATOM     33  C   UNL     1       6.252  -2.595  -8.550  0.00  0.00    +0.023 A 
ATOM     34  C   UNL     1       6.823  -3.247  -9.627  0.00  0.00    +0.111 A 
ATOM     35  N   UNL     1       6.104  -3.550 -10.690  0.00  0.00    -0.263 NA
ATOM     36  C   UNL     1       4.823  -3.248 -10.771  0.00  0.00    +0.111 A 
ATOM     37  C   UNL     1       4.182  -2.602  -9.730  0.00  0.00    +0.023 A 
ENDBRANCH  31  32
ENDBRANCH  30  31
ENDBRANCH   8  30
TORSDOF 8
