REMARK  Name = ZINC02780224
REMARK  9 active torsions:
REMARK  status: ('A' for Active; 'I' for Inactive)
REMARK    1  A    between atoms: C_1  and  C_2
REMARK    2  A    between atoms: C_2  and  C_26
REMARK    3  A    between atoms: C_4  and  N_9
REMARK    4  A    between atoms: C_6  and  C_7
REMARK    5  A    between atoms: C_6  and  C_8
REMARK    6  A    between atoms: C_10  and  C_12
REMARK    7  A    between atoms: C_12  and  N_13
REMARK    8  A    between atoms: C_14  and  C_23
REMARK    9  A    between atoms: C_16  and  C_18
REMARK                            x       y       z     vdW  Elec       q    Type
REMARK                         _______ _______ _______ _____ _____    ______ ____
ROOT
ATOM      1  N   UNL     1       0.682   3.577  -2.811  0.00  0.00    -0.311 N 
ATOM      2  C   UNL     1       0.383   4.558  -3.684  0.00  0.00    +0.235 C 
ATOM      3  O   UNL     1      -0.367   5.454  -3.356  0.00  0.00    -0.274 OA
ATOM      4  H   UNL     1       1.282   2.860  -3.073  0.00  0.00    +0.149 HD
ENDROOT
BRANCH   1   8
ATOM      5  C   UNL     1      -3.080   1.901  -0.141  0.00  0.00    -0.010 C 
ATOM      6  C   UNL     1      -1.877   2.869  -0.096  0.00  0.00    -0.072 C 
ATOM      7  C   UNL     1      -1.261   2.901  -1.492  0.00  0.00    +0.009 C 
ATOM      8  C   UNL     1       0.102   3.592  -1.462  0.00  0.00    +0.070 C 
ATOM      9  C   UNL     1       1.016   2.812  -0.514  0.00  0.00    +0.009 C 
ATOM     10  C   UNL     1       0.428   2.821   0.897  0.00  0.00    -0.072 C 
ATOM     11  C   UNL     1       0.603   4.208   1.522  0.00  0.00    -0.010 C 
ATOM     12  C   UNL     1       1.249   1.826   1.748  0.00  0.00    -0.010 C 
ATOM     13  C   UNL     1      -2.426   4.258   0.253  0.00  0.00    -0.010 C 
ATOM     14  N   UNL     1      -0.983   2.353   0.975  0.00  0.00    +0.386 N 
ATOM     15  H   UNL     1      -0.982   1.328   0.922  0.00  0.00    -0.084 HD
ATOM     16  H   UNL     1      -1.367   2.649   1.880  0.00  0.00    -0.084 HD
ENDBRANCH   1   8
BRANCH   2  17
ATOM     17  C   UNL     1       0.978   4.543  -5.069  0.00  0.00    +0.239 C 
BRANCH  17  18
ATOM     18  N   UNL     1       0.501   5.707  -5.818  0.00  0.00    -0.257 N 
ATOM     19  C   UNL     1       1.094   6.920  -5.865  0.00  0.00    +0.062 A 
ATOM     20  C   UNL     1       0.344   7.715  -6.663  0.00  0.00    +0.094 A 
ATOM     21  C   UNL     1      -0.744   6.963  -7.120  0.00  0.00    +0.184 A 
ATOM     22  N   UNL     1      -0.648   5.758  -6.618  0.00  0.00    -0.165 NA
ATOM     23 CL   UNL     1       0.674   9.375  -7.052  0.00  0.00    -0.079 Cl
BRANCH  21  24
ATOM     24  C   UNL     1      -1.835   7.454  -8.037  0.00  0.00    +0.437 C 
ATOM     25  F   UNL     1      -1.467   7.221  -9.366  0.00  0.00    -0.164 F 
ATOM     26  F   UNL     1      -3.023   6.771  -7.755  0.00  0.00    -0.164 F 
ATOM     27  F   UNL     1      -2.027   8.826  -7.840  0.00  0.00    -0.164 F 
ENDBRANCH  21  24
BRANCH  19  28
ATOM     28  C   UNL     1       2.363   7.316  -5.155  0.00  0.00    +0.039 C 
ATOM     29  C   UNL     1       2.656   8.811  -5.015  0.00  0.00    +0.010 C 
ATOM     30  C   UNL     1       3.470   7.960  -5.993  0.00  0.00    +0.010 C 
ENDBRANCH  19  28
ENDBRANCH  17  18
ENDBRANCH   2  17
TORSDOF 5
