REMARK  Name = ZINC35644775
REMARK  9 active torsions:
REMARK  status: ('A' for Active; 'I' for Inactive)
REMARK    1  A    between atoms: C_1  and  C_2
REMARK    2  A    between atoms: C_2  and  C_4
REMARK    3  A    between atoms: C_2  and  C_9
REMARK    4  A    between atoms: C_4  and  C_5
REMARK    5  A    between atoms: C_5  and  C_6
REMARK    6  A    between atoms: C_15  and  C_37
REMARK    7  A    between atoms: C_16  and  O_36
REMARK    8  A    between atoms: C_23  and  O_35
REMARK    9  A    between atoms: C_28  and  C_34
REMARK                            x       y       z     vdW  Elec       q    Type
REMARK                         _______ _______ _______ _____ _____    ______ ____
ROOT
ATOM      1  C   UNL     1       0.829  -0.709   1.048  0.00  0.00    +0.001 C 
ATOM      2  C   UNL     1       0.866  -2.163   0.497  0.00  0.00    +0.005 C 
ATOM      3  C   UNL     1      -0.048  -3.010   1.428  0.00  0.00    +0.005 C 
ATOM      4  C   UNL     1      -0.883  -1.937   2.148  0.00  0.00    +0.003 C 
ATOM      5  C   UNL     1       0.195  -0.871   2.438  0.00  0.00    +0.000 C 
ATOM      6  C   UNL     1      -0.415   0.321   3.110  0.00  0.00    +0.121 C 
ATOM      7  C   UNL     1      -1.156  -0.085   4.394  0.00  0.00    +0.036 C 
ATOM      8  C   UNL     1      -1.263  -1.578   4.617  0.00  0.00    +0.003 C 
ATOM      9  C   UNL     1      -1.645  -2.361   3.368  0.00  0.00    +0.025 C 
ATOM     10  C   UNL     1      -1.505  -3.862   3.636  0.00  0.00    +0.118 C 
ATOM     11  C   UNL     1      -2.332  -4.239   4.870  0.00  0.00    +0.036 C 
ATOM     12  C   UNL     1      -3.166  -3.042   5.316  0.00  0.00    +0.005 C 
ATOM     13  C   UNL     1      -2.269  -1.883   5.742  0.00  0.00    -0.025 C 
ATOM     14  C   UNL     1      -3.129  -0.654   6.031  0.00  0.00    +0.015 C 
ATOM     15  C   UNL     1      -4.102  -0.935   7.178  0.00  0.00    +0.075 C 
ATOM     16  C   UNL     1      -4.856  -2.216   6.914  0.00  0.00    +0.134 C 
ATOM     17  O   UNL     1      -6.057  -2.263   7.060  0.00  0.00    -0.297 OA
ATOM     18  C   UNL     1      -4.094  -3.443   6.466  0.00  0.00    +0.078 C 
ATOM     19  C   UNL     1      -1.469  -2.252   6.995  0.00  0.00    +0.012 C 
ATOM     20  C   UNL     1       1.331  -1.435   3.315  0.00  0.00    +0.014 C 
ENDROOT
BRANCH   1  22
ATOM     21  C   UNL     1       0.766   0.279  -1.236  0.00  0.00    +0.008 C 
ATOM     22  C   UNL     1       0.035   0.178   0.103  0.00  0.00    -0.010 C 
BRANCH  22  23
ATOM     23  C   UNL     1      -1.353  -0.426  -0.118  0.00  0.00    +0.015 C 
BRANCH  23  24
ATOM     24  C   UNL     1      -2.033   0.276  -1.295  0.00  0.00    +0.125 C 
BRANCH  24  25
ATOM     25  C   UNL     1      -3.400  -0.319  -1.513  0.00  0.00    +0.356 C 
ATOM     26  O   UNL     1      -3.795  -1.221  -0.794  0.00  0.00    -0.246 OA
ATOM     27  O   UNL     1      -4.112   0.101  -2.409  0.00  0.00    -0.246 OA
ENDBRANCH  24  25
ENDBRANCH  23  24
ENDBRANCH  22  23
ENDBRANCH   1  22
BRANCH  10  28
ATOM     28  O   UNL     1      -2.004  -4.595   2.512  0.00  0.00    -0.391 OA
ATOM     29  H   UNL     1      -1.947  -5.555   2.612  0.00  0.00    +0.210 HD
ENDBRANCH  10  28
BRANCH   6  30
ATOM     30  O   UNL     1      -1.355   1.006   2.271  0.00  0.00    -0.391 OA
ATOM     31  H   UNL     1      -1.701   1.824   2.654  0.00  0.00    +0.210 HD
ENDBRANCH   6  30
TORSDOF 6
