REMARK  Name = ZINC39668921
REMARK  4 active torsions:
REMARK  status: ('A' for Active; 'I' for Inactive)
REMARK    1  A    between atoms: C_10  and  C_12
REMARK    2  A    between atoms: C_12  and  N_13
REMARK    3  A    between atoms: C_14  and  C_16
REMARK    4  A    between atoms: C_27  and  C_29
REMARK                            x       y       z     vdW  Elec       q    Type
REMARK                         _______ _______ _______ _____ _____    ______ ____
ROOT
ATOM      1  C   UNL     1       8.206  -0.332  -1.514  0.00  0.00    +0.100 C 
ATOM      2  C   UNL     1       9.041  -0.466  -0.221  0.00  0.00    +0.121 C 
ATOM      3  N   UNL     1      10.449  -0.371  -0.673  0.00  0.00    -0.296 N 
ATOM      4  C   UNL     1      10.429   0.673  -1.726  0.00  0.00    +0.115 C 
ATOM      5  C   UNL     1       9.120   0.417  -2.498  0.00  0.00    -0.004 C 
ATOM      6  C   UNL     1       8.483   1.741  -2.909  0.00  0.00    -0.010 C 
ATOM      7  C   UNL     1       9.382   2.439  -3.933  0.00  0.00    -0.082 C 
ATOM      8  N   UNL     1       9.557   1.573  -5.105  0.00  0.00    +0.379 N 
ATOM      9  C   UNL     1      10.255   0.341  -4.717  0.00  0.00    -0.082 C 
ATOM     10  C   UNL     1       9.392  -0.446  -3.727  0.00  0.00    -0.010 C 
ATOM     11  C   UNL     1      11.509  -1.076  -0.228  0.00  0.00    +0.247 C 
ATOM     12  O   UNL     1      11.345  -1.992   0.553  0.00  0.00    -0.270 OA
ATOM     13  H   UNL     1       8.653   1.340  -5.487  0.00  0.00    -0.086 HD
ATOM     14  H   UNL     1      10.099   2.059  -5.803  0.00  0.00    -0.086 HD
ENDROOT
BRANCH  11  15
ATOM     15  C   UNL     1      12.871  -0.733  -0.691  0.00  0.00    +0.038 A 
ATOM     16  C   UNL     1      13.135   0.532  -1.218  0.00  0.00    +0.013 A 
ATOM     17  C   UNL     1      14.407   0.845  -1.648  0.00  0.00    +0.002 A 
ATOM     18  C   UNL     1      15.422  -0.091  -1.558  0.00  0.00    +0.015 A 
ATOM     19  C   UNL     1      15.167  -1.348  -1.036  0.00  0.00    +0.019 A 
ATOM     20  C   UNL     1      13.899  -1.672  -0.597  0.00  0.00    +0.028 A 
ATOM     21 BR   UNL     1      16.561  -2.621  -0.919  0.00  0.00    -0.050 Br
ENDBRANCH  11  15
BRANCH   1  23
ATOM     22  N   UNL     1       5.839   0.225  -1.966  0.00  0.00    -0.312 N 
ATOM     23  C   UNL     1       6.955   0.466  -1.250  0.00  0.00    +0.218 C 
ATOM     24  O   UNL     1       6.952   1.323  -0.393  0.00  0.00    -0.275 OA
ATOM     25  H   UNL     1       5.841  -0.461  -2.652  0.00  0.00    +0.149 HD
BRANCH  22  26
ATOM     26  C   UNL     1       4.622   1.000  -1.710  0.00  0.00    +0.140 C 
BRANCH  26  36
ATOM     27  C   UNL     1      -0.029   2.781  -1.823  0.00  0.00    +0.000 A 
ATOM     28  C   UNL     1       0.747   2.288  -0.790  0.00  0.00    +0.000 A 
ATOM     29  C   UNL     1       1.888   1.565  -1.071  0.00  0.00    +0.006 A 
ATOM     30  C   UNL     1       2.262   1.331  -2.386  0.00  0.00    -0.014 A 
ATOM     31  C   UNL     1       1.490   1.826  -3.416  0.00  0.00    -0.040 A 
ATOM     32  C   UNL     1       0.343   2.550  -3.132  0.00  0.00    +0.004 A 
ATOM     33  C   UNL     1       1.871   1.604  -4.857  0.00  0.00    +0.063 C 
ATOM     34  C   UNL     1       2.889   0.467  -4.955  0.00  0.00    +0.165 C 
ATOM     35  O   UNL     1       3.933   0.710  -4.004  0.00  0.00    -0.370 OA
ATOM     36  C   UNL     1       3.511   0.532  -2.652  0.00  0.00    +0.165 C 
ENDBRANCH  26  36
ENDBRANCH  22  26
ENDBRANCH   1  23
TORSDOF 4
