REMARK  Name = ZINC06820915
REMARK  7 active torsions:
REMARK  status: ('A' for Active; 'I' for Inactive)
REMARK    1  A    between atoms: C_1  and  C_2
REMARK    2  A    between atoms: N_4  and  CA_5
REMARK    3  A    between atoms: CA_5  and  C_17
REMARK    4  A    between atoms: C_6  and  C_7
REMARK    5  A    between atoms: C_9  and  O_15
REMARK    6  A    between atoms: C_10  and  O_14
REMARK    7  A    between atoms: O_15  and  C_16
REMARK                            x       y       z     vdW  Elec       q    Type
REMARK                         _______ _______ _______ _____ _____    ______ ____
ROOT
ATOM      1  C   UNL     1      -3.709  -1.881  -0.182  0.00  0.00    -0.018 A 
ATOM      2  C   UNL     1      -5.003  -2.401  -0.048  0.00  0.00    +0.057 A 
ATOM      3  C   UNL     1      -6.092  -1.555  -0.114  0.00  0.00    +0.163 A 
ATOM      4  C   UNL     1      -5.904  -0.188  -0.312  0.00  0.00    +0.172 A 
ATOM      5  C   UNL     1      -4.621   0.329  -0.444  0.00  0.00    +0.059 A 
ATOM      6  C   UNL     1      -3.527  -0.507  -0.374  0.00  0.00    +0.026 A 
ATOM      7  I   UNL     1      -4.349   2.385  -0.741  0.00  0.00    -0.040 I 
ENDROOT
BRANCH   1   9
ATOM      8  CA  UNL     1      -1.312  -2.266   0.134  0.00  0.00    +0.123 C 
ATOM      9  C   UNL     1      -2.546  -2.775  -0.113  0.00  0.00    +0.038 C 
BRANCH   8  13
ATOM     10  C   UNL     1      -0.285   1.356   0.030  0.00  0.00    +0.109 C 
ATOM     11  C   UNL     1      -0.364  -0.120  -0.267  0.00  0.00    +0.214 C 
ATOM     12  O   UNL     1       0.296  -0.593  -1.168  0.00  0.00    -0.276 OA
ATOM     13  N   UNL     1      -1.167  -0.913   0.469  0.00  0.00    -0.280 N 
ATOM     14  H   UNL     1      -1.645  -0.548   1.230  0.00  0.00    +0.155 HD
ENDBRANCH   8  13
BRANCH   8  15
ATOM     15  C   UNL     1      -0.134  -3.130   0.051  0.00  0.00    +0.400 C 
ATOM     16  O   UNL     1      -0.264  -4.320  -0.207  0.00  0.00    -0.239 OA
ATOM     17  OXT UNL     1       0.982  -2.663   0.240  0.00  0.00    -0.239 OA
ENDBRANCH   8  15
ENDBRANCH   1   9
BRANCH   4  18
ATOM     18  O   UNL     1      -6.978   0.641  -0.376  0.00  0.00    -0.503 OA
ATOM     19  H   UNL     1      -7.247   1.002   0.480  0.00  0.00    +0.292 HD
ENDBRANCH   4  18
BRANCH   3  20
ATOM     20  O   UNL     1      -7.350  -2.057   0.015  0.00  0.00    -0.491 OA
ATOM     21  C   UNL     1      -7.469  -3.466   0.215  0.00  0.00    +0.277 C 
ENDBRANCH   3  20
TORSDOF 5
