REMARK  Name = ZINC35642090
REMARK  16 active torsions:
REMARK  status: ('A' for Active; 'I' for Inactive)
REMARK    1  A    between atoms: C_1  and  C_2
REMARK    2  A    between atoms: C_2  and  N_3
REMARK    3  A    between atoms: C_4  and  C_26
REMARK    4  A    between atoms: C_5  and  C_21
REMARK    5  A    between atoms: C_6  and  C_11
REMARK    6  A    between atoms: C_13  and  O_19
REMARK    7  A    between atoms: C_15  and  O_17
REMARK    8  A    between atoms: O_17  and  C_18
REMARK    9  A    between atoms: O_19  and  C_20
REMARK   10  A    between atoms: C_21  and  O_23
REMARK   11  A    between atoms: O_23  and  C_24
REMARK   12  A    between atoms: C_24  and  C_25
REMARK   13  A    between atoms: C_26  and  N_27
REMARK   14  A    between atoms: C_34  and  C_36
REMARK   15  A    between atoms: C_36  and  C_37
REMARK   16  A    between atoms: C_36  and  C_38
REMARK                            x       y       z     vdW  Elec       q    Type
REMARK                         _______ _______ _______ _____ _____    ______ ____
ROOT
ATOM      1  N   UNL     1       0.092  -2.792  -3.231  0.00  0.00    -0.261 N 
ATOM      2  C   UNL     1      -0.922  -3.623  -3.612  0.00  0.00    +0.010 C 
ATOM      3  C   UNL     1      -0.671  -4.765  -4.289  0.00  0.00    +0.076 C 
ATOM      4  C   UNL     1       0.773  -5.091  -4.611  0.00  0.00    +0.144 C 
ATOM      5  N   UNL     1       1.791  -4.129  -4.157  0.00  0.00    -0.288 N 
ATOM      6  C   UNL     1       1.384  -3.029  -3.494  0.00  0.00    +0.307 C 
ATOM      7  O   UNL     1       2.216  -2.227  -3.118  0.00  0.00    -0.252 OA
ATOM      8  H   UNL     1       2.733  -4.282  -4.333  0.00  0.00    +0.151 HD
ENDROOT
BRANCH   4   9
ATOM      9  C   UNL     1       0.896  -5.225  -6.107  0.00  0.00    -0.016 A 
ATOM     10  C   UNL     1       0.997  -4.094  -6.895  0.00  0.00    +0.051 A 
ATOM     11  C   UNL     1       1.110  -4.215  -8.273  0.00  0.00    +0.124 A 
ATOM     12  C   UNL     1       1.123  -5.471  -8.858  0.00  0.00    +0.091 A 
ATOM     13  C   UNL     1       1.022  -6.604  -8.066  0.00  0.00    +0.124 A 
ATOM     14  C   UNL     1       0.914  -6.478  -6.688  0.00  0.00    +0.051 A 
BRANCH  13  15
ATOM     15  O   UNL     1       1.033  -7.837  -8.637  0.00  0.00    -0.495 OA
ATOM     16  C   UNL     1       1.152  -7.891 -10.060  0.00  0.00    +0.277 C 
ENDBRANCH  13  15
BRANCH  11  17
ATOM     17  O   UNL     1       1.209  -3.102  -9.047  0.00  0.00    -0.495 OA
ATOM     18  C   UNL     1       1.323  -3.301 -10.457  0.00  0.00    +0.277 C 
ENDBRANCH  11  17
ENDBRANCH   4   9
BRANCH   1  20
ATOM     19  C   UNL     1      -0.449  -0.421  -3.491  0.00  0.00    +0.025 C 
ATOM     20  C   UNL     1      -0.252  -1.571  -2.500  0.00  0.00    +0.111 C 
ENDBRANCH   1  20
BRANCH   3  21
ATOM     21  C   UNL     1      -1.721  -5.627  -4.683  0.00  0.00    +0.339 C 
ATOM     22  O   UNL     1      -2.879  -5.295  -4.510  0.00  0.00    -0.245 OA
BRANCH  21  23
ATOM     23  O   UNL     1      -1.439  -6.818  -5.250  0.00  0.00    -0.462 OA
BRANCH  23  24
ATOM     24  C   UNL     1      -2.548  -7.638  -5.623  0.00  0.00    +0.229 C 
ATOM     25  C   UNL     1      -2.035  -8.938  -6.246  0.00  0.00    +0.048 C 
ENDBRANCH  23  24
ENDBRANCH  21  23
ENDBRANCH   3  21
BRANCH   2  26
ATOM     26  C   UNL     1      -2.345  -3.261  -3.271  0.00  0.00    -0.026 C 
BRANCH  26  27
ATOM     27  N   UNL     1      -2.778  -4.031  -2.098  0.00  0.00    +0.384 N 
ATOM     28  C   UNL     1      -4.226  -3.890  -1.963  0.00  0.00    -0.077 C 
ATOM     29  C   UNL     1      -4.790  -5.133  -1.310  0.00  0.00    +0.000 C 
ATOM     30  C   UNL     1      -4.882  -4.916   0.211  0.00  0.00    +0.106 C 
ATOM     31  N   UNL     1      -3.701  -4.188   0.716  0.00  0.00    -0.303 N 
ATOM     32  C   UNL     1      -2.358  -4.472   0.253  0.00  0.00    +0.089 C 
ATOM     33  C   UNL     1      -2.031  -3.598  -0.979  0.00  0.00    -0.059 C 
ATOM     34  C   UNL     1      -3.879  -3.223   1.640  0.00  0.00    +0.218 C 
ATOM     35  O   UNL     1      -2.936  -2.556   2.009  0.00  0.00    -0.275 OA
ATOM     36  H   UNL     1      -2.569  -5.004  -2.262  0.00  0.00    -0.081 HD
BRANCH  34  37
ATOM     37  C   UNL     1      -5.250  -2.972   2.214  0.00  0.00    +0.069 C 
ATOM     38  C   UNL     1      -5.122  -2.154   3.501  0.00  0.00    +0.017 C 
ATOM     39  C   UNL     1      -6.094  -2.199   1.199  0.00  0.00    +0.017 C 
ENDBRANCH  34  37
ENDBRANCH  26  27
ENDBRANCH   2  26
TORSDOF 10
