REMARK  Name = ZINC09580169
REMARK  8 active torsions:
REMARK  status: ('A' for Active; 'I' for Inactive)
REMARK    1  A    between atoms: C_1  and  C_2
REMARK    2  A    between atoms: C_2  and  C_25
REMARK    3  A    between atoms: N_5  and  C_9
REMARK    4  A    between atoms: C_9  and  C_10
REMARK    5  A    between atoms: N_12  and  C_13
REMARK    6  A    between atoms: C_13  and  C_14
REMARK    7  A    between atoms: C_19  and  C_20
REMARK    8  A    between atoms: C_20  and  N_65
REMARK                            x       y       z     vdW  Elec       q    Type
REMARK                         _______ _______ _______ _____ _____    ______ ____
ROOT
ATOM      1  C   UNL     1      -5.410   0.796   1.494  0.00  0.00    +0.047 C 
ATOM      2  C   UNL     1      -4.940   1.037   0.058  0.00  0.00    +0.135 C 
ATOM      3  C   UNL     1      -5.989   1.799  -0.729  0.00  0.00    +0.251 C 
ATOM      4  O   UNL     1      -6.416   2.909  -0.496  0.00  0.00    -0.272 OA
ATOM      5  N   UNL     1      -6.350   0.984  -1.740  0.00  0.00    -0.215 N 
ATOM      6  C   UNL     1      -5.681  -0.175  -1.702  0.00  0.00    +0.310 C 
ATOM      7  O   UNL     1      -5.835  -1.070  -2.509  0.00  0.00    -0.252 OA
ATOM      8  N   UNL     1      -4.821  -0.238  -0.670  0.00  0.00    -0.281 N 
ATOM      9  H   UNL     1      -4.235  -0.979  -0.448  0.00  0.00    +0.152 HD
ENDROOT
BRANCH   2  10
ATOM     10  C   UNL     1      -3.628   1.779   0.048  0.00  0.00    -0.015 A 
ATOM     11  C   UNL     1      -3.627   3.172   0.055  0.00  0.00    +0.007 A 
ATOM     12  C   UNL     1      -2.460   3.873   0.047  0.00  0.00    +0.009 A 
ATOM     13  C   UNL     1      -1.236   3.183   0.031  0.00  0.00    -0.018 A 
ATOM     14  C   UNL     1      -0.011   3.871   0.023  0.00  0.00    +0.008 A 
ATOM     15  C   UNL     1       1.155   3.170   0.008  0.00  0.00    +0.001 A 
ATOM     16  C   UNL     1       1.155   1.776   0.001  0.00  0.00    +0.001 A 
ATOM     17  C   UNL     1      -0.013   1.076   0.008  0.00  0.00    +0.008 A 
ATOM     18  C   UNL     1      -1.237   1.766   0.018  0.00  0.00    -0.018 A 
ATOM     19  C   UNL     1      -2.462   1.077   0.032  0.00  0.00    +0.014 A 
ENDBRANCH   2  10
BRANCH   5  20
ATOM     20  C   UNL     1      -7.350   1.324  -2.754  0.00  0.00    +0.213 C 
BRANCH  20  21
ATOM     21  C   UNL     1      -8.712   0.879  -2.285  0.00  0.00    +0.231 C 
ATOM     22  O   UNL     1      -8.834   0.332  -1.210  0.00  0.00    -0.274 OA
ATOM     23  N   UNL     1      -9.794   1.089  -3.062  0.00  0.00    -0.310 N 
ATOM     24  H   UNL     1      -9.696   1.527  -3.922  0.00  0.00    +0.149 HD
BRANCH  23  25
ATOM     25  C   UNL     1     -11.117   0.657  -2.606  0.00  0.00    +0.139 C 
BRANCH  25  26
ATOM     26  C   UNL     1     -12.146   1.007  -3.650  0.00  0.00    -0.029 A 
ATOM     27  C   UNL     1     -12.937   2.130  -3.492  0.00  0.00    +0.005 A 
ATOM     28  C   UNL     1     -13.878   2.453  -4.451  0.00  0.00    +0.000 A 
ATOM     29  C   UNL     1     -14.036   1.648  -5.564  0.00  0.00    +0.000 A 
ATOM     30  C   UNL     1     -13.248   0.522  -5.720  0.00  0.00    +0.002 A 
ATOM     31  C   UNL     1     -12.304   0.202  -4.762  0.00  0.00    -0.059 A 
BRANCH  31  32
ATOM     32  C   UNL     1     -11.447  -1.026  -4.931  0.00  0.00    -0.043 C 
BRANCH  32  37
ATOM     33  C   UNL     1     -13.430  -2.330  -4.389  0.00  0.00    -0.078 C 
ATOM     34  C   UNL     1     -13.680  -3.773  -3.881  0.00  0.00    -0.020 C 
ATOM     35  C   UNL     1     -12.378  -4.508  -4.273  0.00  0.00    -0.020 C 
ATOM     36  C   UNL     1     -11.321  -3.400  -4.428  0.00  0.00    -0.078 C 
ATOM     37  N   UNL     1     -11.998  -2.143  -4.106  0.00  0.00    +0.382 N 
ATOM     38  H   UNL     1     -11.867  -1.923  -3.112  0.00  0.00    -0.081 HD
ENDBRANCH  32  37
ENDBRANCH  31  32
ENDBRANCH  25  26
ENDBRANCH  23  25
ENDBRANCH  20  21
ENDBRANCH   5  20
TORSDOF 7
