REMARK  Name = ZINC05193043
REMARK  3 active torsions:
REMARK  status: ('A' for Active; 'I' for Inactive)
REMARK    1  A    between atoms: C_4  and  N_7
REMARK    2  A    between atoms: C_9  and  N_14
REMARK    3  A    between atoms: C_15  and  C_17
REMARK                            x       y       z     vdW  Elec       q    Type
REMARK                         _______ _______ _______ _____ _____    ______ ____
ROOT
ATOM      1  N   UNL     1       1.947   2.117   1.355  0.00  0.00    -0.310 N 
ATOM      2  C   UNL     1       2.984   2.949   1.576  0.00  0.00    +0.219 C 
ATOM      3  O   UNL     1       3.513   3.519   0.645  0.00  0.00    -0.275 OA
ATOM      4  H   UNL     1       1.524   1.661   2.099  0.00  0.00    +0.149 HD
ENDROOT
BRANCH   2   5
ATOM      5  C   UNL     1       3.485   3.172   2.979  0.00  0.00    +0.048 C 
ATOM      6  C   UNL     1       2.358   3.748   3.838  0.00  0.00    +0.019 C 
ATOM      7  C   UNL     1       2.868   3.974   5.263  0.00  0.00    -0.009 C 
ATOM      8  C   UNL     1       4.041   4.956   5.236  0.00  0.00    +0.007 C 
ATOM      9  C   UNL     1       5.168   4.379   4.377  0.00  0.00    -0.009 C 
ATOM     10  C   UNL     1       4.659   4.153   2.952  0.00  0.00    +0.019 C 
ATOM     11  C   UNL     1       5.631   3.047   4.970  0.00  0.00    +0.007 C 
ATOM     12  C   UNL     1       4.457   2.065   4.997  0.00  0.00    -0.009 C 
ATOM     13  C   UNL     1       3.330   2.642   5.856  0.00  0.00    +0.007 C 
ATOM     14  C   UNL     1       3.948   1.839   3.572  0.00  0.00    +0.019 C 
ENDBRANCH   2   5
BRANCH   1  17
ATOM     15  N   UNL     1       0.002  -0.004   0.002  0.00  0.00    -0.270 N 
ATOM     16  C   UNL     1      -0.022   1.463  -0.005  0.00  0.00    +0.136 C 
ATOM     17  C   UNL     1       1.459   1.900  -0.010  0.00  0.00    +0.099 C 
ATOM     18  C   UNL     1       2.147   0.675  -0.656  0.00  0.00    +0.120 C 
ATOM     19  C   UNL     1       1.207  -0.474  -0.365  0.00  0.00    +0.222 C 
ATOM     20  O   UNL     1       1.498  -1.648  -0.451  0.00  0.00    -0.275 OA
BRANCH  15  24
ATOM     21  C   UNL     1      -3.246  -2.405   1.025  0.00  0.00    +0.000 A 
ATOM     22  C   UNL     1      -3.332  -1.032   1.164  0.00  0.00    +0.002 A 
ATOM     23  C   UNL     1      -2.257  -0.233   0.826  0.00  0.00    +0.023 A 
ATOM     24  C   UNL     1      -1.089  -0.810   0.346  0.00  0.00    +0.036 A 
ATOM     25  C   UNL     1      -1.007  -2.189   0.202  0.00  0.00    +0.023 A 
ATOM     26  C   UNL     1      -2.084  -2.983   0.548  0.00  0.00    +0.002 A 
ENDBRANCH  15  24
ENDBRANCH   1  17
TORSDOF 3
