REMARK  Name = ZINC40913716
REMARK  10 active torsions:
REMARK  status: ('A' for Active; 'I' for Inactive)
REMARK    1  A    between atoms: C_1  and  C_2
REMARK    2  A    between atoms: C_2  and  C_3
REMARK    3  A    between atoms: C_2  and  O_4
REMARK    4  A    between atoms: O_4  and  C_5
REMARK    5  A    between atoms: C_9  and  C_25
REMARK    6  A    between atoms: C_10  and  N_11
REMARK    7  A    between atoms: C_12  and  C_14
REMARK    8  A    between atoms: C_17  and  C_20
REMARK    9  A    between atoms: N_22  and  C_23
REMARK   10  A    between atoms: N_22  and  C_24
REMARK                            x       y       z     vdW  Elec       q    Type
REMARK                         _______ _______ _______ _____ _____    ______ ____
ROOT
ATOM      1  C   UNL     1       0.041   0.503   1.920  0.00  0.00    +0.144 A 
ATOM      2  C   UNL     1      -1.235   1.037   1.870  0.00  0.00    +0.067 A 
ATOM      3  C   UNL     1      -1.954   1.245   3.036  0.00  0.00    +0.045 A 
ATOM      4  C   UNL     1      -1.406   0.922   4.260  0.00  0.00    +0.035 A 
ATOM      5  C   UNL     1      -0.118   0.383   4.328  0.00  0.00    +0.063 A 
ATOM      6  C   UNL     1       0.607   0.166   3.148  0.00  0.00    +0.088 A 
ATOM      7 CL   UNL     1      -3.553   1.917   2.957  0.00  0.00    -0.083 Cl
ENDROOT
BRANCH   5   8
ATOM      8  C   UNL     1       0.472   0.037   5.635  0.00  0.00    +0.251 C 
ATOM      9  O   UNL     1       1.628  -0.335   5.701  0.00  0.00    -0.270 OA
ATOM     10  N   UNL     1      -0.270   0.132   6.756  0.00  0.00    -0.266 N 
ATOM     11  C   UNL     1       0.317  -0.088   8.001  0.00  0.00    +0.125 A 
ATOM     12  C   UNL     1      -0.476  -0.102   9.143  0.00  0.00    +0.045 A 
ATOM     13  C   UNL     1       0.119  -0.321  10.373  0.00  0.00    +0.025 A 
ATOM     14  C   UNL     1       1.493  -0.519  10.418  0.00  0.00    +0.059 A 
ATOM     15  C   UNL     1       2.219  -0.492   9.242  0.00  0.00    +0.132 A 
ATOM     16  N   UNL     1       1.623  -0.286   8.084  0.00  0.00    -0.239 NA
ATOM     17 CL   UNL     1       2.290  -0.797  11.935  0.00  0.00    -0.082 Cl
ATOM     18  H   UNL     1      -1.213   0.353   6.696  0.00  0.00    +0.157 HD
ENDBRANCH   5   8
BRANCH   6  19
ATOM     19  N   UNL     1       1.889  -0.377   3.203  0.00  0.00    -0.278 N 
ATOM     20  C   UNL     1       2.835   0.037   2.337  0.00  0.00    +0.248 C 
ATOM     21  O   UNL     1       2.587   0.929   1.548  0.00  0.00    -0.270 OA
ATOM     22  H   UNL     1       2.101  -1.053   3.865  0.00  0.00    +0.155 HD
BRANCH  20  23
ATOM     23  C   UNL     1       4.172  -0.593   2.345  0.00  0.00    +0.037 A 
ATOM     24  C   UNL     1       4.455  -1.621   3.246  0.00  0.00    +0.014 A 
ATOM     25  C   UNL     1       5.701  -2.207   3.254  0.00  0.00    +0.012 A 
ATOM     26  C   UNL     1       6.681  -1.774   2.360  0.00  0.00    +0.013 A 
ATOM     27  C   UNL     1       6.400  -0.747   1.459  0.00  0.00    +0.012 A 
ATOM     28  C   UNL     1       5.152  -0.164   1.447  0.00  0.00    +0.014 A 
BRANCH  26  29
ATOM     29  C   UNL     1       8.022  -2.406   2.368  0.00  0.00    +0.099 C 
ATOM     30  N   UNL     1       8.568  -2.758   3.496  0.00  0.00    -0.386 N 
ATOM     31  N   UNL     1       8.690  -2.619   1.182  0.00  0.00    -0.323 N 
ATOM     32  C   UNL     1       8.023  -2.348  -0.093  0.00  0.00    +0.130 C 
ATOM     33  C   UNL     1      10.067  -3.118   1.197  0.00  0.00    +0.130 C 
ATOM     34  H   UNL     1       9.477  -3.097   3.510  0.00  0.00    +0.157 HD
ATOM     35  H   UNL     1       8.066  -2.682   4.323  0.00  0.00    +0.157 HD
ENDBRANCH  26  29
ENDBRANCH  20  23
ENDBRANCH   6  19
BRANCH   1  36
ATOM     36  O   UNL     1       0.740   0.302   0.772  0.00  0.00    -0.487 OA
BRANCH  36  38
ATOM     37  C   UNL     1       0.365   2.218  -0.653  0.00  0.00    +0.051 C 
ATOM     38  C   UNL     1       0.122   0.722  -0.446  0.00  0.00    +0.167 C 
ATOM     39  C   UNL     1       0.721  -0.059  -1.618  0.00  0.00    +0.051 C 
ENDBRANCH  36  38
ENDBRANCH   1  36
TORSDOF 6
