REMARK  Name = ZINC33582489
REMARK  12 active torsions:
REMARK  status: ('A' for Active; 'I' for Inactive)
REMARK    1  A    between atoms: C_1  and  C_2
REMARK    2  A    between atoms: C_2  and  C_3
REMARK    3  A    between atoms: C_3  and  C_4
REMARK    4  A    between atoms: C_4  and  N_5
REMARK    5  A    between atoms: N_5  and  C_6
REMARK    6  A    between atoms: C_6  and  C_7
REMARK    7  A    between atoms: C_21  and  C_23
REMARK    8  A    between atoms: C_26  and  O_29
REMARK    9  A    between atoms: O_29  and  C_30
REMARK   10  A    between atoms: C_31  and  C_33
REMARK   11  A    between atoms: C_36  and  O_39
REMARK   12  A    between atoms: O_39  and  C_40
REMARK                            x       y       z     vdW  Elec       q    Type
REMARK                         _______ _______ _______ _____ _____    ______ ____
ROOT
ATOM      1  C   UNL     1      -3.164  -5.056  -1.655  0.00  0.00    +0.238 C 
ATOM      2  O   UNL     1      -3.619  -3.938  -1.536  0.00  0.00    -0.273 OA
ATOM      3  N   UNL     1      -3.508  -5.814  -2.715  0.00  0.00    -0.255 N 
ATOM      4  C   UNL     1      -4.311  -5.276  -3.730  0.00  0.00    +0.061 A 
ATOM      5  C   UNL     1      -4.275  -3.919  -4.011  0.00  0.00    +0.025 A 
ATOM      6  C   UNL     1      -5.080  -3.399  -5.007  0.00  0.00    +0.002 A 
ATOM      7  C   UNL     1      -5.924  -4.225  -5.728  0.00  0.00    +0.002 A 
ATOM      8  C   UNL     1      -5.965  -5.582  -5.458  0.00  0.00    +0.028 A 
ATOM      9  C   UNL     1      -5.160  -6.108  -4.467  0.00  0.00    +0.068 A 
ATOM     10  N   UNL     1      -5.148  -7.479  -4.173  0.00  0.00    -0.316 N 
ATOM     11  C   UNL     1      -6.004  -8.460  -4.549  0.00  0.00    +0.092 A 
ATOM     12  C   UNL     1      -5.575  -9.623  -4.008  0.00  0.00    +0.020 A 
ATOM     13  C   UNL     1      -4.405  -9.343  -3.269  0.00  0.00    +0.025 A 
ATOM     14  C   UNL     1      -4.162  -8.033  -3.386  0.00  0.00    +0.049 A 
ATOM     15  C   UNL     1      -3.034  -7.205  -2.809  0.00  0.00    +0.159 C 
ENDROOT
BRANCH  15  16
ATOM     16  C   UNL     1      -1.830  -7.275  -3.712  0.00  0.00    -0.021 A 
ATOM     17  C   UNL     1      -1.791  -6.521  -4.870  0.00  0.00    +0.009 A 
ATOM     18  C   UNL     1      -0.686  -6.579  -5.697  0.00  0.00    +0.046 A 
ATOM     19  C   UNL     1       0.381  -7.403  -5.370  0.00  0.00    +0.120 A 
ATOM     20  C   UNL     1       0.337  -8.163  -4.210  0.00  0.00    +0.046 A 
ATOM     21  C   UNL     1      -0.768  -8.097  -3.384  0.00  0.00    +0.009 A 
BRANCH  19  22
ATOM     22  O   UNL     1       1.467  -7.466  -6.184  0.00  0.00    -0.495 OA
ATOM     23  C   UNL     1       1.443  -6.656  -7.361  0.00  0.00    +0.277 C 
ENDBRANCH  19  22
ENDBRANCH  15  16
BRANCH   1  24
ATOM     24  C   UNL     1      -2.215  -5.598  -0.618  0.00  0.00    +0.204 C 
BRANCH  24  25
ATOM     25  N   UNL     1      -1.933  -4.559   0.376  0.00  0.00    -0.289 N 
ATOM     26  C   UNL     1      -0.819  -3.808   0.268  0.00  0.00    +0.247 C 
ATOM     27  O   UNL     1      -0.533  -3.015   1.144  0.00  0.00    -0.270 OA
BRANCH  26  28
ATOM     28  C   UNL     1       0.055  -3.948  -0.914  0.00  0.00    +0.037 A 
ATOM     29  C   UNL     1       1.440  -4.029  -0.755  0.00  0.00    +0.016 A 
ATOM     30  C   UNL     1       2.251  -4.164  -1.860  0.00  0.00    +0.046 A 
ATOM     31  C   UNL     1       1.694  -4.210  -3.132  0.00  0.00    +0.120 A 
ATOM     32  C   UNL     1       0.316  -4.125  -3.295  0.00  0.00    +0.046 A 
ATOM     33  C   UNL     1      -0.502  -3.995  -2.195  0.00  0.00    +0.016 A 
BRANCH  31  34
ATOM     34  O   UNL     1       2.496  -4.338  -4.219  0.00  0.00    -0.495 OA
ATOM     35  C   UNL     1       3.903  -4.420  -3.980  0.00  0.00    +0.277 C 
ENDBRANCH  31  34
ENDBRANCH  26  28
BRANCH  25  36
ATOM     36  C   UNL     1      -2.861  -4.337   1.487  0.00  0.00    +0.108 C 
BRANCH  36  37
ATOM     37  C   UNL     1      -2.535  -5.305   2.626  0.00  0.00    +0.019 C 
BRANCH  37  39
ATOM     38  C   UNL     1      -3.179  -6.040   4.925  0.00  0.00    +0.004 C 
ATOM     39  C   UNL     1      -3.505  -5.072   3.786  0.00  0.00    -0.002 C 
ENDBRANCH  37  39
ENDBRANCH  36  37
ENDBRANCH  25  36
ENDBRANCH  24  25
ENDBRANCH   1  24
TORSDOF 9
