REMARK  Name = ZINC39688504
REMARK  7 active torsions:
REMARK  status: ('A' for Active; 'I' for Inactive)
REMARK    1  A    between atoms: C_1  and  C_2
REMARK    2  A    between atoms: C_2  and  C_4
REMARK    3  A    between atoms: C_2  and  N_12
REMARK    4  A    between atoms: C_4  and  C_5
REMARK    5  A    between atoms: C_13  and  C_15
REMARK    6  A    between atoms: C_26  and  C_28
REMARK    7  A    between atoms: C_32  and  C_34
REMARK                            x       y       z     vdW  Elec       q    Type
REMARK                         _______ _______ _______ _____ _____    ______ ____
ROOT
ATOM      1  C   UNL     1       1.302  -1.378   3.952  0.00  0.00    +0.100 C 
ATOM      2  C   UNL     1       2.314  -0.217   4.078  0.00  0.00    +0.121 C 
ATOM      3  N   UNL     1       1.699   0.712   5.054  0.00  0.00    -0.296 N 
ATOM      4  C   UNL     1       1.089  -0.175   6.074  0.00  0.00    +0.115 C 
ATOM      5  C   UNL     1       0.503  -1.349   5.265  0.00  0.00    -0.004 C 
ATOM      6  C   UNL     1       0.688  -2.659   6.025  0.00  0.00    -0.010 C 
ATOM      7  C   UNL     1      -0.163  -2.630   7.298  0.00  0.00    -0.082 C 
ATOM      8  N   UNL     1      -1.574  -2.443   6.942  0.00  0.00    +0.379 N 
ATOM      9  C   UNL     1      -1.759  -1.139   6.294  0.00  0.00    -0.082 C 
ATOM     10  C   UNL     1      -0.976  -1.105   4.978  0.00  0.00    -0.010 C 
ATOM     11  C   UNL     1       1.694   2.059   5.022  0.00  0.00    +0.247 C 
ATOM     12  O   UNL     1       2.131   2.646   4.051  0.00  0.00    -0.270 OA
ATOM     13  H   UNL     1      -1.860  -3.175   6.309  0.00  0.00    -0.086 HD
ATOM     14  H   UNL     1      -2.139  -2.485   7.777  0.00  0.00    -0.086 HD
ENDROOT
BRANCH  11  15
ATOM     15  C   UNL     1       1.159   2.823   6.168  0.00  0.00    +0.038 A 
ATOM     16  C   UNL     1       1.066   2.226   7.426  0.00  0.00    +0.016 A 
ATOM     17  C   UNL     1       0.565   2.943   8.492  0.00  0.00    +0.039 A 
ATOM     18  C   UNL     1       0.155   4.256   8.315  0.00  0.00    +0.135 A 
ATOM     19  C   UNL     1       0.245   4.854   7.068  0.00  0.00    +0.091 A 
ATOM     20  C   UNL     1       0.749   4.147   5.997  0.00  0.00    +0.028 A 
ATOM     21  F   UNL     1      -0.336   4.954   9.363  0.00  0.00    -0.205 F 
BRANCH  19  22
ATOM     22  C   UNL     1      -0.204   6.281   6.883  0.00  0.00    +0.420 C 
ATOM     23  F   UNL     1      -0.017   6.660   5.550  0.00  0.00    -0.166 F 
ATOM     24  F   UNL     1      -1.559   6.390   7.214  0.00  0.00    -0.166 F 
ATOM     25  F   UNL     1       0.548   7.117   7.715  0.00  0.00    -0.166 F 
ENDBRANCH  19  22
ENDBRANCH  11  15
BRANCH   1  27
ATOM     26  N   UNL     1      -0.046  -2.199   2.047  0.00  0.00    -0.312 N 
ATOM     27  C   UNL     1       0.388  -1.151   2.776  0.00  0.00    +0.218 C 
ATOM     28  O   UNL     1       0.042  -0.026   2.484  0.00  0.00    -0.275 OA
ATOM     29  H   UNL     1       0.230  -3.099   2.280  0.00  0.00    +0.149 HD
BRANCH  26  31
ATOM     30  C   UNL     1      -0.101  -1.651  -0.336  0.00  0.00    +0.028 C 
ATOM     31  C   UNL     1      -0.936  -1.978   0.904  0.00  0.00    +0.074 C 
BRANCH  31  32
ATOM     32  C   UNL     1      -1.758  -3.243   0.646  0.00  0.00    +0.057 C 
BRANCH  32  33
ATOM     33  C   UNL     1      -2.671  -3.496   1.818  0.00  0.00    -0.045 A 
ATOM     34  C   UNL     1      -2.235  -4.268   2.879  0.00  0.00    +0.006 A 
ATOM     35  C   UNL     1      -3.071  -4.501   3.954  0.00  0.00    +0.038 A 
ATOM     36  C   UNL     1      -4.346  -3.961   3.969  0.00  0.00    +0.123 A 
ATOM     37  C   UNL     1      -4.781  -3.188   2.906  0.00  0.00    +0.038 A 
ATOM     38  C   UNL     1      -3.941  -2.952   1.834  0.00  0.00    +0.006 A 
ATOM     39  F   UNL     1      -5.164  -4.188   5.019  0.00  0.00    -0.205 F 
ENDBRANCH  32  33
ENDBRANCH  31  32
ENDBRANCH  26  31
ENDBRANCH   1  27
TORSDOF 6
