REMARK  Name = ZINC25577887
REMARK  8 active torsions:
REMARK  status: ('A' for Active; 'I' for Inactive)
REMARK    1  A    between atoms: C_1  and  C_2
REMARK    2  A    between atoms: C_8  and  C_14
REMARK    3  A    between atoms: C_11  and  C_13
REMARK    4  A    between atoms: N_16  and  C_17
REMARK    5  A    between atoms: C_20  and  N_24
REMARK    6  A    between atoms: C_25  and  C_27
REMARK    7  A    between atoms: C_31  and  S_33
REMARK    8  A    between atoms: S_33  and  C_36
REMARK                            x       y       z     vdW  Elec       q    Type
REMARK                         _______ _______ _______ _____ _____    ______ ____
ROOT
ATOM      1  C   UNL     1       4.848   4.198  -0.134  0.00  0.00    +0.035 A 
ATOM      2  C   UNL     1       4.889   5.587  -0.113  0.00  0.00    +0.025 A 
ATOM      3  C   UNL     1       6.099   6.243  -0.203  0.00  0.00    +0.026 A 
ATOM      4  C   UNL     1       7.277   5.516  -0.315  0.00  0.00    +0.052 A 
ATOM      5  C   UNL     1       7.237   4.127  -0.336  0.00  0.00    +0.064 A 
ATOM      6  C   UNL     1       6.026   3.470  -0.240  0.00  0.00    +0.045 A 
ATOM      7 CL   UNL     1       8.710   3.218  -0.474  0.00  0.00    -0.082 Cl
ENDROOT
BRANCH   1  10
ATOM      8  C   UNL     1       2.521   4.064  -0.615  0.00  0.00    +0.252 C 
ATOM      9  O   UNL     1       2.578   5.160  -1.139  0.00  0.00    -0.270 OA
ATOM     10  N   UNL     1       3.620   3.533  -0.042  0.00  0.00    -0.281 N 
ATOM     11  H   UNL     1       3.551   2.576   0.497  0.00  0.00    +0.155 HD
BRANCH   8  18
ATOM     12  C   UNL     1      -3.071   4.642  -0.921  0.00  0.00    +0.016 C 
ATOM     13  C   UNL     1      -2.122   3.964  -1.912  0.00  0.00    +0.060 C 
ATOM     14  C   UNL     1      -1.078   3.138  -1.184  0.00  0.00    +0.001 A 
ATOM     15  C   UNL     1      -1.133   1.899  -0.585  0.00  0.00    +0.007 A 
ATOM     16  C   UNL     1      -0.003   1.357   0.006  0.00  0.00    +0.001 A 
ATOM     17  C   UNL     1       1.183   2.058  -0.004  0.00  0.00    +0.017 A 
ATOM     18  C   UNL     1       1.250   3.315  -0.605  0.00  0.00    +0.079 A 
ATOM     19  C   UNL     1       0.102   3.869  -1.202  0.00  0.00    +0.137 A 
ATOM     20  O   UNL     1      -0.066   5.064  -1.827  0.00  0.00    -0.487 OA
ATOM     21  C   UNL     1      -1.248   5.010  -2.644  0.00  0.00    +0.178 C 
ATOM     22  C   UNL     1      -1.943   6.372  -2.683  0.00  0.00    +0.052 C 
ENDBRANCH   8  18
ENDBRANCH   1  10
BRANCH   4  23
ATOM     23  N   UNL     1       8.506   6.183  -0.406  0.00  0.00    -0.280 N 
ATOM     24  C   UNL     1       8.699   7.335   0.267  0.00  0.00    +0.248 C 
ATOM     25  O   UNL     1       7.781   7.839   0.884  0.00  0.00    -0.270 OA
ATOM     26  H   UNL     1       9.313   5.766  -1.025  0.00  0.00    +0.155 HD
BRANCH  24  27
ATOM     27  C   UNL     1      10.026   7.986   0.253  0.00  0.00    +0.039 A 
ATOM     28  C   UNL     1      11.082   7.409  -0.456  0.00  0.00    +0.013 A 
ATOM     29  C   UNL     1      12.318   8.022  -0.465  0.00  0.00    +0.003 A 
ATOM     30  C   UNL     1      12.512   9.205   0.226  0.00  0.00    +0.027 A 
ATOM     31  C   UNL     1      11.470   9.781   0.930  0.00  0.00    +0.089 A 
ATOM     32  C   UNL     1      10.227   9.182   0.943  0.00  0.00    +0.040 A 
BRANCH  31  33
ATOM     33  S   UNL     1      11.729  11.287   1.807  0.00  0.00    -0.006 S 
ATOM     34  O   UNL     1      10.763  11.271   2.849  0.00  0.00    -0.170 OA
ATOM     35  O   UNL     1      13.118  11.299   2.107  0.00  0.00    -0.170 OA
ATOM     36  C   UNL     1      11.336  12.595   0.613  0.00  0.00    +0.200 C 
ENDBRANCH  31  33
ENDBRANCH  24  27
ENDBRANCH   4  23
TORSDOF 5
