REMARK  Name = ZINC05538214
REMARK  7 active torsions:
REMARK  status: ('A' for Active; 'I' for Inactive)
REMARK    1  A    between atoms: C_1  and  C_2
REMARK    2  A    between atoms: C_4  and  C_35
REMARK    3  A    between atoms: N_8  and  S_9
REMARK    4  A    between atoms: S_9  and  C_12
REMARK    5  A    between atoms: C_15  and  N_18
REMARK    6  A    between atoms: N_18  and  N_19
REMARK    7  A    between atoms: N_27  and  C_34
REMARK                            x       y       z     vdW  Elec       q    Type
REMARK                         _______ _______ _______ _____ _____    ______ ____
ROOT
ATOM      1  C   UNL     1       0.043   1.354  -0.843  0.00  0.00    +0.109 A 
ATOM      2  C   UNL     1       1.221   2.068  -0.727  0.00  0.00    +0.030 A 
ATOM      3  C   UNL     1       2.412   1.407  -0.501  0.00  0.00    +0.026 A 
ATOM      4  C   UNL     1       2.425   0.021  -0.390  0.00  0.00    +0.048 A 
ATOM      5  C   UNL     1       1.238  -0.693  -0.506  0.00  0.00    +0.026 A 
ATOM      6  C   UNL     1       0.052  -0.025  -0.733  0.00  0.00    +0.030 A 
ENDROOT
BRANCH   1   7
ATOM      7  S   UNL     1      -1.473   2.202  -1.139  0.00  0.00    +0.075 S 
ATOM      8  O   UNL     1      -1.134   3.442  -1.744  0.00  0.00    -0.150 OA
ATOM      9  O   UNL     1      -2.348   1.267  -1.756  0.00  0.00    -0.150 OA
BRANCH   7  17
ATOM     10  C   UNL     1       1.876   4.931   1.476  0.00  0.00    +0.066 C 
ATOM     11  C   UNL     1       0.435   4.583   1.750  0.00  0.00    +0.044 A 
ATOM     12  C   UNL     1      -0.225   5.135   2.837  0.00  0.00    +0.046 A 
ATOM     13  C   UNL     1      -1.550   4.788   3.052  0.00  0.00    +0.044 A 
ATOM     14  N   UNL     1      -2.141   3.947   2.220  0.00  0.00    -0.219 NA
ATOM     15  C   UNL     1      -1.481   3.438   1.190  0.00  0.00    +0.235 A 
ATOM     16  N   UNL     1      -0.213   3.744   0.959  0.00  0.00    -0.219 NA
ATOM     17  N   UNL     1      -2.130   2.561   0.339  0.00  0.00    -0.184 N 
ATOM     18  C   UNL     1      -2.308   5.364   4.221  0.00  0.00    +0.066 C 
ATOM     19  H   UNL     1      -2.970   2.156   0.607  0.00  0.00    +0.177 HD
ENDBRANCH   7  17
ENDBRANCH   1   7
BRANCH   4  20
ATOM     20  N   UNL     1       3.626  -0.650  -0.162  0.00  0.00    -0.237 N 
ATOM     21  H   UNL     1       3.633  -1.617  -0.085  0.00  0.00    +0.174 HD
BRANCH  20  22
ATOM     22  N   UNL     1       4.821   0.072  -0.044  0.00  0.00    -0.181 NA
ATOM     23  C   UNL     1       5.962  -0.562   0.040  0.00  0.00    +0.100 A 
ATOM     24  C   UNL     1       7.114   0.025   0.764  0.00  0.00    +0.026 A 
ATOM     25  C   UNL     1       7.005   1.265   1.385  0.00  0.00    +0.012 A 
ATOM     26  C   UNL     1       8.088   1.791   2.059  0.00  0.00    +0.001 A 
ATOM     27  C   UNL     1       9.277   1.085   2.123  0.00  0.00    +0.002 A 
ATOM     28  C   UNL     1       9.396  -0.149   1.515  0.00  0.00    +0.026 A 
ATOM     29  C   UNL     1       8.315  -0.695   0.832  0.00  0.00    +0.051 A 
ATOM     30  N   UNL     1       8.436  -1.936   0.222  0.00  0.00    -0.343 N 
ATOM     31  C   UNL     1       7.392  -2.530  -0.474  0.00  0.00    +0.051 A 
ATOM     32  C   UNL     1       6.151  -1.890  -0.591  0.00  0.00    +0.026 A 
ATOM     33  C   UNL     1       5.113  -2.497  -1.290  0.00  0.00    +0.012 A 
ATOM     34  C   UNL     1       5.309  -3.734  -1.870  0.00  0.00    +0.001 A 
ATOM     35  C   UNL     1       6.534  -4.369  -1.756  0.00  0.00    +0.002 A 
ATOM     36  C   UNL     1       7.571  -3.776  -1.064  0.00  0.00    +0.026 A 
ATOM     37  C   UNL     1       9.715  -2.645   0.315  0.00  0.00    +0.149 C 
ENDBRANCH  20  22
ENDBRANCH   4  20
TORSDOF 4
