REMARK  Name = ZINC20114789
REMARK  9 active torsions:
REMARK  status: ('A' for Active; 'I' for Inactive)
REMARK    1  A    between atoms: C_1  and  C_2
REMARK    2  A    between atoms: C_2  and  C_3
REMARK    3  A    between atoms: C_2  and  C_4
REMARK    4  A    between atoms: C_4  and  S_5
REMARK    5  A    between atoms: S_5  and  C_6
REMARK    6  A    between atoms: C_14  and  C_15
REMARK    7  A    between atoms: C_18  and  O_21
REMARK    8  A    between atoms: O_21  and  C_22
REMARK    9  A    between atoms: C_22  and  C_24
REMARK                            x       y       z     vdW  Elec       q    Type
REMARK                         _______ _______ _______ _____ _____    ______ ____
ROOT
ATOM      1  C   UNL     1      -4.185  -0.583  -1.270  0.00  0.00    +0.176 C 
ATOM      2  N   UNL     1      -4.673  -1.103  -0.177  0.00  0.00    -0.185 NA
ATOM      3  S   UNL     1      -6.299  -1.325  -0.517  0.00  0.00    +0.048 S 
ATOM      4  C   UNL     1      -6.326  -0.788  -2.094  0.00  0.00    +0.183 C 
ATOM      5  N   UNL     1      -7.315  -0.752  -2.960  0.00  0.00    -0.152 NA
ATOM      6  C   UNL     1      -7.082  -0.330  -4.216  0.00  0.00    +0.273 C 
ATOM      7  O   UNL     1      -8.002  -0.162  -5.000  0.00  0.00    -0.268 OA
ATOM      8  C   UNL     1      -5.678  -0.075  -4.626  0.00  0.00    +0.079 C 
ATOM      9  C   UNL     1      -5.280  -0.150  -5.941  0.00  0.00    +0.024 C 
ATOM     10  C   UNL     1      -4.723   0.266  -3.532  0.00  0.00    +0.137 C 
ATOM     11  N   UNL     1      -3.706   1.069  -3.691  0.00  0.00    -0.284 NA
ATOM     12  N   UNL     1      -5.031  -0.359  -2.308  0.00  0.00    -0.211 N 
ATOM     13  H   UNL     1      -3.540   1.477  -4.555  0.00  0.00    +0.188 HD
ENDROOT
BRANCH   9  14
ATOM     14  C   UNL     1      -6.200  -0.667  -6.957  0.00  0.00    -0.024 A 
ATOM     15  C   UNL     1      -6.187  -0.136  -8.254  0.00  0.00    +0.011 A 
ATOM     16  C   UNL     1      -7.051  -0.624  -9.201  0.00  0.00    +0.047 A 
ATOM     17  C   UNL     1      -7.939  -1.643  -8.876  0.00  0.00    +0.132 A 
ATOM     18  C   UNL     1      -7.958  -2.174  -7.590  0.00  0.00    +0.047 A 
ATOM     19  C   UNL     1      -7.094  -1.698  -6.637  0.00  0.00    +0.011 A 
BRANCH  17  20
ATOM     20  O   UNL     1      -8.793  -2.121  -9.816  0.00  0.00    -0.422 OA
BRANCH  20  21
ATOM     21  C   UNL     1      -8.300  -2.962 -10.750  0.00  0.00    +0.351 C 
ATOM     22  O   UNL     1      -7.108  -3.199 -10.786  0.00  0.00    -0.244 OA
BRANCH  21  23
ATOM     23  C   UNL     1      -9.201  -3.588 -11.719  0.00  0.00    +0.097 A 
ATOM     24  C   UNL     1      -8.903  -4.475 -12.744  0.00  0.00    +0.022 A 
ATOM     25  C   UNL     1      -9.971  -4.896 -13.498  0.00  0.00    +0.008 A 
ATOM     26  C   UNL     1     -11.211  -4.431 -13.202  0.00  0.00    +0.046 A 
ATOM     27  S   UNL     1     -10.967  -3.415 -11.886  0.00  0.00    -0.090 S 
ENDBRANCH  21  23
ENDBRANCH  20  21
ENDBRANCH  17  20
ENDBRANCH   9  14
BRANCH   1  28
ATOM     28  S   UNL     1      -2.475  -0.175  -1.393  0.00  0.00    -0.089 S 
BRANCH  28  29
ATOM     29  C   UNL     1      -1.793  -0.655   0.218  0.00  0.00    +0.080 C 
BRANCH  29  31
ATOM     30  C   UNL     1      -0.078   1.160   0.151  0.00  0.00    +0.008 C 
ATOM     31  C   UNL     1      -0.293  -0.351   0.248  0.00  0.00    -0.007 C 
ATOM     32  C   UNL     1       0.306  -0.869   1.557  0.00  0.00    +0.008 C 
ENDBRANCH  29  31
ENDBRANCH  28  29
ENDBRANCH   1  28
TORSDOF 7
