REMARK  Name = ZINC08666787
REMARK  6 active torsions:
REMARK  status: ('A' for Active; 'I' for Inactive)
REMARK    1  A    between atoms: C_3  and  C_6
REMARK    2  A    between atoms: C_6  and  N_7
REMARK    3  A    between atoms: C_15  and  C_27
REMARK    4  A    between atoms: C_15  and  C_31
REMARK    5  A    between atoms: C_17  and  C_19
REMARK    6  A    between atoms: C_22  and  C_25
REMARK                            x       y       z     vdW  Elec       q    Type
REMARK                         _______ _______ _______ _____ _____    ______ ____
ROOT
ATOM      1  N   UNL     1       3.619   0.279   1.282  0.00  0.00    -0.272 N 
ATOM      2  C   UNL     1       4.055  -0.841   1.961  0.00  0.00    +0.128 A 
ATOM      3  C   UNL     1       4.563  -0.690   3.240  0.00  0.00    +0.098 A 
ATOM      4  C   UNL     1       4.597   0.582   3.821  0.00  0.00    +0.262 A 
ATOM      5  N   UNL     1       4.141   1.640   3.121  0.00  0.00    -0.275 N 
ATOM      6  C   UNL     1       3.671   1.489   1.870  0.00  0.00    +0.331 A 
ATOM      7  O   UNL     1       3.282   2.465   1.259  0.00  0.00    -0.246 OA
ATOM      8  O   UNL     1       5.034   0.732   4.950  0.00  0.00    -0.267 OA
ATOM      9  C   UNL     1       5.087  -1.896   3.979  0.00  0.00    +0.258 C 
ATOM     10  N   UNL     1       4.404  -3.084   3.443  0.00  0.00    -0.306 N 
ATOM     11  C   UNL     1       4.184  -3.153   2.089  0.00  0.00    +0.106 C 
ATOM     12  N   UNL     1       3.998  -2.053   1.390  0.00  0.00    -0.329 N 
ATOM     13  H   UNL     1       3.816  -2.121   0.440  0.00  0.00    +0.168 HD
ATOM     14  H   UNL     1       4.156   2.523   3.523  0.00  0.00    +0.173 HD
ATOM     15  H   UNL     1       4.116  -3.800   4.031  0.00  0.00    +0.149 HD
ENDROOT
BRANCH  11  16
ATOM     16  C   UNL     1       4.156  -4.467   1.415  0.00  0.00    +0.013 A 
ATOM     17  C   UNL     1       4.916  -5.527   1.917  0.00  0.00    +0.012 A 
ATOM     18  C   UNL     1       4.890  -6.751   1.288  0.00  0.00    +0.019 A 
ATOM     19  C   UNL     1       4.103  -6.934   0.148  0.00  0.00    +0.052 A 
ATOM     20  C   UNL     1       3.343  -5.875  -0.354  0.00  0.00    +0.019 A 
ATOM     21  C   UNL     1       3.365  -4.652   0.278  0.00  0.00    +0.012 A 
BRANCH  19  22
ATOM     22  C   UNL     1       4.077  -8.207  -0.507  0.00  0.00    +0.099 C 
ATOM     23  N   UNL     1       4.056  -9.218  -1.026  0.00  0.00    -0.191 NA
ENDBRANCH  19  22
ENDBRANCH  11  16
BRANCH   9  24
ATOM     24  C   UNL     1       6.596  -2.023   3.759  0.00  0.00    +0.424 C 
ATOM     25  F   UNL     1       7.236  -0.874   4.236  0.00  0.00    -0.168 F 
ATOM     26  F   UNL     1       7.075  -3.143   4.447  0.00  0.00    -0.168 F 
ATOM     27  F   UNL     1       6.857  -2.168   2.392  0.00  0.00    -0.168 F 
ENDBRANCH   9  24
BRANCH   9  28
ATOM     28  C   UNL     1       4.791  -1.757   5.473  0.00  0.00    +0.424 C 
ATOM     29  F   UNL     1       3.479  -1.303   5.648  0.00  0.00    -0.168 F 
ATOM     30  F   UNL     1       4.941  -3.001   6.096  0.00  0.00    -0.168 F 
ATOM     31  F   UNL     1       5.681  -0.840   6.042  0.00  0.00    -0.168 F 
ENDBRANCH   9  28
BRANCH   1  32
ATOM     32  C   UNL     1       3.103   0.152  -0.084  0.00  0.00    +0.202 C 
BRANCH  32  35
ATOM     33  C   UNL     1      -0.581   0.191   0.004  0.00  0.00    +0.041 A 
ATOM     34  C   UNL     1       0.664   0.859  -0.049  0.00  0.00    +0.046 A 
ATOM     35  C   UNL     1       1.617  -0.090  -0.039  0.00  0.00    +0.125 A 
ATOM     36  O   UNL     1       1.018  -1.292   0.017  0.00  0.00    -0.466 OA
ATOM     37  C   UNL     1      -0.314  -1.127   0.044  0.00  0.00    +0.195 A 
ENDBRANCH  32  35
ENDBRANCH   1  32
TORSDOF 6
