REMARK  Name = ZINC20855900
REMARK  9 active torsions:
REMARK  status: ('A' for Active; 'I' for Inactive)
REMARK    1  A    between atoms: C_1  and  C_2
REMARK    2  A    between atoms: C_5  and  C_31
REMARK    3  A    between atoms: N_8  and  C_10
REMARK    4  A    between atoms: C_10  and  C_11
REMARK    5  A    between atoms: C_11  and  C_12
REMARK    6  A    between atoms: C_12  and  N_13
REMARK    7  A    between atoms: C_14  and  C_16
REMARK    8  A    between atoms: N_19  and  S_22
REMARK    9  A    between atoms: S_22  and  C_25
REMARK                            x       y       z     vdW  Elec       q    Type
REMARK                         _______ _______ _______ _____ _____    ______ ____
ROOT
ATOM      1  N   UNL     1      -4.078   0.723   5.047  0.00  0.00    -0.315 N 
ATOM      2  C   UNL     1      -4.919   0.875   6.089  0.00  0.00    +0.216 C 
ATOM      3  O   UNL     1      -4.630   1.627   6.996  0.00  0.00    -0.276 OA
ATOM      4  H   UNL     1      -4.340   0.041   4.224  0.00  0.00    +0.149 HD
ENDROOT
BRANCH   2   5
ATOM      5  C   UNL     1      -6.217   0.112   6.128  0.00  0.00    +0.077 C 
ATOM      6  C   UNL     1      -7.065   0.486   4.910  0.00  0.00    +0.030 C 
ATOM      7  C   UNL     1      -8.369  -0.318   4.935  0.00  0.00    +0.110 C 
ATOM      8  N   UNL     1      -9.036  -0.097   6.225  0.00  0.00    -0.175 NA
ATOM      9  C   UNL     1      -8.281  -0.339   7.462  0.00  0.00    +0.110 C 
ATOM     10  C   UNL     1      -6.978   0.464   7.409  0.00  0.00    +0.030 C 
BRANCH   8  11
ATOM     11  S   UNL     1     -10.610   0.414   6.285  0.00  0.00    +0.080 S 
ATOM     12  O   UNL     1     -11.210   0.027   5.056  0.00  0.00    -0.151 OA
ATOM     13  O   UNL     1     -11.123   0.005   7.545  0.00  0.00    -0.151 OA
BRANCH  11  14
ATOM     14  C   UNL     1     -10.585   2.176   6.299  0.00  0.00    +0.211 A 
ATOM     15  C   UNL     1     -10.612   2.977   5.217  0.00  0.00    +0.133 A 
ATOM     16  N   UNL     1     -10.579   4.266   5.677  0.00  0.00    -0.349 N 
ATOM     17  H   UNL     1     -10.593   5.104   4.965  0.00  0.00    +0.166 HD
ATOM     18  C   UNL     1     -10.533   4.208   7.025  0.00  0.00    +0.198 A 
ATOM     19  N   UNL     1     -10.542   2.955   7.390  0.00  0.00    -0.217 NA
ENDBRANCH  11  14
ENDBRANCH   8  11
ENDBRANCH   2   5
BRANCH   1  20
ATOM     20  C   UNL     1      -2.816   1.465   5.009  0.00  0.00    +0.102 C 
BRANCH  20  21
ATOM     21  C   UNL     1      -2.055   1.113   3.729  0.00  0.00    +0.000 C 
BRANCH  21  22
ATOM     22  C   UNL     1      -0.737   1.888   3.689  0.00  0.00    -0.077 C 
BRANCH  22  28
ATOM     23  C   UNL     1       0.002  -0.004   0.002  0.00  0.00    +0.005 C 
ATOM     24  C   UNL     1      -0.019   1.526   0.010  0.00  0.00    -0.031 C 
ATOM     25  C   UNL     1       1.417   2.057  -0.000  0.00  0.00    +0.003 C 
ATOM     26  C   UNL     1       2.134   1.593   1.271  0.00  0.00    -0.031 C 
ATOM     27  C   UNL     1       1.360   2.085   2.495  0.00  0.00    -0.076 C 
ATOM     28  N   UNL     1      -0.007   1.550   2.460  0.00  0.00    +0.380 N 
ATOM     29  C   UNL     1      -0.731   2.020   1.272  0.00  0.00    -0.076 C 
ATOM     30  C   UNL     1       3.551   2.169   1.297  0.00  0.00    +0.005 C 
ATOM     31  H   UNL     1       0.064   0.454   2.397  0.00  0.00    -0.082 HD
ENDBRANCH  22  28
ENDBRANCH  21  22
ENDBRANCH  20  21
ENDBRANCH   1  20
TORSDOF 7
