REMARK  Name = ZINC12530480
REMARK  8 active torsions:
REMARK  status: ('A' for Active; 'I' for Inactive)
REMARK    1  A    between atoms: C_4  and  C_7
REMARK    2  A    between atoms: C_7  and  N_8
REMARK    3  A    between atoms: C_9  and  C_11
REMARK    4  A    between atoms: C_11  and  C_12
REMARK    5  A    between atoms: C_12  and  C_13
REMARK    6  A    between atoms: C_22  and  N_25
REMARK    7  A    between atoms: N_25  and  S_26
REMARK    8  A    between atoms: S_26  and  C_29
REMARK                            x       y       z     vdW  Elec       q    Type
REMARK                         _______ _______ _______ _____ _____    ______ ____
ROOT
ATOM      1  C   UNL     1       0.341  -0.885  -5.708  0.00  0.00    -0.050 C 
ATOM      2  C   UNL     1      -0.288  -0.711  -7.098  0.00  0.00    +0.089 C 
ATOM      3  N   UNL     1      -1.473  -1.541  -7.271  0.00  0.00    -0.318 N 
ATOM      4  C   UNL     1      -2.087  -2.217  -6.281  0.00  0.00    +0.200 C 
ATOM      5  O   UNL     1      -3.131  -2.796  -6.490  0.00  0.00    -0.278 OA
ATOM      6  C   UNL     1      -1.466  -2.245  -4.922  0.00  0.00    +0.021 C 
ATOM      7  C   UNL     1      -0.438  -0.876  -3.319  0.00  0.00    -0.057 C 
ATOM      8  C   UNL     1      -1.589  -1.630  -2.605  0.00  0.00    +0.059 C 
ATOM      9  C   UNL     1      -2.462  -2.213  -3.753  0.00  0.00    +0.012 C 
ATOM     10  H   UNL     1      -1.846  -1.613  -8.163  0.00  0.00    +0.149 HD
ATOM     11  N   UNL     1      -0.817  -0.974  -4.747  0.00  0.00    +0.391 N 
ATOM     12  H   UNL     1      -1.474  -0.215  -4.963  0.00  0.00    -0.080 HD
ENDROOT
BRANCH   8  13
ATOM     13  N   UNL     1      -2.376  -0.703  -1.787  0.00  0.00    -0.189 NA
ATOM     14  H   UNL     1      -3.038  -0.131  -2.204  0.00  0.00    +0.148 HD
BRANCH  13  15
ATOM     15  S   UNL     1      -2.132  -0.632  -0.151  0.00  0.00    +0.059 S 
ATOM     16  O   UNL     1      -2.157  -1.972   0.322  0.00  0.00    -0.153 OA
ATOM     17  O   UNL     1      -3.011   0.368   0.347  0.00  0.00    -0.153 OA
BRANCH  15  18
ATOM     18  C   UNL     1      -0.494  -0.038   0.107  0.00  0.00    +0.105 A 
ATOM     19  C   UNL     1      -0.245   1.322   0.112  0.00  0.00    +0.028 A 
ATOM     20  C   UNL     1       1.040   1.789   0.315  0.00  0.00    +0.002 A 
ATOM     21  C   UNL     1       2.077   0.895   0.511  0.00  0.00    +0.000 A 
ATOM     22  C   UNL     1       1.828  -0.464   0.507  0.00  0.00    +0.002 A 
ATOM     23  C   UNL     1       0.542  -0.931   0.305  0.00  0.00    +0.028 A 
ENDBRANCH  15  18
ENDBRANCH  13  15
ENDBRANCH   8  13
BRANCH   1  24
ATOM     24  C   UNL     1       1.240   0.312  -5.390  0.00  0.00    -0.005 C 
BRANCH  24  25
ATOM     25  C   UNL     1       2.428   0.327  -6.353  0.00  0.00    +0.094 C 
BRANCH  25  27
ATOM     26  N   UNL     1       4.448   1.703  -6.735  0.00  0.00    -0.311 N 
ATOM     27  C   UNL     1       3.376   1.432  -5.964  0.00  0.00    +0.213 C 
ATOM     28  O   UNL     1       3.175   2.077  -4.957  0.00  0.00    -0.276 OA
ATOM     29  H   UNL     1       4.572   1.236  -7.576  0.00  0.00    +0.149 HD
BRANCH  26  30
ATOM     30  C   UNL     1       5.428   2.703  -6.302  0.00  0.00    +0.139 C 
BRANCH  30  34
ATOM     31  C   UNL     1       8.337   3.272  -9.378  0.00  0.00    +0.000 A 
ATOM     32  C   UNL     1       7.243   4.113  -9.297  0.00  0.00    +0.000 A 
ATOM     33  C   UNL     1       6.301   3.929  -8.302  0.00  0.00    +0.005 A 
ATOM     34  C   UNL     1       6.454   2.903  -7.387  0.00  0.00    -0.030 A 
ATOM     35  C   UNL     1       7.551   2.066  -7.465  0.00  0.00    +0.005 A 
ATOM     36  C   UNL     1       8.490   2.247  -8.463  0.00  0.00    +0.000 A 
ENDBRANCH  30  34
ENDBRANCH  26  30
ENDBRANCH  25  27
ENDBRANCH  24  25
ENDBRANCH   1  24
TORSDOF 8
