REMARK  Name = ZINC15944118
REMARK  7 active torsions:
REMARK  status: ('A' for Active; 'I' for Inactive)
REMARK    1  A    between atoms: C_1  and  C_2
REMARK    2  A    between atoms: N_8  and  C_9
REMARK    3  A    between atoms: C_9  and  C_10
REMARK    4  A    between atoms: C_10  and  N_11
REMARK    5  A    between atoms: C_12  and  C_14
REMARK    6  A    between atoms: N_20  and  C_32
REMARK    7  A    between atoms: C_32  and  C_33
REMARK                            x       y       z     vdW  Elec       q    Type
REMARK                         _______ _______ _______ _____ _____    ______ ____
ROOT
ATOM      1  C   UNL     1       0.129   0.498   7.260  0.00  0.00    +0.039 A 
ATOM      2  C   UNL     1      -1.046   1.244   7.150  0.00  0.00    +0.015 A 
ATOM      3  C   UNL     1      -1.646   1.742   8.289  0.00  0.00    +0.030 A 
ATOM      4  C   UNL     1      -1.089   1.508   9.531  0.00  0.00    +0.115 A 
ATOM      5  C   UNL     1       0.085   0.777   9.659  0.00  0.00    +0.063 A 
ATOM      6  C   UNL     1       0.687   0.261   8.513  0.00  0.00    +0.038 A 
ATOM      7  N   UNL     1       0.683   0.553  10.885  0.00  0.00    -0.261 N 
ATOM      8  C   UNL     1       0.185   0.185  12.034  0.00  0.00    +0.253 C 
ATOM      9  O   UNL     1       0.995   0.049  12.930  0.00  0.00    -0.270 OA
ATOM     10  C   UNL     1      -1.206  -0.087  12.403  0.00  0.00    +0.062 A 
ATOM     11  C   UNL     1      -1.506  -1.204  13.194  0.00  0.00    +0.015 A 
ATOM     12  C   UNL     1      -2.810  -1.466  13.553  0.00  0.00    +0.001 A 
ATOM     13  C   UNL     1      -3.832  -0.631  13.136  0.00  0.00    +0.002 A 
ATOM     14  C   UNL     1      -3.546   0.474  12.353  0.00  0.00    +0.028 A 
ATOM     15  C   UNL     1      -2.246   0.743  11.986  0.00  0.00    +0.106 A 
ATOM     16  S   UNL     1      -1.882   2.142  10.975  0.00  0.00    +0.028 S 
ATOM     17  O   UNL     1      -0.910   2.910  11.673  0.00  0.00    -0.164 OA
ATOM     18  O   UNL     1      -3.128   2.680  10.556  0.00  0.00    -0.164 OA
ENDROOT
BRANCH   1  20
ATOM     19  N   UNL     1       0.236   0.185   4.834  0.00  0.00    -0.313 N 
ATOM     20  C   UNL     1       0.777  -0.045   6.046  0.00  0.00    +0.244 C 
ATOM     21  O   UNL     1       1.797  -0.699   6.143  0.00  0.00    -0.270 OA
ATOM     22  H   UNL     1      -0.578   0.707   4.757  0.00  0.00    +0.149 HD
BRANCH  19  23
ATOM     23  C   UNL     1       0.877  -0.353   3.631  0.00  0.00    +0.086 C 
BRANCH  23  24
ATOM     24  C   UNL     1       0.067   0.050   2.397  0.00  0.00    -0.059 C 
BRANCH  24  31
ATOM     25  C   UNL     1      -0.019   1.526   0.010  0.00  0.00    -0.013 C 
ATOM     26  C   UNL     1       0.002  -0.004   0.002  0.00  0.00    -0.072 C 
ATOM     27  C   UNL     1       0.717  -0.497  -1.258  0.00  0.00    -0.016 C 
ATOM     28  C   UNL     1       0.735  -2.028  -1.262  0.00  0.00    -0.003 C 
ATOM     29  C   UNL     1       1.410  -2.524   0.020  0.00  0.00    -0.019 C 
ATOM     30  C   UNL     1       0.669  -1.956   1.232  0.00  0.00    -0.078 C 
ATOM     31  N   UNL     1       0.711  -0.490   1.192  0.00  0.00    +0.382 N 
ATOM     32  H   UNL     1       1.671  -0.182   1.159  0.00  0.00    -0.081 HD
ENDBRANCH  24  31
ENDBRANCH  23  24
ENDBRANCH  19  23
ENDBRANCH   1  20
BRANCH   7  33
ATOM     33  C   UNL     1       2.132   0.767  10.896  0.00  0.00    +0.149 C 
BRANCH  33  34
ATOM     34  C   UNL     1       2.426   2.202  11.248  0.00  0.00    -0.030 A 
ATOM     35  C   UNL     1       2.521   3.153  10.249  0.00  0.00    +0.005 A 
ATOM     36  C   UNL     1       2.791   4.470  10.571  0.00  0.00    +0.000 A 
ATOM     37  C   UNL     1       2.964   4.836  11.893  0.00  0.00    +0.000 A 
ATOM     38  C   UNL     1       2.868   3.886  12.892  0.00  0.00    +0.000 A 
ATOM     39  C   UNL     1       2.594   2.570  12.570  0.00  0.00    +0.005 A 
ENDBRANCH  33  34
ENDBRANCH   7  33
TORSDOF 6
