REMARK  Name = ZINC06120917
REMARK  12 active torsions:
REMARK  status: ('A' for Active; 'I' for Inactive)
REMARK    1  A    between atoms: C_1  and  C_2
REMARK    2  A    between atoms: C_7  and  N_12
REMARK    3  A    between atoms: C_9  and  C_11
REMARK    4  A    between atoms: C_13  and  C_15
REMARK    5  A    between atoms: C_15  and  C_17
REMARK    6  A    between atoms: C_15  and  O_18
REMARK    7  A    between atoms: O_18  and  C_19
REMARK    8  A    between atoms: C_19  and  C_21
REMARK    9  A    between atoms: C_23  and  S_29
REMARK   10  A    between atoms: C_26  and  O_27
REMARK   11  A    between atoms: O_27  and  C_28
REMARK   12  A    between atoms: S_29  and  N_32
REMARK                            x       y       z     vdW  Elec       q    Type
REMARK                         _______ _______ _______ _____ _____    ______ ____
ROOT
ATOM      1  C   UNL     1      -1.691   0.780  -1.663  0.00  0.00    +0.344 C 
ATOM      2  O   UNL     1      -1.948  -0.279  -1.126  0.00  0.00    -0.245 OA
ENDROOT
BRANCH   1   3
ATOM      3  C   UNL     1      -2.446   1.204  -2.855  0.00  0.00    +0.102 A 
ATOM      4  C   UNL     1      -2.158   2.424  -3.473  0.00  0.00    +0.047 A 
ATOM      5  C   UNL     1      -2.864   2.812  -4.590  0.00  0.00    +0.106 A 
ATOM      6  C   UNL     1      -3.868   2.003  -5.099  0.00  0.00    +0.032 A 
ATOM      7  C   UNL     1      -4.167   0.798  -4.495  0.00  0.00    +0.048 A 
ATOM      8  C   UNL     1      -3.462   0.388  -3.373  0.00  0.00    +0.134 A 
BRANCH   5   9
ATOM      9  S   UNL     1      -2.494   4.347  -5.373  0.00  0.00    +0.056 S 
ATOM     10  O   UNL     1      -1.152   4.663  -5.032  0.00  0.00    -0.153 OA
ATOM     11  O   UNL     1      -2.932   4.232  -6.720  0.00  0.00    -0.153 OA
BRANCH   9  12
ATOM     12  N   UNL     1      -3.447   5.500  -4.663  0.00  0.00    -0.204 NA
ATOM     13  H   UNL     1      -3.137   6.417  -4.605  0.00  0.00    +0.144 HD
ATOM     14  H   UNL     1      -4.316   5.259  -4.305  0.00  0.00    +0.144 HD
ENDBRANCH   9  12
ENDBRANCH   5   9
BRANCH   8  15
ATOM     15  O   UNL     1      -3.754  -0.796  -2.780  0.00  0.00    -0.494 OA
ATOM     16  C   UNL     1      -4.802  -1.573  -3.364  0.00  0.00    +0.277 C 
ENDBRANCH   8  15
ENDBRANCH   1   3
BRANCH   1  17
ATOM     17  O   UNL     1      -0.715   1.567  -1.168  0.00  0.00    -0.449 OA
BRANCH  17  18
ATOM     18  C   UNL     1      -0.013   1.086   0.008  0.00  0.00    +0.259 C 
ATOM     19  C   UNL     1      -0.729   1.579   1.267  0.00  0.00    +0.062 C 
BRANCH  18  21
ATOM     20  N   UNL     1       2.274   1.208   0.943  0.00  0.00    -0.309 N 
ATOM     21  C   UNL     1       1.401   1.607  -0.003  0.00  0.00    +0.254 C 
ATOM     22  O   UNL     1       1.753   2.387  -0.862  0.00  0.00    -0.272 OA
ATOM     23  H   UNL     1       1.992   0.584   1.631  0.00  0.00    +0.149 HD
BRANCH  20  29
ATOM     24  C   UNL     1       5.667   3.629   1.851  0.00  0.00    +0.008 C 
ATOM     25  C   UNL     1       5.663   2.178   2.337  0.00  0.00    -0.009 C 
ATOM     26  C   UNL     1       6.515   1.323   1.397  0.00  0.00    +0.003 C 
ATOM     27  C   UNL     1       5.936   1.389  -0.018  0.00  0.00    +0.002 C 
ATOM     28  C   UNL     1       4.501   0.859  -0.007  0.00  0.00    +0.022 C 
ATOM     29  C   UNL     1       3.648   1.715   0.933  0.00  0.00    +0.076 C 
ATOM     30  C   UNL     1       4.227   1.649   2.347  0.00  0.00    +0.009 C 
ATOM     31  C   UNL     1       3.375   2.504   3.287  0.00  0.00    +0.009 C 
ENDBRANCH  20  29
ENDBRANCH  18  21
ENDBRANCH  17  18
ENDBRANCH   1  17
TORSDOF 8
