REMARK  Name = ZINC37675880
REMARK  6 active torsions:
REMARK  status: ('A' for Active; 'I' for Inactive)
REMARK    1  A    between atoms: C_1  and  C_2
REMARK    2  A    between atoms: C_5  and  S_9
REMARK    3  A    between atoms: S_9  and  N_12
REMARK    4  A    between atoms: N_12  and  C_13
REMARK    5  A    between atoms: C_14  and  C_19
REMARK    6  A    between atoms: C_15  and  C_18
REMARK                            x       y       z     vdW  Elec       q    Type
REMARK                         _______ _______ _______ _____ _____    ______ ____
ROOT
ATOM      1  S   UNL     1       0.062  -4.531  -0.026  0.00  0.00    +0.094 S 
ATOM      2  O   UNL     1      -0.954  -4.956   0.872  0.00  0.00    -0.148 OA
ATOM      3  O   UNL     1       0.088  -4.928  -1.390  0.00  0.00    -0.148 OA
ENDROOT
BRANCH   1   8
ATOM      4  C   UNL     1      -0.018   1.503   0.010  0.00  0.00    +0.044 C 
ATOM      5  C   UNL     1       0.002  -0.004   0.002  0.00  0.00    -0.049 A 
ATOM      6  C   UNL     1       0.006  -0.689  -1.199  0.00  0.00    +0.005 A 
ATOM      7  C   UNL     1       0.025  -2.071  -1.208  0.00  0.00    +0.030 A 
ATOM      8  C   UNL     1       0.039  -2.769  -0.015  0.00  0.00    +0.129 A 
ATOM      9  C   UNL     1       0.035  -2.085   1.187  0.00  0.00    +0.068 A 
ATOM     10  C   UNL     1       0.023  -0.701   1.195  0.00  0.00    +0.025 A 
ATOM     11 CL   UNL     1       0.054  -2.962   2.686  0.00  0.00    -0.082 Cl
ENDBRANCH   1   8
BRANCH   1  12
ATOM     12  N   UNL     1       1.505  -5.006   0.633  0.00  0.00    -0.088 NA
BRANCH  12  13
ATOM     13  C   UNL     1       1.800  -6.347   0.752  0.00  0.00    +0.145 A 
ATOM     14  C   UNL     1       2.950  -6.945   1.281  0.00  0.00    +0.117 A 
ATOM     15  C   UNL     1       2.933  -8.342   1.255  0.00  0.00    +0.063 A 
ATOM     16  N   UNL     1       1.879  -8.919   0.755  0.00  0.00    -0.213 NA
ATOM     17  S   UNL     1       0.866  -7.668   0.307  0.00  0.00    +0.031 S 
ATOM     18  C   UNL     1       4.090  -9.149   1.784  0.00  0.00    +0.067 C 
BRANCH  14  19
ATOM     19  C   UNL     1       4.072  -6.175   1.814  0.00  0.00    +0.391 C 
ATOM     20  O   UNL     1       4.031  -4.950   1.811  0.00  0.00    -0.240 OA
ATOM     21  O   UNL     1       5.054  -6.753   2.264  0.00  0.00    -0.240 OA
ENDBRANCH  14  19
ENDBRANCH  12  13
ENDBRANCH   1  12
TORSDOF 4
