REMARK  Name = ZINC13813406
REMARK  7 active torsions:
REMARK  status: ('A' for Active; 'I' for Inactive)
REMARK    1  A    between atoms: C_1  and  S_2
REMARK    2  A    between atoms: S_2  and  N_5
REMARK    3  A    between atoms: C_9  and  C_31
REMARK    4  A    between atoms: N_13  and  C_24
REMARK    5  A    between atoms: C_15  and  C_17
REMARK    6  A    between atoms: C_17  and  C_18
REMARK    7  A    between atoms: C_24  and  C_25
REMARK                            x       y       z     vdW  Elec       q    Type
REMARK                         _______ _______ _______ _____ _____    ______ ____
ROOT
ATOM      1  N   UNL     1       0.629  -0.758  -1.442  0.00  0.00    -0.172 NA
ATOM      2  C   UNL     1      -0.265  -1.140  -2.535  0.00  0.00    +0.146 C 
ATOM      3  C   UNL     1      -0.713   0.104  -3.279  0.00  0.00    -0.010 A 
ATOM      4  C   UNL     1      -2.029   0.496  -3.264  0.00  0.00    +0.015 A 
ATOM      5  C   UNL     1      -2.423   1.618  -3.994  0.00  0.00    -0.017 A 
ATOM      6  C   UNL     1      -1.481   2.329  -4.736  0.00  0.00    +0.010 A 
ATOM      7  C   UNL     1      -0.159   1.939  -4.732  0.00  0.00    +0.024 A 
ATOM      8  C   UNL     1       0.238   0.837  -3.985  0.00  0.00    +0.035 A 
ATOM      9  N   UNL     1       1.585   0.507  -3.868  0.00  0.00    -0.322 N 
ATOM     10  C   UNL     1       2.244   0.720  -2.570  0.00  0.00    +0.126 C 
ATOM     11  C   UNL     1       2.050  -0.495  -1.689  0.00  0.00    +0.101 C 
ENDROOT
BRANCH   5  12
ATOM     12  C   UNL     1      -3.841   2.054  -3.980  0.00  0.00    -0.018 A 
ATOM     13  C   UNL     1      -4.783   1.348  -3.234  0.00  0.00    +0.008 A 
ATOM     14  C   UNL     1      -6.101   1.758  -3.225  0.00  0.00    +0.001 A 
ATOM     15  C   UNL     1      -6.488   2.867  -3.954  0.00  0.00    +0.000 A 
ATOM     16  C   UNL     1      -5.557   3.572  -4.697  0.00  0.00    +0.001 A 
ATOM     17  C   UNL     1      -4.236   3.175  -4.709  0.00  0.00    +0.008 A 
ENDBRANCH   5  12
BRANCH   1  19
ATOM     18  C   UNL     1       0.475  -2.164   0.919  0.00  0.00    +0.215 C 
ATOM     19  S   UNL     1       0.026  -0.613   0.094  0.00  0.00    +0.030 S 
ATOM     20  O   UNL     1      -1.383  -0.538  -0.075  0.00  0.00    -0.158 OA
ATOM     21  O   UNL     1       0.746   0.472   0.664  0.00  0.00    -0.158 OA
ENDBRANCH   1  19
BRANCH  11  22
ATOM     22  C   UNL     1       2.756  -0.260  -0.353  0.00  0.00    +0.057 C 
BRANCH  22  23
ATOM     23  C   UNL     1       4.248  -0.318  -0.556  0.00  0.00    -0.043 A 
ATOM     24  C   UNL     1       4.917  -1.532  -0.565  0.00  0.00    +0.023 A 
ATOM     25  C   UNL     1       6.286  -1.546  -0.754  0.00  0.00    +0.111 A 
ATOM     26  N   UNL     1       6.955  -0.423  -0.925  0.00  0.00    -0.263 NA
ATOM     27  C   UNL     1       6.352   0.750  -0.922  0.00  0.00    +0.111 A 
ATOM     28  C   UNL     1       4.984   0.842  -0.745  0.00  0.00    +0.023 A 
ENDBRANCH  22  23
ENDBRANCH  11  22
BRANCH   9  29
ATOM     29  C   UNL     1       2.328  -0.037  -5.008  0.00  0.00    +0.159 C 
BRANCH  29  30
ATOM     30  C   UNL     1       2.938   1.094  -5.795  0.00  0.00    +0.051 A 
ATOM     31  C   UNL     1       2.399   1.687  -6.877  0.00  0.00    +0.106 A 
ATOM     32  N   UNL     1       3.277   2.657  -7.277  0.00  0.00    -0.352 N 
ATOM     33  H   UNL     1       3.168   3.257  -8.031  0.00  0.00    +0.166 HD
ATOM     34  C   UNL     1       4.324   2.624  -6.424  0.00  0.00    +0.171 A 
ATOM     35  N   UNL     1       4.112   1.689  -5.538  0.00  0.00    -0.349 N 
ATOM     36  H   UNL     1       4.710   1.461  -4.809  0.00  0.00    +0.166 HD
ENDBRANCH  29  30
ENDBRANCH   9  29
TORSDOF 6
