REMARK  Name = ZINC23642088
REMARK  15 active torsions:
REMARK  status: ('A' for Active; 'I' for Inactive)
REMARK    1  A    between atoms: C_1  and  C_2
REMARK    2  A    between atoms: C_2  and  C_3
REMARK    3  A    between atoms: C_4  and  C_34
REMARK    4  A    between atoms: C_6  and  N_13
REMARK    5  A    between atoms: C_7  and  C_8
REMARK    6  A    between atoms: C_8  and  O_10
REMARK    7  A    between atoms: O_10  and  C_11
REMARK    8  A    between atoms: C_11  and  C_12
REMARK    9  A    between atoms: C_14  and  C_16
REMARK   10  A    between atoms: C_16  and  O_17
REMARK   11  A    between atoms: O_17  and  C_18
REMARK   12  A    between atoms: C_18  and  C_20
REMARK   13  A    between atoms: C_20  and  C_21
REMARK   14  A    between atoms: C_21  and  C_23
REMARK   15  A    between atoms: C_21  and  N_30
REMARK                            x       y       z     vdW  Elec       q    Type
REMARK                         _______ _______ _______ _____ _____    ______ ____
ROOT
ATOM      1  O   UNL     1       2.632   4.033   0.133  0.00  0.00    -0.455 OA
ENDROOT
BRANCH   1   2
ATOM      2  C   UNL     1       2.734   5.371   0.098  0.00  0.00    +0.310 C 
ATOM      3  O   UNL     1       1.738   6.054   0.118  0.00  0.00    -0.251 OA
BRANCH   2   4
ATOM      4  C   UNL     1       4.092   6.022   0.032  0.00  0.00    +0.147 C 
BRANCH   4   5
ATOM      5  C   UNL     1       3.928   7.543   0.002  0.00  0.00    +0.115 C 
BRANCH   5   6
ATOM      6  C   UNL     1       5.276   8.189  -0.187  0.00  0.00    -0.027 A 
ATOM      7  C   UNL     1       5.461   9.515   0.160  0.00  0.00    +0.007 A 
ATOM      8  C   UNL     1       6.699  10.107  -0.008  0.00  0.00    +0.020 A 
ATOM      9  C   UNL     1       7.749   9.376  -0.534  0.00  0.00    +0.041 A 
ATOM     10  C   UNL     1       7.562   8.051  -0.885  0.00  0.00    +0.020 A 
ATOM     11  C   UNL     1       6.326   7.459  -0.712  0.00  0.00    +0.007 A 
ATOM     12 CL   UNL     1       9.302  10.121  -0.752  0.00  0.00    -0.084 Cl
ENDBRANCH   5   6
BRANCH   5  13
ATOM     13  N   UNL     1       3.342   7.995   1.266  0.00  0.00    -0.292 N 
ATOM     14  C   UNL     1       4.003   7.799   2.424  0.00  0.00    +0.298 C 
ATOM     15  O   UNL     1       5.122   7.323   2.412  0.00  0.00    -0.253 OA
ATOM     16  N   UNL     1       3.424   8.131   3.595  0.00  0.00    -0.313 N 
ATOM     17  H   UNL     1       2.362   8.496   1.270  0.00  0.00    +0.151 HD
ATOM     18  H   UNL     1       3.964   7.970   4.540  0.00  0.00    +0.146 HD
ATOM     19  H   UNL     1       2.412   8.561   3.606  0.00  0.00    +0.146 HD
ENDBRANCH   5  13
ENDBRANCH   4   5
ENDBRANCH   2   4
ENDBRANCH   1   2
BRANCH   1  20
ATOM     20  C   UNL     1       1.292   3.476   0.196  0.00  0.00    +0.328 C 
BRANCH  20  22
ATOM     21  N   UNL     1       0.248   1.236   0.287  0.00  0.00    -0.277 N 
ATOM     22  C   UNL     1       1.375   1.972   0.228  0.00  0.00    +0.255 C 
ATOM     23  O   UNL     1       2.457   1.423   0.201  0.00  0.00    -0.272 OA
ATOM     24  H   UNL     1      -0.733   1.733   0.311  0.00  0.00    +0.155 HD
BRANCH  21  28
ATOM     25  C   UNL     1      -0.346  -2.465   0.396  0.00  0.00    -0.022 A 
ATOM     26  C   UNL     1       0.967  -2.753   0.354  0.00  0.00    -0.008 A 
ATOM     27  S   UNL     1       1.736  -1.148   0.281  0.00  0.00    -0.078 S 
ATOM     28  C   UNL     1       0.324  -0.148   0.317  0.00  0.00    +0.086 A 
ATOM     29  C   UNL     1      -0.716  -1.069   0.377  0.00  0.00    +0.091 A 
ATOM     30  C   UNL     1       1.628  -4.107   0.361  0.00  0.00    +0.052 C 
BRANCH  25  32
ATOM     31  C   UNL     1      -1.793  -3.955  -0.959  0.00  0.00    +0.009 C 
ATOM     32  C   UNL     1      -1.387  -3.553   0.460  0.00  0.00    +0.033 C 
ENDBRANCH  25  32
BRANCH  29  33
ATOM     33  C   UNL     1      -2.117  -0.645   0.420  0.00  0.00    +0.342 C 
ATOM     34  O   UNL     1      -2.739  -0.494  -0.615  0.00  0.00    -0.245 OA
BRANCH  33  35
ATOM     35  O   UNL     1      -2.719  -0.423   1.606  0.00  0.00    -0.461 OA
BRANCH  35  36
ATOM     36  C   UNL     1      -4.109  -0.004   1.573  0.00  0.00    +0.229 C 
ATOM     37  C   UNL     1      -4.615   0.198   3.002  0.00  0.00    +0.048 C 
ENDBRANCH  35  36
ENDBRANCH  33  35
ENDBRANCH  29  33
ENDBRANCH  21  28
ENDBRANCH  20  22
ENDBRANCH   1  20
TORSDOF 12
