REMARK  Name = ZINC64776206
REMARK  8 active torsions:
REMARK  status: ('A' for Active; 'I' for Inactive)
REMARK    1  A    between atoms: C_1  and  C_2
REMARK    2  A    between atoms: C_2  and  C_3
REMARK    3  A    between atoms: C_3  and  C_5
REMARK    4  A    between atoms: C_3  and  N_19
REMARK    5  A    between atoms: N_7  and  C_8
REMARK    6  A    between atoms: C_8  and  C_9
REMARK    7  A    between atoms: C_9  and  C_10
REMARK    8  A    between atoms: N_29  and  C_34
REMARK                            x       y       z     vdW  Elec       q    Type
REMARK                         _______ _______ _______ _____ _____    ______ ____
ROOT
ATOM      1  C   UNL     1      -1.433  -0.534   0.013  0.00  0.00    +0.160 C 
ENDROOT
BRANCH   1   2
ATOM      2  N   UNL     1      -2.082  -0.162   1.273  0.00  0.00    -0.303 N 
ATOM      3  C   UNL     1      -1.649  -0.530   2.554  0.00  0.00    +0.039 A 
ATOM      4  C   UNL     1      -0.479  -1.166   2.952  0.00  0.00    +0.024 A 
ATOM      5  C   UNL     1      -0.241  -1.422   4.287  0.00  0.00    +0.002 A 
ATOM      6  C   UNL     1      -1.166  -1.049   5.247  0.00  0.00    +0.001 A 
ATOM      7  C   UNL     1      -2.337  -0.425   4.874  0.00  0.00    +0.010 A 
ATOM      8  C   UNL     1      -2.595  -0.165   3.526  0.00  0.00    +0.003 A 
ATOM      9  C   UNL     1      -3.738   0.434   2.838  0.00  0.00    +0.006 C 
ATOM     10  C   UNL     1      -4.977   0.743   3.234  0.00  0.00    +0.094 C 
ATOM     11  N   UNL     1      -5.792   1.214   2.186  0.00  0.00    -0.269 N 
ATOM     12  N   UNL     1      -5.675   0.534   0.950  0.00  0.00    -0.224 N 
ATOM     13  C   UNL     1      -4.421   0.202   0.520  0.00  0.00    +0.256 C 
ATOM     14  O   UNL     1      -4.235  -0.418  -0.506  0.00  0.00    -0.272 OA
ATOM     15  C   UNL     1      -3.279   0.657   1.402  0.00  0.00    +0.194 C 
ATOM     16  C   UNL     1      -6.860   0.197   0.158  0.00  0.00    +0.156 C 
ATOM     17  H   UNL     1      -6.399   1.961   2.304  0.00  0.00    +0.170 HD
ENDBRANCH   1   2
BRANCH   1  18
ATOM     18  C   UNL     1      -1.416  -2.035  -0.119  0.00  0.00    +0.234 C 
ATOM     19  O   UNL     1      -1.898  -2.726   0.753  0.00  0.00    -0.274 OA
ATOM     20  N   UNL     1      -0.865  -2.609  -1.207  0.00  0.00    -0.313 N 
ATOM     21  H   UNL     1      -0.480  -2.056  -1.905  0.00  0.00    +0.149 HD
BRANCH  20  22
ATOM     22  C   UNL     1      -0.848  -4.069  -1.335  0.00  0.00    +0.108 C 
BRANCH  22  23
ATOM     23  C   UNL     1      -0.171  -4.457  -2.651  0.00  0.00    +0.052 C 
BRANCH  23  24
ATOM     24  C   UNL     1      -0.154  -5.958  -2.783  0.00  0.00    -0.040 C 
ATOM     25  C   UNL     1      -1.051  -6.727  -3.442  0.00  0.00    -0.001 A 
ATOM     26  C   UNL     1      -2.265  -6.408  -4.203  0.00  0.00    +0.010 A 
ATOM     27  C   UNL     1      -2.973  -7.416  -4.761  0.00  0.00    +0.001 A 
ATOM     28  C   UNL     1      -2.578  -8.754  -4.631  0.00  0.00    +0.002 A 
ATOM     29  C   UNL     1      -1.475  -9.126  -3.947  0.00  0.00    +0.026 A 
ATOM     30  C   UNL     1      -0.655  -8.148  -3.320  0.00  0.00    +0.043 A 
ATOM     31  N   UNL     1       0.444  -8.254  -2.613  0.00  0.00    -0.380 N 
ATOM     32  C   UNL     1       0.874  -6.909  -2.212  0.00  0.00    +0.144 C 
ATOM     33  H   UNL     1       0.900  -9.082  -2.395  0.00  0.00    +0.160 HD
ENDBRANCH  23  24
ENDBRANCH  22  23
ENDBRANCH  20  22
ENDBRANCH   1  18
BRANCH   1  35
ATOM     34  C   UNL     1      -0.019   1.526   0.010  0.00  0.00    +0.006 C 
ATOM     35  C   UNL     1       0.002  -0.004   0.002  0.00  0.00    +0.028 C 
ENDBRANCH   1  35
TORSDOF 6
