REMARK  Name = ZINC49363144
REMARK  9 active torsions:
REMARK  status: ('A' for Active; 'I' for Inactive)
REMARK    1  A    between atoms: C_1  and  C_2
REMARK    2  A    between atoms: C_12  and  C_14
REMARK    3  A    between atoms: C_14  and  S_15
REMARK    4  A    between atoms: S_15  and  C_16
REMARK    5  A    between atoms: N_24  and  C_25
REMARK    6  A    between atoms: C_25  and  C_26
REMARK    7  A    between atoms: C_26  and  C_27
REMARK    8  A    between atoms: C_30  and  O_33
REMARK    9  A    between atoms: O_33  and  C_34
REMARK                            x       y       z     vdW  Elec       q    Type
REMARK                         _______ _______ _______ _____ _____    ______ ____
ROOT
ATOM      1  C   UNL     1       0.154 -11.117  -0.116  0.00  0.00    +0.160 A 
ATOM      2  N   UNL     1       0.160 -11.603   1.112  0.00  0.00    -0.133 NA
ATOM      3  N   UNL     1       0.181 -12.964   1.308  0.00  0.00    -0.125 NA
ATOM      4  C   UNL     1       0.194 -13.777   0.270  0.00  0.00    +0.190 A 
ATOM      5  S   UNL     1       0.170 -12.616  -1.087  0.00  0.00    -0.024 S 
ATOM      6  N   UNL     1       0.216 -15.170   0.240  0.00  0.00    -0.247 N 
ATOM      7  C   UNL     1       0.226 -15.869   1.392  0.00  0.00    +0.305 C 
ATOM      8  O   UNL     1       0.216 -15.284   2.458  0.00  0.00    -0.252 OA
ATOM      9  N   UNL     1       0.248 -17.216   1.363  0.00  0.00    -0.299 N 
ATOM     10  H   UNL     1       0.225 -15.636  -0.611  0.00  0.00    +0.158 HD
ATOM     11  H   UNL     1       0.256 -17.682   0.512  0.00  0.00    +0.150 HD
ENDROOT
BRANCH   1  12
ATOM     12  S   UNL     1       0.128  -9.439  -0.652  0.00  0.00    -0.088 S 
BRANCH  12  13
ATOM     13  C   UNL     1       0.122  -8.485   0.891  0.00  0.00    +0.172 C 
BRANCH  13  25
ATOM     14  C   UNL     1      -0.018   1.503   0.010  0.00  0.00    +0.044 C 
ATOM     15  C   UNL     1       0.002  -0.004   0.002  0.00  0.00    -0.049 A 
ATOM     16  C   UNL     1       0.006  -0.698  -1.199  0.00  0.00    +0.005 A 
ATOM     17  C   UNL     1       0.024  -2.068  -1.235  0.00  0.00    +0.029 A 
ATOM     18  C   UNL     1       0.040  -2.822  -0.038  0.00  0.00    +0.080 A 
ATOM     19  C   UNL     1       0.036  -2.081   1.166  0.00  0.00    +0.041 A 
ATOM     20  C   UNL     1       0.023  -0.709   1.191  0.00  0.00    +0.020 A 
ATOM     21  S   UNL     1       0.059  -3.361   2.397  0.00  0.00    -0.052 S 
ATOM     22  C   UNL     1       0.073  -4.752   1.275  0.00  0.00    +0.165 A 
ATOM     23  N   UNL     1       0.059  -4.165   0.101  0.00  0.00    -0.225 NA
ATOM     24  N   UNL     1       0.093  -6.106   1.569  0.00  0.00    -0.264 N 
ATOM     25  C   UNL     1       0.101  -7.012   0.571  0.00  0.00    +0.229 C 
ATOM     26  O   UNL     1       0.090  -6.643  -0.584  0.00  0.00    -0.275 OA
ATOM     27  H   UNL     1       0.101  -6.402   2.493  0.00  0.00    +0.157 HD
ENDBRANCH  13  25
ENDBRANCH  12  13
ENDBRANCH   1  12
BRANCH   9  28
ATOM     28  C   UNL     1       0.259 -17.976   2.615  0.00  0.00    +0.110 C 
BRANCH  28  29
ATOM     29  C   UNL     1       0.283 -19.473   2.303  0.00  0.00    +0.054 C 
BRANCH  29  30
ATOM     30  C   UNL     1       0.294 -20.255   3.592  0.00  0.00    -0.046 A 
ATOM     31  C   UNL     1       1.497 -20.589   4.186  0.00  0.00    +0.007 A 
ATOM     32  C   UNL     1       1.510 -21.306   5.367  0.00  0.00    +0.046 A 
ATOM     33  C   UNL     1       0.315 -21.690   5.957  0.00  0.00    +0.120 A 
ATOM     34  C   UNL     1      -0.891 -21.353   5.359  0.00  0.00    +0.046 A 
ATOM     35  C   UNL     1      -0.899 -20.632   4.181  0.00  0.00    +0.007 A 
BRANCH  33  36
ATOM     36  O   UNL     1       0.325 -22.396   7.118  0.00  0.00    -0.495 OA
ATOM     37  C   UNL     1      -0.943 -22.758   7.668  0.00  0.00    +0.277 C 
ENDBRANCH  33  36
ENDBRANCH  29  30
ENDBRANCH  28  29
ENDBRANCH   9  28
TORSDOF 7
