REMARK  Name = ZINC35667483
REMARK  11 active torsions:
REMARK  status: ('A' for Active; 'I' for Inactive)
REMARK    1  A    between atoms: C_1  and  C_2
REMARK    2  A    between atoms: C_2  and  C_3
REMARK    3  A    between atoms: C_2  and  C_4
REMARK    4  A    between atoms: C_2  and  C_5
REMARK    5  A    between atoms: C_8  and  N_11
REMARK    6  A    between atoms: C_13  and  C_28
REMARK    7  A    between atoms: N_16  and  C_17
REMARK    8  A    between atoms: C_17  and  C_19
REMARK    9  A    between atoms: C_19  and  N_20
REMARK   10  A    between atoms: N_20  and  C_21
REMARK   11  A    between atoms: C_21  and  C_22
REMARK                            x       y       z     vdW  Elec       q    Type
REMARK                         _______ _______ _______ _____ _____    ______ ____
ROOT
ATOM      1  N   UNL     1       2.658  -1.834  -4.666  0.00  0.00    -0.287 N 
ATOM      2  C   UNL     1       2.107  -2.624  -5.654  0.00  0.00    +0.120 A 
ATOM      3  C   UNL     1       3.049  -2.843  -6.589  0.00  0.00    +0.066 A 
ATOM      4  N   UNL     1       4.207  -2.185  -6.189  0.00  0.00    -0.326 N 
ATOM      5  C   UNL     1       3.947  -1.566  -5.008  0.00  0.00    +0.205 A 
ATOM      6  N   UNL     1       4.806  -0.828  -4.306  0.00  0.00    -0.148 NA
ATOM      7  H   UNL     1       5.049  -2.169  -6.669  0.00  0.00    +0.169 HD
ENDROOT
BRANCH   1  11
ATOM      8  C   UNL     1       0.707  -0.490  -1.238  0.00  0.00    -0.042 A 
ATOM      9  C   UNL     1       0.035  -1.284  -2.148  0.00  0.00    +0.006 A 
ATOM     10  C   UNL     1       0.678  -1.732  -3.285  0.00  0.00    +0.026 A 
ATOM     11  C   UNL     1       2.002  -1.382  -3.514  0.00  0.00    +0.049 A 
ATOM     12  C   UNL     1       2.676  -0.584  -2.599  0.00  0.00    +0.026 A 
ATOM     13  C   UNL     1       2.025  -0.136  -1.466  0.00  0.00    +0.006 A 
BRANCH   8  15
ATOM     14  C   UNL     1      -0.019   1.526   0.010  0.00  0.00    +0.015 C 
ATOM     15  C   UNL     1       0.002  -0.004   0.002  0.00  0.00    -0.013 C 
ATOM     16  C   UNL     1       0.742  -0.511   1.242  0.00  0.00    +0.015 C 
ATOM     17  C   UNL     1      -1.433  -0.534   0.013  0.00  0.00    +0.015 C 
ENDBRANCH   8  15
ENDBRANCH   1  11
BRANCH   3  18
ATOM     18  C   UNL     1       2.884  -3.641  -7.823  0.00  0.00    -0.000 A 
ATOM     19  C   UNL     1       1.659  -4.247  -8.106  0.00  0.00    +0.010 A 
ATOM     20  C   UNL     1       1.511  -4.991  -9.259  0.00  0.00    +0.001 A 
ATOM     21  C   UNL     1       2.574  -5.137 -10.133  0.00  0.00    +0.000 A 
ATOM     22  C   UNL     1       3.791  -4.539  -9.857  0.00  0.00    +0.001 A 
ATOM     23  C   UNL     1       3.950  -3.787  -8.711  0.00  0.00    +0.010 A 
ENDBRANCH   3  18
BRANCH   6  24
ATOM     24  C   UNL     1       6.043  -0.642  -4.753  0.00  0.00    +0.222 C 
ATOM     25  O   UNL     1       6.391  -1.146  -5.804  0.00  0.00    -0.276 OA
BRANCH  24  26
ATOM     26  C   UNL     1       7.014   0.193  -3.959  0.00  0.00    +0.017 C 
BRANCH  26  27
ATOM     27  N   UNL     1       8.303   0.245  -4.661  0.00  0.00    +0.387 N 
ATOM     28  H   UNL     1       8.668  -0.690  -4.763  0.00  0.00    -0.085 HD
ATOM     29  H   UNL     1       8.173   0.656  -5.573  0.00  0.00    -0.085 HD
BRANCH  27  30
ATOM     30  C   UNL     1       9.250   1.058  -3.887  0.00  0.00    -0.046 C 
BRANCH  30  31
ATOM     31  C   UNL     1      10.572   1.112  -4.607  0.00  0.00    -0.064 A 
ATOM     32  C   UNL     1      11.537   0.154  -4.353  0.00  0.00    +0.002 A 
ATOM     33  C   UNL     1      12.750   0.203  -5.014  0.00  0.00    +0.000 A 
ATOM     34  C   UNL     1      12.999   1.209  -5.929  0.00  0.00    +0.000 A 
ATOM     35  C   UNL     1      12.034   2.166  -6.184  0.00  0.00    +0.000 A 
ATOM     36  C   UNL     1      10.819   2.114  -5.526  0.00  0.00    +0.002 A 
ENDBRANCH  30  31
ENDBRANCH  27  30
ENDBRANCH  26  27
ENDBRANCH  24  26
ENDBRANCH   6  24
TORSDOF 8
