REMARK  Name = ZINC03846551
REMARK  10 active torsions:
REMARK  status: ('A' for Active; 'I' for Inactive)
REMARK    1  A    between atoms: C_1  and  N_2
REMARK    2  A    between atoms: C_9  and  O_32
REMARK    3  A    between atoms: C_10  and  C_13
REMARK    4  A    between atoms: C_13  and  C_15
REMARK    5  A    between atoms: C_15  and  C_16
REMARK    6  A    between atoms: C_16  and  C_18
REMARK    7  A    between atoms: C_16  and  N_54
REMARK    8  A    between atoms: C_23  and  O_24
REMARK    9  A    between atoms: C_25  and  C_26
REMARK   10  A    between atoms: C_25  and  N_54
REMARK                            x       y       z     vdW  Elec       q    Type
REMARK                         _______ _______ _______ _____ _____    ______ ____
ROOT
ATOM      1  C   UNL     1       1.229  -2.185  -0.023  0.00  0.00    -0.029 C 
ENDROOT
BRANCH   1   2
ATOM      2  C   UNL     1       1.196  -0.678  -0.016  0.00  0.00    -0.020 A 
ATOM      3  C   UNL     1       2.377   0.039  -0.021  0.00  0.00    +0.005 A 
ATOM      4  C   UNL     1       2.348   1.421  -0.014  0.00  0.00    +0.000 A 
ATOM      5  C   UNL     1       1.137   2.089  -0.003  0.00  0.00    +0.004 A 
ATOM      6  C   UNL     1      -0.046   1.377   0.002  0.00  0.00    +0.045 A 
ATOM      7  C   UNL     1      -0.019  -0.011  -0.005  0.00  0.00    +0.118 A 
BRANCH   7   8
ATOM      8  O   UNL     1      -1.182  -0.714   0.000  0.00  0.00    -0.507 OA
ATOM      9  H   UNL     1      -1.525  -0.913  -0.881  0.00  0.00    +0.292 HD
ENDBRANCH   7   8
ENDBRANCH   1   2
BRANCH   1  10
ATOM     10  N   UNL     1       2.546  -2.647  -0.501  0.00  0.00    +0.387 N 
ATOM     11  H   UNL     1       2.733  -3.584  -0.126  0.00  0.00    -0.085 HD
ATOM     12  H   UNL     1       3.271  -1.997  -0.175  0.00  0.00    -0.085 HD
BRANCH  10  13
ATOM     13  C   UNL     1       2.566  -2.699  -1.975  0.00  0.00    -0.046 C 
BRANCH  13  14
ATOM     14  C   UNL     1       3.921  -3.173  -2.434  0.00  0.00    -0.062 A 
ATOM     15  C   UNL     1       4.940  -2.268  -2.690  0.00  0.00    +0.021 A 
ATOM     16  C   UNL     1       6.171  -2.740  -3.106  0.00  0.00    +0.111 A 
ATOM     17  N   UNL     1       6.378  -4.032  -3.267  0.00  0.00    -0.263 NA
ATOM     18  C   UNL     1       5.431  -4.921  -3.037  0.00  0.00    +0.111 A 
ATOM     19  C   UNL     1       4.177  -4.523  -2.615  0.00  0.00    +0.021 A 
ENDBRANCH  13  14
ENDBRANCH  10  13
ENDBRANCH   1  10
BRANCH   1  20
ATOM     20  C   UNL     1       0.999  -2.707   1.397  0.00  0.00    +0.069 C 
BRANCH  20  21
ATOM     21  C   UNL     1       0.909  -4.211   1.370  0.00  0.00    +0.171 C 
ATOM     22  O   UNL     1       1.019  -4.807   0.319  0.00  0.00    -0.292 OA
BRANCH  21  32
ATOM     23  C   UNL     1       0.471  -4.173   6.273  0.00  0.00    +0.152 C 
ATOM     24  N   UNL     1       0.480  -4.907   5.006  0.00  0.00    -0.310 N 
ATOM     25  C   UNL     1       0.284  -6.273   5.020  0.00  0.00    +0.055 A 
ATOM     26  C   UNL     1       0.079  -6.938   6.226  0.00  0.00    +0.026 A 
ATOM     27  C   UNL     1      -0.117  -8.302   6.234  0.00  0.00    +0.002 A 
ATOM     28  C   UNL     1      -0.114  -9.024   5.048  0.00  0.00    +0.001 A 
ATOM     29  C   UNL     1       0.084  -8.394   3.853  0.00  0.00    +0.013 A 
ATOM     30  C   UNL     1       0.286  -7.009   3.821  0.00  0.00    +0.041 A 
ATOM     31  C   UNL     1       0.501  -6.316   2.548  0.00  0.00    +0.142 A 
ATOM     32  C   UNL     1       0.697  -4.929   2.572  0.00  0.00    +0.124 A 
ATOM     33  C   UNL     1       0.686  -4.234   3.862  0.00  0.00    +0.266 A 
ATOM     34  O   UNL     1       0.861  -3.029   3.897  0.00  0.00    -0.267 OA
BRANCH  31  35
ATOM     35  O   UNL     1       0.509  -6.995   1.383  0.00  0.00    -0.505 OA
ATOM     36  H   UNL     1       1.345  -7.402   1.118  0.00  0.00    +0.292 HD
ENDBRANCH  31  35
ENDBRANCH  21  32
ENDBRANCH  20  21
ENDBRANCH   1  20
TORSDOF 9
