REMARK  Name = ZINC40104172
REMARK  7 active torsions:
REMARK  status: ('A' for Active; 'I' for Inactive)
REMARK    1  A    between atoms: C_1  and  C_2
REMARK    2  A    between atoms: C_2  and  C_4
REMARK    3  A    between atoms: C_2  and  N_14
REMARK    4  A    between atoms: C_7  and  S_10
REMARK    5  A    between atoms: S_10  and  N_13
REMARK    6  A    between atoms: N_14  and  C_15
REMARK    7  A    between atoms: N_18  and  C_19
REMARK                            x       y       z     vdW  Elec       q    Type
REMARK                         _______ _______ _______ _____ _____    ______ ____
ROOT
ATOM      1  N   UNL     1       0.600  -0.426  -1.300  0.00  0.00    -0.282 N 
ATOM      2  C   UNL     1       2.014  -0.177  -1.593  0.00  0.00    +0.134 C 
ATOM      3  C   UNL     1      -0.202  -0.953  -2.246  0.00  0.00    +0.307 C 
ATOM      4  O   UNL     1      -1.375  -1.160  -2.003  0.00  0.00    -0.252 OA
ATOM      5  N   UNL     1       0.297  -1.251  -3.462  0.00  0.00    -0.269 N 
ATOM      6  H   UNL     1       1.213  -1.019  -3.681  0.00  0.00    +0.156 HD
ENDROOT
BRANCH   5   7
ATOM      7  C   UNL     1      -0.508  -1.895  -4.412  0.00  0.00    +0.038 A 
ATOM      8  C   UNL     1       0.049  -2.825  -5.278  0.00  0.00    +0.027 A 
ATOM      9  C   UNL     1      -0.744  -3.461  -6.215  0.00  0.00    +0.051 A 
ATOM     10  C   UNL     1      -2.097  -3.172  -6.291  0.00  0.00    +0.173 A 
ATOM     11  C   UNL     1      -2.659  -2.240  -5.422  0.00  0.00    +0.174 A 
ATOM     12  C   UNL     1      -1.864  -1.607  -4.481  0.00  0.00    +0.073 A 
ATOM     13  O   UNL     1      -3.992  -2.135  -5.697  0.00  0.00    -0.395 OA
ATOM     14  C   UNL     1      -4.161  -2.708  -7.007  0.00  0.00    +0.589 C 
ATOM     15  O   UNL     1      -3.079  -3.653  -7.110  0.00  0.00    -0.395 OA
ATOM     16  F   UNL     1      -4.047  -1.722  -7.993  0.00  0.00    -0.125 F 
ATOM     17  F   UNL     1      -5.394  -3.361  -7.104  0.00  0.00    -0.125 F 
ENDBRANCH   5   7
BRANCH   1  19
ATOM     18  C   UNL     1       0.354   1.362   0.351  0.00  0.00    +0.033 C 
ATOM     19  C   UNL     1       0.058  -0.103   0.023  0.00  0.00    +0.104 C 
BRANCH  19  20
ATOM     20  C   UNL     1       0.699  -0.990   1.059  0.00  0.00    -0.027 A 
ATOM     21  C   UNL     1       2.073  -0.992   1.212  0.00  0.00    +0.007 A 
ATOM     22  C   UNL     1       2.661  -1.806   2.162  0.00  0.00    +0.029 A 
ATOM     23  C   UNL     1       1.875  -2.616   2.960  0.00  0.00    +0.105 A 
ATOM     24  C   UNL     1       0.501  -2.613   2.808  0.00  0.00    +0.029 A 
ATOM     25  C   UNL     1      -0.087  -1.796   1.860  0.00  0.00    +0.007 A 
BRANCH  23  26
ATOM     26  S   UNL     1       2.625  -3.654   4.171  0.00  0.00    +0.056 S 
ATOM     27  O   UNL     1       1.714  -4.717   4.415  0.00  0.00    -0.153 OA
ATOM     28  O   UNL     1       3.961  -3.878   3.743  0.00  0.00    -0.153 OA
BRANCH  26  29
ATOM     29  N   UNL     1       2.718  -2.780   5.575  0.00  0.00    -0.204 NA
ATOM     30  H   UNL     1       2.386  -1.869   5.602  0.00  0.00    +0.144 HD
ATOM     31  H   UNL     1       3.105  -3.179   6.370  0.00  0.00    +0.144 HD
ENDBRANCH  26  29
ENDBRANCH  23  26
ENDBRANCH  19  20
ENDBRANCH   1  19
TORSDOF 5
