REMARK  Name = ZINC24716463
REMARK  9 active torsions:
REMARK  status: ('A' for Active; 'I' for Inactive)
REMARK    1  A    between atoms: C_1  and  C_2
REMARK    2  A    between atoms: C_6  and  N_8
REMARK    3  A    between atoms: N_8  and  S_9
REMARK    4  A    between atoms: S_9  and  C_12
REMARK    5  A    between atoms: C_16  and  C_18
REMARK    6  A    between atoms: N_20  and  C_21
REMARK    7  A    between atoms: C_21  and  C_22
REMARK    8  A    between atoms: C_27  and  C_28
REMARK    9  A    between atoms: C_28  and  N_29
REMARK                            x       y       z     vdW  Elec       q    Type
REMARK                         _______ _______ _______ _____ _____    ______ ____
ROOT
ATOM      1  C   UNL     1       1.145  -4.710   2.576  0.00  0.00    +0.109 A 
ATOM      2  C   UNL     1       0.910  -5.975   2.066  0.00  0.00    +0.030 A 
ATOM      3  C   UNL     1      -0.142  -6.192   1.195  0.00  0.00    +0.022 A 
ATOM      4  C   UNL     1      -0.970  -5.147   0.833  0.00  0.00    +0.053 A 
ATOM      5  C   UNL     1      -0.735  -3.867   1.341  0.00  0.00    +0.057 A 
ATOM      6  C   UNL     1       0.330  -3.656   2.219  0.00  0.00    +0.043 A 
ATOM      7 CL   UNL     1      -2.295  -5.422  -0.254  0.00  0.00    -0.083 Cl
ENDROOT
BRANCH   5   8
ATOM      8  C   UNL     1      -1.612  -2.742   0.955  0.00  0.00    +0.246 C 
ATOM      9  O   UNL     1      -2.538  -2.929   0.190  0.00  0.00    -0.270 OA
ATOM     10  N   UNL     1      -1.386  -1.510   1.451  0.00  0.00    -0.307 N 
ATOM     11  H   UNL     1      -0.548  -1.341   2.143  0.00  0.00    +0.149 HD
BRANCH  10  12
ATOM     12  C   UNL     1      -2.256  -0.395   1.068  0.00  0.00    +0.140 C 
BRANCH  12  13
ATOM     13  C   UNL     1      -1.791   0.863   1.755  0.00  0.00    -0.025 A 
ATOM     14  C   UNL     1      -2.436   1.307   2.895  0.00  0.00    +0.005 A 
ATOM     15  C   UNL     1      -2.013   2.464   3.522  0.00  0.00    +0.000 A 
ATOM     16  C   UNL     1      -0.942   3.175   3.012  0.00  0.00    +0.000 A 
ATOM     17  C   UNL     1      -0.295   2.729   1.875  0.00  0.00    +0.006 A 
ATOM     18  C   UNL     1      -0.718   1.572   1.248  0.00  0.00    -0.021 A 
BRANCH  18  19
ATOM     19  C   UNL     1      -0.013   1.086   0.008  0.00  0.00    +0.178 C 
BRANCH  19  20
ATOM     20  N   UNL     1      -0.721   1.571  -1.179  0.00  0.00    -0.267 N 
ATOM     21  C   UNL     1      -0.183   2.288  -2.187  0.00  0.00    +0.108 A 
ATOM     22  C   UNL     1      -1.162   2.534  -3.088  0.00  0.00    +0.041 A 
ATOM     23  C   UNL     1      -2.342   1.956  -2.609  0.00  0.00    +0.134 A 
ATOM     24  N   UNL     1      -2.079   1.378  -1.464  0.00  0.00    -0.179 NA
ENDBRANCH  19  20
ENDBRANCH  18  19
ENDBRANCH  12  13
ENDBRANCH  10  12
ENDBRANCH   5   8
BRANCH   1  25
ATOM     25  S   UNL     1       2.489  -4.445   3.684  0.00  0.00    +0.072 S 
ATOM     26  O   UNL     1       3.432  -5.479   3.434  0.00  0.00    -0.150 OA
ATOM     27  O   UNL     1       2.826  -3.068   3.592  0.00  0.00    -0.150 OA
BRANCH  25  28
ATOM     28  N   UNL     1       1.914  -4.690   5.218  0.00  0.00    -0.216 N 
ATOM     29  H   UNL     1       1.879  -3.854   5.932  0.00  0.00    +0.174 HD
BRANCH  28  35
ATOM     30  C   UNL     1      -1.436  -7.507   7.453  0.00  0.00    +0.044 C 
ATOM     31  C   UNL     1      -0.146  -7.354   6.689  0.00  0.00    -0.049 A 
ATOM     32  C   UNL     1       0.606  -8.471   6.373  0.00  0.00    +0.003 A 
ATOM     33  C   UNL     1       1.791  -8.335   5.673  0.00  0.00    +0.002 A 
ATOM     34  C   UNL     1       2.228  -7.082   5.288  0.00  0.00    +0.024 A 
ATOM     35  C   UNL     1       1.475  -5.958   5.605  0.00  0.00    +0.048 A 
ATOM     36  C   UNL     1       0.288  -6.098   6.312  0.00  0.00    +0.027 A 
ENDBRANCH  28  35
ENDBRANCH  25  28
ENDBRANCH   1  25
TORSDOF 8
