REMARK  Name = ZINC62319770
REMARK  7 active torsions:
REMARK  status: ('A' for Active; 'I' for Inactive)
REMARK    1  A    between atoms: C_1  and  C_2
REMARK    2  A    between atoms: C_2  and  N_3
REMARK    3  A    between atoms: C_4  and  C_6
REMARK    4  A    between atoms: N_8  and  C_18
REMARK    5  A    between atoms: C_13  and  N_17
REMARK    6  A    between atoms: C_18  and  C_19
REMARK    7  A    between atoms: C_18  and  C_20
REMARK                            x       y       z     vdW  Elec       q    Type
REMARK                         _______ _______ _______ _____ _____    ______ ____
ROOT
ATOM      1  C   UNL     1      -3.220  -2.323   0.069  0.00  0.00    +0.100 A 
ATOM      2  C   UNL     1      -3.454  -3.677   0.177  0.00  0.00    +0.103 A 
ATOM      3  N   UNL     1      -4.689  -4.180   0.314  0.00  0.00    -0.343 N 
ATOM      4  C   UNL     1      -5.816  -3.388   0.357  0.00  0.00    +0.055 A 
ATOM      5  C   UNL     1      -7.076  -3.959   0.501  0.00  0.00    +0.026 A 
ATOM      6  C   UNL     1      -8.199  -3.159   0.544  0.00  0.00    +0.004 A 
ATOM      7  C   UNL     1      -8.095  -1.783   0.446  0.00  0.00    +0.023 A 
ATOM      8  C   UNL     1      -6.851  -1.186   0.302  0.00  0.00    +0.037 A 
ATOM      9  C   UNL     1      -5.703  -1.990   0.257  0.00  0.00    +0.067 A 
ATOM     10  C   UNL     1      -4.364  -1.397   0.112  0.00  0.00    +0.203 A 
ATOM     11  O   UNL     1      -4.209  -0.192   0.026  0.00  0.00    -0.286 OA
ENDROOT
BRANCH   1  13
ATOM     12  N   UNL     1      -1.621  -0.482  -0.066  0.00  0.00    -0.311 N 
ATOM     13  C   UNL     1      -1.849  -1.810  -0.080  0.00  0.00    +0.249 C 
ATOM     14  O   UNL     1      -0.921  -2.586  -0.215  0.00  0.00    -0.270 OA
ATOM     15  H   UNL     1      -2.366   0.138  -0.034  0.00  0.00    +0.149 HD
BRANCH  12  17
ATOM     16  C   UNL     1      -0.268   1.555  -0.077  0.00  0.00    +0.024 C 
ATOM     17  C   UNL     1      -0.247   0.026  -0.101  0.00  0.00    +0.101 C 
ENDBRANCH  12  17
ENDBRANCH   1  13
BRANCH   8  18
ATOM     18  N   UNL     1      -6.744   0.196   0.202  0.00  0.00    -0.357 N 
ATOM     19  H   UNL     1      -7.544   0.742   0.151  0.00  0.00    +0.142 HD
ATOM     20  H   UNL     1      -5.869   0.615   0.185  0.00  0.00    +0.142 HD
ENDBRANCH   8  18
BRANCH   3  21
ATOM     21  C   UNL     1      -4.847  -5.632   0.420  0.00  0.00    +0.081 C 
ATOM     22  C   UNL     1      -4.171  -6.308  -0.774  0.00  0.00    +0.030 C 
ATOM     23  C   UNL     1      -4.200  -6.122   1.717  0.00  0.00    +0.030 C 
ENDBRANCH   3  21
TORSDOF 4
