REMARK  Name = ZINC12927744
REMARK  8 active torsions:
REMARK  status: ('A' for Active; 'I' for Inactive)
REMARK    1  A    between atoms: C_1  and  C_2
REMARK    2  A    between atoms: C_2  and  C_9
REMARK    3  A    between atoms: C_9  and  S_10
REMARK    4  A    between atoms: S_10  and  C_11
REMARK    5  A    between atoms: C_16  and  C_17
REMARK    6  A    between atoms: N_19  and  C_20
REMARK    7  A    between atoms: C_25  and  C_26
REMARK    8  A    between atoms: C_25  and  N_57
REMARK                            x       y       z     vdW  Elec       q    Type
REMARK                         _______ _______ _______ _____ _____    ______ ____
ROOT
ATOM      1  C   UNL     1      -2.571   5.035  -2.349  0.00  0.00    +0.020 A 
ATOM      2  C   UNL     1      -3.212   5.505  -3.490  0.00  0.00    +0.015 A 
ATOM      3  C   UNL     1      -3.258   4.726  -4.626  0.00  0.00    +0.001 A 
ATOM      4  C   UNL     1      -2.664   3.473  -4.644  0.00  0.00    +0.001 A 
ATOM      5  C   UNL     1      -2.021   2.992  -3.525  0.00  0.00    +0.014 A 
ATOM      6  C   UNL     1      -1.964   3.769  -2.365  0.00  0.00    +0.050 A 
ENDROOT
BRANCH   6   7
ATOM      7  C   UNL     1      -1.278   3.260  -1.164  0.00  0.00    +0.245 C 
ATOM      8  O   UNL     1      -1.231   3.939  -0.157  0.00  0.00    -0.270 OA
ATOM      9  N   UNL     1      -0.701   2.042  -1.183  0.00  0.00    -0.310 N 
ATOM     10  H   UNL     1      -0.739   1.500  -1.987  0.00  0.00    +0.149 HD
BRANCH   9  11
ATOM     11  C   UNL     1      -0.019   1.536   0.011  0.00  0.00    +0.055 C 
ATOM     12  C   UNL     1       1.468   1.960  -0.001  0.00  0.00    +0.002 C 
ATOM     13  C   UNL     1       2.191   0.705   0.550  0.00  0.00    -0.077 C 
ATOM     14  C   UNL     1       0.002  -0.004   0.002  0.00  0.00    -0.056 C 
ATOM     15  N   UNL     1       1.412  -0.392  -0.047  0.00  0.00    +0.384 N 
ATOM     16  H   UNL     1       1.700  -0.531  -1.023  0.00  0.00    -0.081 HD
BRANCH  15  17
ATOM     17  C   UNL     1       1.632  -1.659   0.714  0.00  0.00    -0.043 C 
BRANCH  17  18
ATOM     18  C   UNL     1       3.020  -2.182   0.446  0.00  0.00    -0.064 A 
ATOM     19  C   UNL     1       3.238  -3.061  -0.599  0.00  0.00    +0.002 A 
ATOM     20  C   UNL     1       4.511  -3.537  -0.847  0.00  0.00    +0.000 A 
ATOM     21  C   UNL     1       5.566  -3.141  -0.046  0.00  0.00    +0.000 A 
ATOM     22  C   UNL     1       5.347  -2.265   1.001  0.00  0.00    +0.000 A 
ATOM     23  C   UNL     1       4.074  -1.786   1.247  0.00  0.00    +0.002 A 
ENDBRANCH  17  18
ENDBRANCH  15  17
ENDBRANCH   9  11
ENDBRANCH   6   7
BRANCH   1  24
ATOM     24  S   UNL     1      -2.517   6.025  -0.892  0.00  0.00    -0.122 S 
BRANCH  24  25
ATOM     25  C   UNL     1      -3.415   7.532  -1.352  0.00  0.00    +0.109 C 
BRANCH  25  27
ATOM     26  C   UNL     1      -3.964   7.781   1.090  0.00  0.00    +0.042 C 
ATOM     27  C   UNL     1      -3.443   8.492  -0.161  0.00  0.00    +0.119 C 
ATOM     28  C   UNL     1      -4.292   9.708  -0.476  0.00  0.00    +0.244 C 
ATOM     29  O   UNL     1      -5.475   9.726  -0.742  0.00  0.00    -0.273 OA
ATOM     30  N   UNL     1      -3.459  10.764  -0.398  0.00  0.00    -0.238 N 
ATOM     31  C   UNL     1      -2.214  10.389  -0.081  0.00  0.00    +0.307 C 
ATOM     32  O   UNL     1      -1.287  11.164   0.048  0.00  0.00    -0.252 OA
ATOM     33  N   UNL     1      -2.105   9.058   0.081  0.00  0.00    -0.285 N 
ATOM     34  H   UNL     1      -3.728  11.683  -0.553  0.00  0.00    +0.159 HD
ATOM     35  H   UNL     1      -1.301   8.566   0.311  0.00  0.00    +0.151 HD
ENDBRANCH  25  27
ENDBRANCH  24  25
ENDBRANCH   1  24
TORSDOF 7
