REMARK  Name = ZINC32605489
REMARK  5 active torsions:
REMARK  status: ('A' for Active; 'I' for Inactive)
REMARK    1  A    between atoms: C_7  and  N_34
REMARK    2  A    between atoms: C_8  and  C_11
REMARK    3  A    between atoms: N_13  and  N_14
REMARK    4  A    between atoms: C_15  and  C_17
REMARK    5  A    between atoms: C_20  and  N_23
REMARK                            x       y       z     vdW  Elec       q    Type
REMARK                         _______ _______ _______ _____ _____    ______ ____
ROOT
ATOM      1  N   UNL     1      -5.061   7.805  -0.050  0.00  0.00    -0.230 N 
ATOM      2  C   UNL     1      -5.124   9.148  -0.150  0.00  0.00    +0.260 C 
ATOM      3  O   UNL     1      -4.101   9.799  -0.243  0.00  0.00    -0.269 OA
ATOM      4  H   UNL     1      -5.987   7.216   0.034  0.00  0.00    +0.173 HD
ENDROOT
BRANCH   2   5
ATOM      5  C   UNL     1      -6.434   9.828  -0.145  0.00  0.00    +0.038 A 
ATOM      6  C   UNL     1      -7.610   9.081  -0.044  0.00  0.00    +0.015 A 
ATOM      7  C   UNL     1      -8.830   9.720  -0.035  0.00  0.00    +0.025 A 
ATOM      8  C   UNL     1      -8.893  11.105  -0.138  0.00  0.00    +0.045 A 
ATOM      9  C   UNL     1      -7.724  11.851  -0.244  0.00  0.00    +0.025 A 
ATOM     10  C   UNL     1      -6.500  11.220  -0.248  0.00  0.00    +0.015 A 
BRANCH   8  11
ATOM     11  N   UNL     1     -10.133  11.749  -0.135  0.00  0.00    -0.202 N 
ATOM     12  C   UNL     1     -10.299  13.081  -0.224  0.00  0.00    +0.258 C 
ATOM     13  O   UNL     1      -9.408  13.902  -0.317  0.00  0.00    -0.269 OA
ATOM     14  C   UNL     1     -11.746  13.379  -0.191  0.00  0.00    +0.050 A 
ATOM     15  C   UNL     1     -12.497  14.542  -0.248  0.00  0.00    +0.014 A 
ATOM     16  C   UNL     1     -13.880  14.471  -0.184  0.00  0.00    +0.001 A 
ATOM     17  C   UNL     1     -14.514  13.249  -0.064  0.00  0.00    +0.001 A 
ATOM     18  C   UNL     1     -13.776  12.077  -0.006  0.00  0.00    +0.014 A 
ATOM     19  C   UNL     1     -12.393  12.132  -0.069  0.00  0.00    +0.050 A 
ATOM     20  C   UNL     1     -11.317  11.119  -0.037  0.00  0.00    +0.258 C 
ATOM     21  O   UNL     1     -11.476   9.919   0.062  0.00  0.00    -0.269 OA
ENDBRANCH   8  11
ENDBRANCH   2   5
BRANCH   1  24
ATOM     22  C   UNL     1      -3.756   5.817   0.045  0.00  0.00    +0.263 C 
ATOM     23  O   UNL     1      -4.779   5.166   0.139  0.00  0.00    -0.269 OA
ATOM     24  N   UNL     1      -3.818   7.159  -0.054  0.00  0.00    -0.230 N 
ATOM     25  H   UNL     1      -2.893   7.748  -0.139  0.00  0.00    +0.173 HD
BRANCH  22  33
ATOM     26  C   UNL     1       0.314   1.211  -0.006  0.00  0.00    +0.001 A 
ATOM     27  C   UNL     1       1.441   2.028   0.011  0.00  0.00    +0.002 A 
ATOM     28  C   UNL     1       1.324   3.385   0.031  0.00  0.00    +0.026 A 
ATOM     29  C   UNL     1       0.050   3.976   0.034  0.00  0.00    +0.048 A 
ATOM     30  C   UNL     1      -1.093   3.142   0.017  0.00  0.00    +0.020 A 
ATOM     31  C   UNL     1      -0.938   1.750  -0.008  0.00  0.00    +0.012 A 
ATOM     32  C   UNL     1      -2.378   3.737   0.021  0.00  0.00    +0.047 A 
ATOM     33  C   UNL     1      -2.449   5.138   0.041  0.00  0.00    +0.075 A 
ATOM     34  C   UNL     1      -1.261   5.886   0.057  0.00  0.00    +0.098 A 
ATOM     35  N   UNL     1      -0.087   5.309   0.054  0.00  0.00    -0.360 N 
ATOM     36  H   UNL     1       0.805   5.954   0.068  0.00  0.00    +0.165 HD
BRANCH  32  37
ATOM     37  N   UNL     1      -3.519   2.966   0.004  0.00  0.00    -0.357 N 
ATOM     38  H   UNL     1      -4.508   3.448   0.007  0.00  0.00    +0.142 HD
ATOM     39  H   UNL     1      -3.442   1.869  -0.012  0.00  0.00    +0.142 HD
ENDBRANCH  32  37
ENDBRANCH  22  33
ENDBRANCH   1  24
TORSDOF 5
