REMARK  Name = ZINC36542911
REMARK  15 active torsions:
REMARK  status: ('A' for Active; 'I' for Inactive)
REMARK    1  A    between atoms: C_1  and  C_2
REMARK    2  A    between atoms: C_2  and  C_3
REMARK    3  A    between atoms: C_3  and  C_5
REMARK    4  A    between atoms: C_3  and  C_11
REMARK    5  A    between atoms: N_13  and  C_14
REMARK    6  A    between atoms: N_13  and  C_21
REMARK    7  A    between atoms: C_21  and  C_23
REMARK    8  A    between atoms: C_21  and  C_32
REMARK    9  A    between atoms: C_24  and  O_31
REMARK   10  A    between atoms: C_26  and  O_30
REMARK   11  A    between atoms: C_28  and  O_29
REMARK   12  A    between atoms: N_34  and  C_35
REMARK   13  A    between atoms: C_35  and  C_36
REMARK   14  A    between atoms: C_35  and  C_37
REMARK   15  A    between atoms: C_35  and  C_38
REMARK                            x       y       z     vdW  Elec       q    Type
REMARK                         _______ _______ _______ _____ _____    ______ ____
ROOT
ATOM      1  C   UNL     1       3.731   1.684  -0.739  0.00  0.00    +0.204 C 
ENDROOT
BRANCH   1   2
ATOM      2  C   UNL     1       3.467   0.715   0.385  0.00  0.00    +0.065 A 
ATOM      3  C   UNL     1       2.187   0.587   0.903  0.00  0.00    +0.129 A 
ATOM      4  C   UNL     1       1.944  -0.305   1.937  0.00  0.00    +0.091 A 
ATOM      5  C   UNL     1       2.981  -1.068   2.453  0.00  0.00    +0.124 A 
ATOM      6  C   UNL     1       4.261  -0.939   1.934  0.00  0.00    +0.091 A 
ATOM      7  C   UNL     1       4.503  -0.051   0.897  0.00  0.00    +0.129 A 
BRANCH   7   8
ATOM      8  O   UNL     1       5.756   0.071   0.385  0.00  0.00    -0.506 OA
ATOM      9  H   UNL     1       6.297   0.741   0.826  0.00  0.00    +0.292 HD
ENDBRANCH   7   8
BRANCH   5  10
ATOM     10  O   UNL     1       2.744  -1.940   3.467  0.00  0.00    -0.507 OA
ATOM     11  H   UNL     1       2.500  -2.829   3.172  0.00  0.00    +0.292 HD
ENDBRANCH   5  10
BRANCH   3  12
ATOM     12  O   UNL     1       1.171   1.334   0.398  0.00  0.00    -0.506 OA
ATOM     13  H   UNL     1       0.658   0.887  -0.290  0.00  0.00    +0.292 HD
ENDBRANCH   3  12
ENDBRANCH   1   2
BRANCH   1  14
ATOM     14  C   UNL     1       3.750   3.090  -0.197  0.00  0.00    +0.239 C 
ATOM     15  O   UNL     1       2.714   3.712  -0.088  0.00  0.00    -0.273 OA
ATOM     16  N   UNL     1       4.917   3.656   0.168  0.00  0.00    -0.309 N 
ATOM     17  H   UNL     1       5.745   3.158   0.081  0.00  0.00    +0.149 HD
BRANCH  16  18
ATOM     18  C   UNL     1       4.935   5.022   0.695  0.00  0.00    +0.026 C 
ATOM     19  C   UNL     1       4.080   5.092   1.961  0.00  0.00    +0.031 C 
ATOM     20  C   UNL     1       6.374   5.421   1.030  0.00  0.00    +0.031 C 
ATOM     21  C   UNL     1       4.372   5.982  -0.355  0.00  0.00    +0.031 C 
ENDBRANCH  16  18
ENDBRANCH   1  14
BRANCH   1  24
ATOM     22  C   UNL     1       2.304   0.346  -2.193  0.00  0.00    +0.228 C 
ATOM     23  O   UNL     1       2.900  -0.643  -1.821  0.00  0.00    -0.275 OA
ATOM     24  N   UNL     1       2.674   1.563  -1.746  0.00  0.00    -0.253 N 
BRANCH  24  25
ATOM     25  C   UNL     1       2.047   2.712  -2.244  0.00  0.00    +0.056 A 
ATOM     26  C   UNL     1       0.794   3.080  -1.774  0.00  0.00    +0.025 A 
ATOM     27  C   UNL     1       0.178   4.214  -2.267  0.00  0.00    +0.002 A 
ATOM     28  C   UNL     1       0.808   4.982  -3.229  0.00  0.00    +0.002 A 
ATOM     29  C   UNL     1       2.056   4.619  -3.701  0.00  0.00    +0.022 A 
ATOM     30  C   UNL     1       2.680   3.488  -3.207  0.00  0.00    +0.062 A 
ATOM     31 CL   UNL     1       4.250   3.036  -3.794  0.00  0.00    -0.082 Cl
ENDBRANCH  24  25
BRANCH  22  32
ATOM     32  C   UNL     1       1.152   0.215  -3.155  0.00  0.00    +0.105 C 
BRANCH  32  33
ATOM     33  C   UNL     1       1.654   0.379  -4.566  0.00  0.00    -0.036 A 
ATOM     34  C   UNL     1       2.603  -0.492  -5.068  0.00  0.00    +0.004 A 
ATOM     35  C   UNL     1       3.063  -0.341  -6.363  0.00  0.00    +0.000 A 
ATOM     36  C   UNL     1       2.575   0.680  -7.155  0.00  0.00    +0.000 A 
ATOM     37  C   UNL     1       1.626   1.551  -6.654  0.00  0.00    +0.000 A 
ATOM     38  C   UNL     1       1.162   1.398  -5.361  0.00  0.00    +0.004 A 
ENDBRANCH  32  33
BRANCH  32  40
ATOM     39  C   UNL     1      -0.145  -1.271  -1.621  0.00  0.00    +0.005 C 
ATOM     40  C   UNL     1       0.512  -1.166  -2.999  0.00  0.00    +0.014 C 
ENDBRANCH  32  40
ENDBRANCH  22  32
ENDBRANCH   1  24
TORSDOF 11
