REMARK  Name = ZINC40816272
REMARK  9 active torsions:
REMARK  status: ('A' for Active; 'I' for Inactive)
REMARK    1  A    between atoms: C_1  and  C_2
REMARK    2  A    between atoms: C_5  and  C_8
REMARK    3  A    between atoms: C_8  and  N_9
REMARK    4  A    between atoms: C_10  and  C_12
REMARK    5  A    between atoms: C_13  and  C_35
REMARK    6  A    between atoms: N_21  and  N_22
REMARK    7  A    between atoms: C_23  and  C_25
REMARK    8  A    between atoms: C_25  and  O_26
REMARK    9  A    between atoms: O_26  and  C_27
REMARK                            x       y       z     vdW  Elec       q    Type
REMARK                         _______ _______ _______ _____ _____    ______ ____
ROOT
ATOM      1  C   UNL     1       3.100  -6.539  -0.051  0.00  0.00    +0.193 A 
ATOM      2  C   UNL     1       3.499  -7.846  -0.065  0.00  0.00    +0.009 A 
ATOM      3  C   UNL     1       4.899  -7.827  -0.070  0.00  0.00    +0.042 A 
ATOM      4  C   UNL     1       5.295  -6.510  -0.057  0.00  0.00    +0.115 A 
ATOM      5  O   UNL     1       4.200  -5.753  -0.053  0.00  0.00    -0.454 OA
ATOM      6  C   UNL     1       6.742  -6.088  -0.051  0.00  0.00    +0.075 C 
ATOM      7  C   UNL     1       7.608  -7.248   0.446  0.00  0.00    +0.014 C 
ATOM      8  C   UNL     1       7.319  -8.521  -0.356  0.00  0.00    +0.058 C 
ATOM      9  C   UNL     1       5.879  -8.936  -0.088  0.00  0.00    +0.070 C 
ATOM     10  N   UNL     1       5.536 -10.171   0.110  0.00  0.00    -0.184 NA
ATOM     11  C   UNL     1       2.611  -9.063  -0.074  0.00  0.00    +0.048 C 
ENDROOT
BRANCH   1  13
ATOM     12  N   UNL     1       1.447  -4.746  -0.032  0.00  0.00    -0.305 N 
ATOM     13  C   UNL     1       1.710  -6.067  -0.040  0.00  0.00    +0.280 C 
ATOM     14  O   UNL     1       0.795  -6.870  -0.040  0.00  0.00    -0.267 OA
ATOM     15  H   UNL     1       2.176  -4.106  -0.032  0.00  0.00    +0.149 HD
BRANCH  12  16
ATOM     16  C   UNL     1       0.059  -4.275  -0.021  0.00  0.00    +0.140 C 
BRANCH  16  21
ATOM     17  C   UNL     1      -0.018   1.503   0.010  0.00  0.00    +0.044 C 
ATOM     18  C   UNL     1       0.002  -0.004   0.002  0.00  0.00    -0.050 A 
ATOM     19  C   UNL     1       0.006  -0.689  -1.199  0.00  0.00    +0.003 A 
ATOM     20  C   UNL     1       0.025  -2.071  -1.206  0.00  0.00    +0.005 A 
ATOM     21  C   UNL     1       0.040  -2.768  -0.013  0.00  0.00    -0.030 A 
ATOM     22  C   UNL     1       0.037  -2.084   1.188  0.00  0.00    +0.005 A 
ATOM     23  C   UNL     1       0.023  -0.702   1.195  0.00  0.00    +0.003 A 
ENDBRANCH  16  21
ENDBRANCH  12  16
ENDBRANCH   1  13
BRANCH  10  24
ATOM     24  N   UNL     1       6.507 -11.181   0.081  0.00  0.00    -0.204 N 
ATOM     25  C   UNL     1       6.151 -12.464   0.287  0.00  0.00    +0.270 C 
ATOM     26  O   UNL     1       4.989 -12.745   0.497  0.00  0.00    -0.270 OA
ATOM     27  H   UNL     1       7.436 -10.957  -0.087  0.00  0.00    +0.177 HD
BRANCH  25  28
ATOM     28  C   UNL     1       7.195 -13.551   0.257  0.00  0.00    +0.326 C 
BRANCH  28  29
ATOM     29  O   UNL     1       6.574 -14.815   0.500  0.00  0.00    -0.481 OA
BRANCH  29  30
ATOM     30  C   UNL     1       7.383 -15.908   0.506  0.00  0.00    +0.140 A 
ATOM     31  C   UNL     1       8.745 -15.765   0.288  0.00  0.00    +0.048 A 
ATOM     32  C   UNL     1       9.565 -16.878   0.295  0.00  0.00    +0.023 A 
ATOM     33  C   UNL     1       9.028 -18.133   0.519  0.00  0.00    +0.043 A 
ATOM     34  C   UNL     1       7.669 -18.278   0.737  0.00  0.00    +0.043 A 
ATOM     35  C   UNL     1       6.846 -17.167   0.737  0.00  0.00    +0.084 A 
ATOM     36 CL   UNL     1       5.143 -17.348   1.018  0.00  0.00    -0.080 Cl
ATOM     37 CL   UNL     1      10.061 -19.529   0.526  0.00  0.00    -0.083 Cl
ENDBRANCH  29  30
ENDBRANCH  28  29
ENDBRANCH  25  28
ENDBRANCH  10  24
TORSDOF 7
