REMARK  Name = ZINC12703390
REMARK  12 active torsions:
REMARK  status: ('A' for Active; 'I' for Inactive)
REMARK    1  A    between atoms: C_1  and  C_2
REMARK    2  A    between atoms: C_5  and  C_8
REMARK    3  A    between atoms: N_11  and  C_13
REMARK    4  A    between atoms: C_13  and  C_14
REMARK    5  A    between atoms: N_16  and  C_17
REMARK    6  A    between atoms: N_16  and  C_26
REMARK    7  A    between atoms: C_17  and  C_18
REMARK    8  A    between atoms: C_21  and  O_24
REMARK    9  A    between atoms: O_24  and  C_25
REMARK   10  A    between atoms: C_26  and  C_28
REMARK   11  A    between atoms: C_26  and  C_33
REMARK   12  A    between atoms: N_35  and  C_36
REMARK                            x       y       z     vdW  Elec       q    Type
REMARK                         _______ _______ _______ _____ _____    ______ ____
ROOT
ATOM      1  C   UNL     1       3.220   3.641   0.566  0.00  0.00    +0.240 C 
ATOM      2  O   UNL     1       2.580   4.035  -0.386  0.00  0.00    -0.273 OA
ATOM      3  N   UNL     1       3.225   2.330   0.878  0.00  0.00    -0.278 N 
ENDROOT
BRANCH   1   4
ATOM      4  C   UNL     1       4.008   4.617   1.400  0.00  0.00    +0.264 C 
BRANCH   4   8
ATOM      5  C   UNL     1       3.850   7.809  -0.097  0.00  0.00    +0.205 A 
ATOM      6  N   UNL     1       2.836   7.872   0.777  0.00  0.00    -0.108 NA
ATOM      7  N   UNL     1       2.793   6.741   1.395  0.00  0.00    -0.045 NA
ATOM      8  N   UNL     1       3.731   5.983   0.947  0.00  0.00    -0.154 N 
ATOM      9  N   UNL     1       4.393   6.615   0.039  0.00  0.00    -0.130 NA
BRANCH   5  14
ATOM     10  C   UNL     1       5.532  11.958  -3.721  0.00  0.00    +0.044 C 
ATOM     11  C   UNL     1       5.092  10.873  -2.773  0.00  0.00    -0.050 A 
ATOM     12  C   UNL     1       4.019  11.089  -1.927  0.00  0.00    +0.004 A 
ATOM     13  C   UNL     1       3.612  10.098  -1.057  0.00  0.00    +0.012 A 
ATOM     14  C   UNL     1       4.284   8.878  -1.031  0.00  0.00    +0.023 A 
ATOM     15  C   UNL     1       5.367   8.667  -1.881  0.00  0.00    +0.012 A 
ATOM     16  C   UNL     1       5.763   9.663  -2.751  0.00  0.00    +0.004 A 
ENDBRANCH   5  14
ENDBRANCH   4   8
ENDBRANCH   1   4
BRANCH   3  17
ATOM     17  C   UNL     1       3.905   1.869   2.091  0.00  0.00    +0.144 C 
BRANCH  17  18
ATOM     18  C   UNL     1       5.302   1.423   1.745  0.00  0.00    -0.030 A 
ATOM     19  C   UNL     1       5.521   0.142   1.271  0.00  0.00    +0.009 A 
ATOM     20  C   UNL     1       6.800  -0.267   0.948  0.00  0.00    +0.046 A 
ATOM     21  C   UNL     1       7.867   0.604   1.111  0.00  0.00    +0.120 A 
ATOM     22  C   UNL     1       7.646   1.887   1.592  0.00  0.00    +0.046 A 
ATOM     23  C   UNL     1       6.364   2.293   1.908  0.00  0.00    +0.009 A 
BRANCH  21  24
ATOM     24  O   UNL     1       9.127   0.203   0.798  0.00  0.00    -0.495 OA
ATOM     25  C   UNL     1       9.280  -1.131   0.308  0.00  0.00    +0.277 C 
ENDBRANCH  21  24
ENDBRANCH  17  18
ENDBRANCH   3  17
BRANCH   3  26
ATOM     26  C   UNL     1       2.551   1.366   0.004  0.00  0.00    +0.228 C 
BRANCH  26  27
ATOM     27  C   UNL     1       1.077   1.675  -0.042  0.00  0.00    +0.134 A 
ATOM     28  C   UNL     1       0.085   0.770  -0.117  0.00  0.00    +0.047 A 
ATOM     29  C   UNL     1      -1.129   1.493  -0.144  0.00  0.00    +0.041 A 
ATOM     30  C   UNL     1      -0.807   2.797  -0.074  0.00  0.00    +0.195 A 
ATOM     31  O   UNL     1       0.530   2.902  -0.016  0.00  0.00    -0.465 OA
ENDBRANCH  26  27
BRANCH  26  32
ATOM     32  C   UNL     1       3.128   1.459  -1.385  0.00  0.00    +0.241 C 
ATOM     33  O   UNL     1       3.842   2.393  -1.684  0.00  0.00    -0.273 OA
ATOM     34  N   UNL     1       2.850   0.505  -2.295  0.00  0.00    -0.311 N 
ATOM     35  H   UNL     1       2.279  -0.242  -2.056  0.00  0.00    +0.149 HD
BRANCH  34  36
ATOM     36  C   UNL     1       3.410   0.595  -3.646  0.00  0.00    +0.073 C 
ATOM     37  C   UNL     1       2.477   1.425  -4.551  0.00  0.00    +0.022 C 
ATOM     38  C   UNL     1       2.556   0.718  -5.927  0.00  0.00    +0.002 C 
ATOM     39  C   UNL     1       2.618  -0.780  -5.539  0.00  0.00    +0.002 C 
ATOM     40  C   UNL     1       3.500  -0.807  -4.274  0.00  0.00    +0.022 C 
ENDBRANCH  34  36
ENDBRANCH  26  32
ENDBRANCH   3  26
TORSDOF 10
