REMARK  Name = ZINC12401682
REMARK  11 active torsions:
REMARK  status: ('A' for Active; 'I' for Inactive)
REMARK    1  A    between atoms: C_1  and  C_2
REMARK    2  A    between atoms: C_2  and  C_3
REMARK    3  A    between atoms: C_2  and  S_4
REMARK    4  A    between atoms: S_4  and  C_5
REMARK    5  A    between atoms: C_13  and  C_20
REMARK    6  A    between atoms: C_15  and  C_18
REMARK    7  A    between atoms: C_16  and  N_17
REMARK    8  A    between atoms: C_23  and  C_25
REMARK    9  A    between atoms: C_25  and  C_26
REMARK   10  A    between atoms: C_25  and  C_27
REMARK   11  A    between atoms: C_25  and  C_28
REMARK                            x       y       z     vdW  Elec       q    Type
REMARK                         _______ _______ _______ _____ _____    ______ ____
ROOT
ATOM      1  C   UNL     1       5.689   7.250   0.155  0.00  0.00    +0.160 A 
ATOM      2  N   UNL     1       6.578   6.275   0.019  0.00  0.00    -0.133 NA
ATOM      3  N   UNL     1       6.234   5.062  -0.027  0.00  0.00    -0.124 NA
ATOM      4  C   UNL     1       4.968   4.688   0.058  0.00  0.00    +0.194 A 
ATOM      5  S   UNL     1       4.180   6.288   0.217  0.00  0.00    -0.024 S 
ATOM      6  N   UNL     1       4.408   3.413   0.027  0.00  0.00    -0.237 N 
ATOM      7  C   UNL     1       4.156   2.752   1.200  0.00  0.00    +0.026 C 
ATOM      8  C   UNL     1       3.284   1.722   1.236  0.00  0.00    +0.026 C 
ATOM      9  C   UNL     1       2.554   1.281  -0.007  0.00  0.00    +0.104 C 
ATOM     10  C   UNL     1       3.228   1.797  -1.243  0.00  0.00    +0.077 C 
ATOM     11  C   UNL     1       4.111   2.827  -1.184  0.00  0.00    +0.108 C 
ATOM     12  C   UNL     1       3.034   1.027   2.433  0.00  0.00    +0.162 C 
ATOM     13  O   UNL     1       2.239   0.108   2.432  0.00  0.00    -0.292 OA
ATOM     14  C   UNL     1       3.731   1.399   3.712  0.00  0.00    +0.080 C 
ATOM     15  C   UNL     1       5.094   2.013   3.378  0.00  0.00    +0.014 C 
ATOM     16  C   UNL     1       4.873   3.208   2.448  0.00  0.00    +0.052 C 
ENDROOT
BRANCH   9  17
ATOM     17  C   UNL     1       1.141   1.803   0.040  0.00  0.00    +0.003 A 
ATOM     18  C   UNL     1      -0.025   1.111   0.058  0.00  0.00    +0.012 A 
ATOM     19  C   UNL     1      -1.218   1.809   0.096  0.00  0.00    +0.012 A 
ATOM     20  C   UNL     1      -1.187   3.163   0.125  0.00  0.00    -0.005 A 
ATOM     21  S   UNL     1       0.567   3.493   0.084  0.00  0.00    -0.097 S 
BRANCH  20  22
ATOM     22  C   UNL     1      -2.335   4.138   0.172  0.00  0.00    -0.006 C 
ATOM     23  C   UNL     1      -3.158   3.897   1.439  0.00  0.00    +0.016 C 
ATOM     24  C   UNL     1      -1.790   5.568   0.182  0.00  0.00    +0.016 C 
ATOM     25  C   UNL     1      -3.223   3.940  -1.059  0.00  0.00    +0.016 C 
ENDBRANCH  20  22
ENDBRANCH   9  17
BRANCH  11  26
ATOM     26  N   UNL     1       4.710   3.285  -2.333  0.00  0.00    -0.345 N 
ATOM     27  H   UNL     1       4.567   2.821  -3.172  0.00  0.00    +0.144 HD
ATOM     28  H   UNL     1       5.275   4.073  -2.304  0.00  0.00    +0.144 HD
ENDBRANCH  11  26
BRANCH  10  29
ATOM     29  C   UNL     1       2.937   1.192  -2.508  0.00  0.00    +0.099 C 
ATOM     30  N   UNL     1       2.706   0.712  -3.512  0.00  0.00    -0.191 NA
ENDBRANCH  10  29
BRANCH   1  31
ATOM     31  S   UNL     1       5.926   8.994   0.243  0.00  0.00    -0.094 S 
BRANCH  31  33
ATOM     32  C   UNL     1       8.060  10.692   0.039  0.00  0.00    +0.019 C 
ATOM     33  C   UNL     1       7.722   9.201   0.102  0.00  0.00    +0.047 C 
ATOM     34  C   UNL     1       8.405   8.574   1.320  0.00  0.00    +0.019 C 
ENDBRANCH  31  33
ENDBRANCH   1  31
TORSDOF 6
