REMARK  Name = ZINC33028930
REMARK  12 active torsions:
REMARK  status: ('A' for Active; 'I' for Inactive)
REMARK    1  A    between atoms: C_1  and  N_2
REMARK    2  A    between atoms: N_2  and  C_3
REMARK    3  A    between atoms: N_2  and  C_4
REMARK    4  A    between atoms: C_4  and  C_6
REMARK    5  A    between atoms: C_4  and  C_30
REMARK    6  A    between atoms: C_6  and  N_7
REMARK    7  A    between atoms: C_8  and  C_10
REMARK    8  A    between atoms: C_14  and  S_16
REMARK    9  A    between atoms: S_16  and  N_19
REMARK   10  A    between atoms: N_19  and  C_20
REMARK   11  A    between atoms: C_23  and  S_26
REMARK   12  A    between atoms: S_26  and  C_27
REMARK                            x       y       z     vdW  Elec       q    Type
REMARK                         _______ _______ _______ _____ _____    ______ ____
ROOT
ATOM      1  C   UNL     1      -2.845   2.118  -1.378  0.00  0.00    +0.039 A 
ATOM      2  C   UNL     1      -1.969   1.115  -1.798  0.00  0.00    +0.013 A 
ATOM      3  C   UNL     1      -0.686   1.070  -1.293  0.00  0.00    +0.003 A 
ATOM      4  C   UNL     1      -0.268   2.011  -0.369  0.00  0.00    +0.029 A 
ATOM      5  C   UNL     1      -1.133   3.004   0.055  0.00  0.00    +0.109 A 
ATOM      6  C   UNL     1      -2.420   3.061  -0.441  0.00  0.00    +0.041 A 
ENDROOT
BRANCH   1   8
ATOM      7  N   UNL     1      -4.629   1.261  -2.820  0.00  0.00    -0.313 N 
ATOM      8  C   UNL     1      -4.220   2.176  -1.919  0.00  0.00    +0.244 C 
ATOM      9  O   UNL     1      -4.980   3.050  -1.552  0.00  0.00    -0.270 OA
ATOM     10  H   UNL     1      -3.940   0.470  -3.152  0.00  0.00    +0.149 HD
BRANCH   7  11
ATOM     11  C   UNL     1      -5.991   1.319  -3.356  0.00  0.00    +0.094 C 
BRANCH  11  12
ATOM     12  C   UNL     1      -6.229   0.120  -4.276  0.00  0.00    -0.021 C 
BRANCH  12  13
ATOM     13  C   UNL     1      -5.313   0.213  -5.469  0.00  0.00    -0.059 A 
ATOM     14  C   UNL     1      -5.639   1.039  -6.528  0.00  0.00    +0.002 A 
ATOM     15  C   UNL     1      -4.796   1.127  -7.620  0.00  0.00    +0.000 A 
ATOM     16  C   UNL     1      -3.632   0.382  -7.658  0.00  0.00    +0.000 A 
ATOM     17  C   UNL     1      -3.309  -0.448  -6.601  0.00  0.00    +0.000 A 
ATOM     18  C   UNL     1      -4.149  -0.533  -5.507  0.00  0.00    +0.002 A 
ENDBRANCH  12  13
BRANCH  12  20
ATOM     19  C   UNL     1      -7.900  -1.039  -5.590  0.00  0.00    -0.096 C 
ATOM     20  N   UNL     1      -7.626   0.120  -4.730  0.00  0.00    +0.382 N 
ATOM     21  C   UNL     1      -8.550   0.160  -3.589  0.00  0.00    -0.096 C 
ATOM     22  H   UNL     1      -7.787   1.030  -5.327  0.00  0.00    -0.082 HD
ENDBRANCH  12  20
ENDBRANCH  11  12
ENDBRANCH   7  11
ENDBRANCH   1   8
BRANCH   5  23
ATOM     23  S   UNL     1      -0.592   4.198   1.232  0.00  0.00    +0.072 S 
ATOM     24  O   UNL     1      -1.763   4.747   1.822  0.00  0.00    -0.150 OA
ATOM     25  O   UNL     1       0.428   3.576   2.002  0.00  0.00    -0.150 OA
BRANCH  23  26
ATOM     26  N   UNL     1       0.133   5.424   0.388  0.00  0.00    -0.216 N 
ATOM     27  H   UNL     1      -0.308   6.432   0.395  0.00  0.00    +0.174 HD
BRANCH  26  28
ATOM     28  C   UNL     1       1.306   5.178  -0.335  0.00  0.00    +0.048 A 
ATOM     29  C   UNL     1       2.516   5.039   0.332  0.00  0.00    +0.025 A 
ATOM     30  C   UNL     1       3.673   4.792  -0.381  0.00  0.00    +0.017 A 
ATOM     31  C   UNL     1       3.627   4.692  -1.765  0.00  0.00    +0.013 A 
ATOM     32  C   UNL     1       2.417   4.836  -2.433  0.00  0.00    +0.017 A 
ATOM     33  C   UNL     1       1.260   5.079  -1.719  0.00  0.00    +0.025 A 
BRANCH  31  34
ATOM     34  S   UNL     1       5.104   4.382  -2.675  0.00  0.00    -0.056 S 
BRANCH  34  35
ATOM     35  C   UNL     1       6.390   4.272  -1.401  0.00  0.00    +0.404 C 
ATOM     36  F   UNL     1       6.450   5.478  -0.694  0.00  0.00    -0.197 F 
ATOM     37  F   UNL     1       6.085   3.230  -0.519  0.00  0.00    -0.197 F 
ENDBRANCH  34  35
ENDBRANCH  31  34
ENDBRANCH  26  28
ENDBRANCH  23  26
ENDBRANCH   5  23
TORSDOF 10
