REMARK  Name = ZINC42793086
REMARK  8 active torsions:
REMARK  status: ('A' for Active; 'I' for Inactive)
REMARK    1  A    between atoms: C_1  and  C_2
REMARK    2  A    between atoms: C_4  and  S_10
REMARK    3  A    between atoms: C_6  and  C_7
REMARK    4  A    between atoms: S_10  and  N_13
REMARK    5  A    between atoms: N_13  and  C_14
REMARK    6  A    between atoms: C_19  and  C_20
REMARK    7  A    between atoms: C_20  and  C_21
REMARK    8  A    between atoms: N_23  and  C_24
REMARK                            x       y       z     vdW  Elec       q    Type
REMARK                         _______ _______ _______ _____ _____    ______ ____
ROOT
ATOM      1  N   UNL     1       1.617  -3.528  -2.817  0.00  0.00    -0.216 N 
ATOM      2  H   UNL     1       1.964  -3.261  -3.683  0.00  0.00    +0.174 HD
ENDROOT
BRANCH   1   3
ATOM      3  C   UNL     1       2.476  -4.070  -1.857  0.00  0.00    +0.052 A 
ATOM      4  C   UNL     1       2.025  -5.071  -1.007  0.00  0.00    +0.025 A 
ATOM      5  C   UNL     1       2.876  -5.605  -0.059  0.00  0.00    +0.002 A 
ATOM      6  C   UNL     1       4.176  -5.144   0.043  0.00  0.00    +0.000 A 
ATOM      7  C   UNL     1       4.627  -4.147  -0.802  0.00  0.00    +0.006 A 
ATOM      8  C   UNL     1       3.783  -3.613  -1.755  0.00  0.00    -0.016 A 
BRANCH   8   9
ATOM      9  C   UNL     1       4.278  -2.531  -2.680  0.00  0.00    +0.132 C 
BRANCH   9  10
ATOM     10  C   UNL     1       3.916  -1.182  -2.115  0.00  0.00    +0.217 C 
ATOM     11  O   UNL     1       3.314  -1.106  -1.064  0.00  0.00    -0.275 OA
ATOM     12  N   UNL     1       4.260  -0.059  -2.776  0.00  0.00    -0.318 N 
ATOM     13  C   UNL     1       3.907   1.252  -2.227  0.00  0.00    +0.128 C 
ATOM     14  H   UNL     1       4.741  -0.119  -3.616  0.00  0.00    +0.148 HD
ENDBRANCH   9  10
ENDBRANCH   8   9
ENDBRANCH   1   3
BRANCH   1  15
ATOM     15  S   UNL     1       0.008  -3.340  -2.477  0.00  0.00    +0.079 S 
ATOM     16  O   UNL     1      -0.466  -4.607  -2.043  0.00  0.00    -0.149 OA
ATOM     17  O   UNL     1      -0.563  -2.650  -3.580  0.00  0.00    -0.149 OA
BRANCH  15  21
ATOM     18  C   UNL     1      -0.397   1.267   0.171  0.00  0.00    +0.045 C 
ATOM     19  C   UNL     1      -0.288  -0.234   0.098  0.00  0.00    -0.027 A 
ATOM     20  C   UNL     1      -0.206  -0.903  -1.098  0.00  0.00    +0.040 A 
ATOM     21  C   UNL     1      -0.109  -2.257  -1.092  0.00  0.00    +0.147 A 
ATOM     22  S   UNL     1      -0.126  -2.665   0.538  0.00  0.00    -0.061 S 
ATOM     23  C   UNL     1      -0.258  -1.030   1.237  0.00  0.00    +0.105 A 
BRANCH  23  24
ATOM     24  C   UNL     1      -0.318  -0.642   2.599  0.00  0.00    +0.393 C 
ATOM     25  O   UNL     1      -0.410   0.542   2.896  0.00  0.00    -0.240 OA
ATOM     26  O   UNL     1      -0.277  -1.493   3.480  0.00  0.00    -0.240 OA
ENDBRANCH  23  24
ENDBRANCH  15  21
ENDBRANCH   1  15
TORSDOF 6
