REMARK  Name = ZINC03244984
REMARK  8 active torsions:
REMARK  status: ('A' for Active; 'I' for Inactive)
REMARK    1  A    between atoms: C_15  and  C_17
REMARK    2  A    between atoms: C_17  and  O_18
REMARK    3  A    between atoms: O_18  and  C_19
REMARK    4  A    between atoms: C_19  and  C_21
REMARK    5  A    between atoms: C_23  and  N_28
REMARK    6  A    between atoms: C_26  and  O_27
REMARK    7  A    between atoms: N_28  and  S_29
REMARK    8  A    between atoms: S_29  and  C_32
REMARK                            x       y       z     vdW  Elec       q    Type
REMARK                         _______ _______ _______ _____ _____    ______ ____
ROOT
ATOM      1  C   UNL     1       6.756   3.463   1.058  0.00  0.00    +0.343 C 
ATOM      2  O   UNL     1       6.954   4.444   0.369  0.00  0.00    -0.245 OA
ENDROOT
BRANCH   1   3
ATOM      3  C   UNL     1       7.859   2.879   1.843  0.00  0.00    +0.102 A 
ATOM      4  C   UNL     1       7.636   1.751   2.637  0.00  0.00    +0.043 A 
ATOM      5  C   UNL     1       8.676   1.209   3.370  0.00  0.00    +0.049 A 
ATOM      6  C   UNL     1       9.942   1.784   3.318  0.00  0.00    +0.028 A 
ATOM      7  C   UNL     1      10.170   2.898   2.537  0.00  0.00    +0.048 A 
ATOM      8  C   UNL     1       9.138   3.449   1.791  0.00  0.00    +0.131 A 
BRANCH   8   9
ATOM      9  O   UNL     1       9.366   4.541   1.018  0.00  0.00    -0.506 OA
ATOM     10  H   UNL     1       9.226   5.382   1.474  0.00  0.00    +0.292 HD
ENDBRANCH   8   9
BRANCH   5  11
ATOM     11  N   UNL     1       8.455   0.079   4.166  0.00  0.00    -0.216 N 
ATOM     12  H   UNL     1       7.671   0.033   4.736  0.00  0.00    +0.174 HD
BRANCH  11  13
ATOM     13  S   UNL     1       9.530  -1.180   4.134  0.00  0.00    +0.079 S 
ATOM     14  O   UNL     1      10.819  -0.619   4.341  0.00  0.00    -0.149 OA
ATOM     15  O   UNL     1       8.995  -2.192   4.977  0.00  0.00    -0.149 OA
BRANCH  13  16
ATOM     16  C   UNL     1       9.521  -1.831   2.497  0.00  0.00    +0.146 A 
ATOM     17  C   UNL     1      10.348  -1.548   1.461  0.00  0.00    +0.036 A 
ATOM     18  C   UNL     1      10.151  -2.188   0.252  0.00  0.00    +0.010 A 
ATOM     19  C   UNL     1       9.138  -3.081   0.138  0.00  0.00    +0.047 A 
ATOM     20  S   UNL     1       8.425  -3.042   1.774  0.00  0.00    -0.077 S 
ENDBRANCH  13  16
ENDBRANCH  11  13
ENDBRANCH   5  11
ENDBRANCH   1   3
BRANCH   1  21
ATOM     21  O   UNL     1       5.529   2.909   1.106  0.00  0.00    -0.452 OA
BRANCH  21  22
ATOM     22  C   UNL     1       4.491   3.537   0.308  0.00  0.00    +0.328 C 
BRANCH  22  37
ATOM     23  C   UNL     1       2.935   6.405  -1.645  0.00  0.00    +0.002 A 
ATOM     24  C   UNL     1       2.347   6.338  -2.894  0.00  0.00    +0.001 A 
ATOM     25  C   UNL     1       1.695   5.185  -3.293  0.00  0.00    +0.017 A 
ATOM     26  C   UNL     1       1.625   4.105  -2.432  0.00  0.00    +0.035 A 
ATOM     27  C   UNL     1       2.211   4.170  -1.166  0.00  0.00    +0.055 A 
ATOM     28  C   UNL     1       2.867   5.329  -0.780  0.00  0.00    +0.025 A 
ATOM     29  N   UNL     1       2.136   3.076  -0.294  0.00  0.00    -0.235 N 
ATOM     30  C   UNL     1       0.990   2.276  -0.209  0.00  0.00    +0.055 A 
ATOM     31  C   UNL     1       0.575   1.775   1.015  0.00  0.00    +0.025 A 
ATOM     32  C   UNL     1      -0.559   0.987   1.091  0.00  0.00    +0.002 A 
ATOM     33  C   UNL     1      -1.285   0.692  -0.048  0.00  0.00    +0.001 A 
ATOM     34  C   UNL     1      -0.880   1.187  -1.276  0.00  0.00    +0.017 A 
ATOM     35  C   UNL     1       0.253   1.976  -1.357  0.00  0.00    +0.035 A 
ATOM     36  S   UNL     1       0.794   2.621  -2.909  0.00  0.00    -0.086 S 
ATOM     37  C   UNL     1       3.197   2.786   0.486  0.00  0.00    +0.262 C 
ATOM     38  O   UNL     1       3.109   1.920   1.331  0.00  0.00    -0.271 OA
ENDBRANCH  22  37
ENDBRANCH  21  22
ENDBRANCH   1  21
TORSDOF 8
