REMARK  Name = ZINC24961494
REMARK  9 active torsions:
REMARK  status: ('A' for Active; 'I' for Inactive)
REMARK    1  A    between atoms: C_7  and  C_11
REMARK    2  A    between atoms: C_11  and  C_12
REMARK    3  A    between atoms: C_12  and  C_14
REMARK    4  A    between atoms: C_12  and  N_27
REMARK    5  A    between atoms: N_16  and  C_17
REMARK    6  A    between atoms: C_17  and  C_18
REMARK    7  A    between atoms: C_21  and  S_23
REMARK    8  A    between atoms: S_23  and  N_26
REMARK    9  A    between atoms: C_28  and  C_30
REMARK                            x       y       z     vdW  Elec       q    Type
REMARK                         _______ _______ _______ _____ _____    ______ ____
ROOT
ATOM      1  C   UNL     1       1.802   5.809   3.063  0.00  0.00    +0.163 C 
ENDROOT
BRANCH   1   2
ATOM      2  C   UNL     1       1.708   5.321   1.641  0.00  0.00    +0.234 C 
ATOM      3  O   UNL     1       1.826   6.103   0.722  0.00  0.00    -0.274 OA
ATOM      4  N   UNL     1       1.493   4.014   1.390  0.00  0.00    -0.309 N 
ATOM      5  H   UNL     1       1.386   3.304   2.224  0.00  0.00    +0.149 HD
BRANCH   4   6
ATOM      6  C   UNL     1       1.402   3.539   0.007  0.00  0.00    +0.146 C 
BRANCH   6   7
ATOM      7  C   UNL     1       1.160   2.051   0.002  0.00  0.00    +0.009 A 
ATOM      8  C   UNL     1      -0.017   1.378   0.010  0.00  0.00    +0.015 A 
ATOM      9  C   UNL     1       0.002  -0.004   0.002  0.00  0.00    +0.036 A 
ATOM     10  C   UNL     1       1.196  -0.645  -0.013  0.00  0.00    +0.142 A 
ATOM     11  S   UNL     1       2.348   0.719  -0.017  0.00  0.00    -0.072 S 
BRANCH  10  12
ATOM     12  S   UNL     1       1.526  -2.376  -0.026  0.00  0.00    +0.062 S 
ATOM     13  O   UNL     1       2.831  -2.545   0.512  0.00  0.00    -0.153 OA
ATOM     14  O   UNL     1       0.384  -3.011   0.532  0.00  0.00    -0.153 OA
BRANCH  12  15
ATOM     15  N   UNL     1       1.603  -2.848  -1.611  0.00  0.00    -0.203 NA
ATOM     16  H   UNL     1       1.809  -3.927  -1.663  0.00  0.00    +0.144 HD
ATOM     17  H   UNL     1       2.408  -2.297  -2.119  0.00  0.00    +0.144 HD
ENDBRANCH  12  15
ENDBRANCH  10  12
ENDBRANCH   6   7
ENDBRANCH   4   6
ENDBRANCH   1   2
BRANCH   1  18
ATOM     18  N   UNL     1       1.559   7.253   3.101  0.00  0.00    -0.299 N 
ATOM     19  C   UNL     1       2.363   8.090   2.415  0.00  0.00    +0.251 C 
ATOM     20  O   UNL     1       3.291   7.646   1.765  0.00  0.00    -0.270 OA
ATOM     21  H   UNL     1       0.720   7.655   3.688  0.00  0.00    +0.150 HD
BRANCH  19  22
ATOM     22  C   UNL     1       2.120   9.535   2.453  0.00  0.00    +0.074 A 
ATOM     23  C   UNL     1       2.819  10.555   1.827  0.00  0.00    +0.021 A 
ATOM     24  C   UNL     1       2.372  11.837   2.032  0.00  0.00    +0.008 A 
ATOM     25  C   UNL     1       1.286  12.042   2.823  0.00  0.00    +0.046 A 
ATOM     26  S   UNL     1       0.842  10.438   3.309  0.00  0.00    -0.092 S 
ENDBRANCH  19  22
ENDBRANCH   1  18
BRANCH   1  27
ATOM     27  C   UNL     1       3.199   5.513   3.613  0.00  0.00    +0.069 C 
BRANCH  27  34
ATOM     28  C   UNL     1       2.033   3.258   7.554  0.00  0.00    +0.001 A 
ATOM     29  C   UNL     1       2.262   4.012   8.697  0.00  0.00    +0.002 A 
ATOM     30  C   UNL     1       2.781   5.285   8.606  0.00  0.00    +0.026 A 
ATOM     31  C   UNL     1       3.079   5.822   7.358  0.00  0.00    +0.047 A 
ATOM     32  C   UNL     1       2.845   5.054   6.203  0.00  0.00    +0.003 A 
ATOM     33  C   UNL     1       2.318   3.766   6.318  0.00  0.00    +0.010 A 
ATOM     34  C   UNL     1       3.255   5.889   5.072  0.00  0.00    -0.020 A 
ATOM     35  C   UNL     1       3.696   7.050   5.580  0.00  0.00    +0.087 A 
ATOM     36  N   UNL     1       3.594   7.031   6.944  0.00  0.00    -0.360 N 
ATOM     37  H   UNL     1       3.852   7.801   7.686  0.00  0.00    +0.165 HD
ENDBRANCH  27  34
ENDBRANCH   1  27
TORSDOF 9
