REMARK  Name = ZINC36313896
REMARK  16 active torsions:
REMARK  status: ('A' for Active; 'I' for Inactive)
REMARK    1  A    between atoms: C_1  and  C_2
REMARK    2  A    between atoms: C_2  and  C_3
REMARK    3  A    between atoms: C_3  and  C_4
REMARK    4  A    between atoms: C_4  and  C_5
REMARK    5  A    between atoms: C_5  and  C_7
REMARK    6  A    between atoms: C_5  and  O_34
REMARK    7  A    between atoms: C_7  and  N_8
REMARK    8  A    between atoms: N_8  and  C_9
REMARK    9  A    between atoms: N_8  and  C_12
REMARK   10  A    between atoms: C_9  and  C_10
REMARK   11  A    between atoms: C_10  and  C_11
REMARK   12  A    between atoms: C_12  and  C_13
REMARK   13  A    between atoms: C_14  and  C_33
REMARK   14  A    between atoms: N_16  and  C_27
REMARK   15  A    between atoms: C_17  and  O_18
REMARK   16  A    between atoms: O_18  and  C_19
REMARK                            x       y       z     vdW  Elec       q    Type
REMARK                         _______ _______ _______ _____ _____    ______ ____
ROOT
ATOM      1  C   UNL     1      -5.674  -6.950   0.282  0.00  0.00    +0.021 A 
ATOM      2  C   UNL     1      -6.630  -6.950   1.303  0.00  0.00    +0.065 A 
ATOM      3  N   UNL     1      -7.775  -7.333   0.798  0.00  0.00    -0.168 NA
ATOM      4  N   UNL     1      -7.592  -7.592  -0.566  0.00  0.00    -0.200 N 
ATOM      5  C   UNL     1      -6.288  -7.343  -0.865  0.00  0.00    +0.225 A 
ATOM      6  C   UNL     1      -6.383  -6.574   2.741  0.00  0.00    +0.068 C 
ENDROOT
BRANCH   4   7
ATOM      7  C   UNL     1      -8.577  -8.025  -1.464  0.00  0.00    +0.069 A 
ATOM      8  C   UNL     1      -8.607  -7.523  -2.759  0.00  0.00    +0.028 A 
ATOM      9  C   UNL     1      -9.579  -7.952  -3.642  0.00  0.00    +0.002 A 
ATOM     10  C   UNL     1     -10.521  -8.880  -3.237  0.00  0.00    +0.000 A 
ATOM     11  C   UNL     1     -10.494  -9.381  -1.949  0.00  0.00    +0.002 A 
ATOM     12  C   UNL     1      -9.521  -8.960  -1.063  0.00  0.00    +0.028 A 
ENDBRANCH   4   7
BRANCH   1  13
ATOM     13  C   UNL     1      -4.222  -6.573   0.427  0.00  0.00    -0.036 C 
BRANCH  13  14
ATOM     14  N   UNL     1      -4.064  -5.132   0.190  0.00  0.00    +0.384 N 
ATOM     15  H   UNL     1      -4.414  -4.902  -0.728  0.00  0.00    -0.081 HD
BRANCH  14  16
ATOM     16  C   UNL     1      -2.641  -4.776   0.274  0.00  0.00    -0.047 C 
BRANCH  16  17
ATOM     17  C   UNL     1      -1.884  -5.416  -0.891  0.00  0.00    +0.098 C 
BRANCH  17  18
ATOM     18  O   UNL     1      -1.874  -6.836  -0.729  0.00  0.00    -0.394 OA
ATOM     19  H   UNL     1      -1.449  -7.136   0.086  0.00  0.00    +0.210 HD
ENDBRANCH  17  18
BRANCH  17  20
ATOM     20  C   UNL     1      -0.446  -4.895  -0.913  0.00  0.00    +0.029 C 
BRANCH  20  21
ATOM     21  C   UNL     1       0.274  -5.438  -2.149  0.00  0.00    +0.002 C 
BRANCH  21  23
ATOM     22  C   UNL     1       2.433  -5.459  -3.408  0.00  0.00    +0.004 C 
ATOM     23  C   UNL     1       1.712  -4.916  -2.172  0.00  0.00    -0.003 C 
ENDBRANCH  21  23
ENDBRANCH  20  21
ENDBRANCH  17  20
ENDBRANCH  16  17
ENDBRANCH  14  16
BRANCH  14  24
ATOM     24  C   UNL     1      -4.817  -4.383   1.204  0.00  0.00    -0.079 C 
BRANCH  24  25
ATOM     25  C   UNL     1      -4.760  -2.889   0.881  0.00  0.00    -0.022 C 
ATOM     26  C   UNL     1      -5.455  -2.100   1.992  0.00  0.00    +0.002 C 
ENDBRANCH  24  25
ENDBRANCH  14  24
ENDBRANCH  13  14
ENDBRANCH   1  13
BRANCH   5  27
ATOM     27  O   UNL     1      -5.707  -7.467  -2.085  0.00  0.00    -0.435 OA
BRANCH  27  28
ATOM     28  C   UNL     1      -5.270  -8.698  -2.462  0.00  0.00    +0.166 A 
ATOM     29  C   UNL     1      -5.517  -9.800  -1.656  0.00  0.00    +0.052 A 
ATOM     30  C   UNL     1      -5.073 -11.050  -2.039  0.00  0.00    +0.042 A 
ATOM     31  C   UNL     1      -4.380 -11.206  -3.228  0.00  0.00    +0.126 A 
ATOM     32  C   UNL     1      -4.131 -10.109  -4.035  0.00  0.00    +0.080 A 
ATOM     33  C   UNL     1      -4.579  -8.856  -3.657  0.00  0.00    +0.168 A 
ATOM     34  F   UNL     1      -4.341  -7.786  -4.446  0.00  0.00    -0.202 F 
ATOM     35  F   UNL     1      -3.947 -12.430  -3.601  0.00  0.00    -0.205 F 
ENDBRANCH  27  28
ENDBRANCH   5  27
TORSDOF 13
