REMARK  Name = ZINC10669556
REMARK  11 active torsions:
REMARK  status: ('A' for Active; 'I' for Inactive)
REMARK    1  A    between atoms: C_1  and  C_2
REMARK    2  A    between atoms: C_2  and  C_3
REMARK    3  A    between atoms: C_2  and  C_4
REMARK    4  A    between atoms: C_4  and  N_5
REMARK    5  A    between atoms: C_6  and  N_34
REMARK    6  A    between atoms: C_7  and  C_14
REMARK    7  A    between atoms: C_14  and  C_16
REMARK    8  A    between atoms: C_16  and  S_17
REMARK    9  A    between atoms: S_17  and  C_18
REMARK   10  A    between atoms: C_21  and  S_24
REMARK   11  A    between atoms: S_24  and  N_27
REMARK                            x       y       z     vdW  Elec       q    Type
REMARK                         _______ _______ _______ _____ _____    ______ ____
ROOT
ATOM      1  C   UNL     1       6.533   1.435  -0.082  0.00  0.00    +0.182 C 
ATOM      2  O   UNL     1       6.676   2.641  -0.060  0.00  0.00    -0.291 OA
ENDROOT
BRANCH   1   5
ATOM      3  N   UNL     1      10.027   0.262  -0.169  0.00  0.00    -0.281 N 
ATOM      4  C   UNL     1       8.963   1.119  -0.179  0.00  0.00    +0.116 A 
ATOM      5  C   UNL     1       7.664   0.591  -0.081  0.00  0.00    +0.120 A 
ATOM      6  C   UNL     1       7.521  -0.867   0.017  0.00  0.00    +0.266 A 
ATOM      7  O   UNL     1       6.420  -1.379   0.100  0.00  0.00    -0.267 OA
ATOM      8  N   UNL     1       8.635  -1.628   0.013  0.00  0.00    -0.274 N 
ATOM      9  H   UNL     1       8.555  -2.622   0.079  0.00  0.00    +0.173 HD
ATOM     10  C   UNL     1       9.852  -1.066  -0.077  0.00  0.00    +0.331 A 
ATOM     11  O   UNL     1      10.831  -1.787  -0.077  0.00  0.00    -0.246 OA
BRANCH   4  12
ATOM     12  N   UNL     1       9.158   2.461  -0.278  0.00  0.00    -0.344 N 
ATOM     13  H   UNL     1       8.406   3.068  -0.198  0.00  0.00    +0.144 HD
ATOM     14  H   UNL     1      10.050   2.812  -0.429  0.00  0.00    +0.144 HD
ENDBRANCH   4  12
BRANCH   3  15
ATOM     15  C   UNL     1      11.385   0.802  -0.265  0.00  0.00    +0.131 C 
BRANCH  15  17
ATOM     16  C   UNL     1      13.159   1.579  -1.843  0.00  0.00    +0.009 C 
ATOM     17  C   UNL     1      11.792   0.900  -1.736  0.00  0.00    +0.003 C 
ATOM     18  C   UNL     1      11.872  -0.504  -2.338  0.00  0.00    +0.009 C 
ENDBRANCH  15  17
ENDBRANCH   3  15
ENDBRANCH   1   5
BRANCH   1  19
ATOM     19  C   UNL     1       5.149   0.840  -0.111  0.00  0.00    +0.155 C 
BRANCH  19  20
ATOM     20  S   UNL     1       3.918   2.173  -0.105  0.00  0.00    -0.098 S 
BRANCH  20  21
ATOM     21  C   UNL     1       2.373   1.326  -0.140  0.00  0.00    +0.097 A 
ATOM     22  C   UNL     1       1.187   2.055  -0.144  0.00  0.00    +0.037 A 
ATOM     23  C   UNL     1      -0.018   1.377  -0.171  0.00  0.00    +0.032 A 
ATOM     24  C   UNL     1       0.002  -0.011  -0.194  0.00  0.00    +0.124 A 
ATOM     25  C   UNL     1       1.215  -0.670  -0.189  0.00  0.00    +0.140 A 
ATOM     26  N   UNL     1       2.350   0.002  -0.163  0.00  0.00    -0.247 NA
BRANCH  24  27
ATOM     27  S   UNL     1      -1.505  -0.923  -0.230  0.00  0.00    +0.062 S 
ATOM     28  O   UNL     1      -1.216  -2.208   0.304  0.00  0.00    -0.153 OA
ATOM     29  O   UNL     1      -2.505  -0.077   0.322  0.00  0.00    -0.153 OA
BRANCH  27  30
ATOM     30  N   UNL     1      -1.903  -1.150  -1.821  0.00  0.00    -0.177 NA
ATOM     31  C   UNL     1      -2.731  -0.162  -2.476  0.00  0.00    +0.109 C 
ATOM     32  C   UNL     1      -4.220  -0.521  -2.295  0.00  0.00    +0.017 C 
ATOM     33  C   UNL     1      -4.563  -1.701  -3.104  0.00  0.00    +0.001 C 
ATOM     34  C   UNL     1      -3.815  -2.971  -2.711  0.00  0.00    +0.001 C 
ATOM     35  C   UNL     1      -2.476  -3.000  -3.405  0.00  0.00    +0.017 C 
ATOM     36  C   UNL     1      -1.402  -2.355  -2.510  0.00  0.00    +0.109 C 
ENDBRANCH  27  30
ENDBRANCH  24  27
ENDBRANCH  20  21
ENDBRANCH  19  20
ENDBRANCH   1  19
TORSDOF 9
