REMARK  Name = ZINC41585829
REMARK  11 active torsions:
REMARK  status: ('A' for Active; 'I' for Inactive)
REMARK    1  A    between atoms: C_1  and  C_2
REMARK    2  A    between atoms: C_4  and  O_38
REMARK    3  A    between atoms: C_5  and  C_25
REMARK    4  A    between atoms: C_11  and  C_12
REMARK    5  A    between atoms: C_14  and  O_22
REMARK    6  A    between atoms: C_15  and  O_20
REMARK    7  A    between atoms: C_16  and  O_18
REMARK    8  A    between atoms: O_18  and  C_19
REMARK    9  A    between atoms: O_20  and  C_21
REMARK   10  A    between atoms: O_22  and  C_23
REMARK   11  A    between atoms: C_25  and  N_26
REMARK                            x       y       z     vdW  Elec       q    Type
REMARK                         _______ _______ _______ _____ _____    ______ ____
ROOT
ATOM      1  C   UNL     1       1.339   1.229  -0.076  0.00  0.00    +0.045 C 
ATOM      2  C   UNL     1       0.922  -0.219  -0.090  0.00  0.00    -0.033 A 
ATOM      3  C   UNL     1       0.796  -0.883  -1.278  0.00  0.00    +0.050 A 
ATOM      4  C   UNL     1       0.410  -2.221  -1.293  0.00  0.00    +0.125 A 
ATOM      5  C   UNL     1       0.150  -2.893  -0.110  0.00  0.00    +0.051 A 
ATOM      6  C   UNL     1       0.273  -2.232   1.106  0.00  0.00    +0.148 A 
ATOM      7  C   UNL     1       0.668  -0.884   1.109  0.00  0.00    +0.071 A 
ATOM      8  C   UNL     1       0.716  -0.469   2.523  0.00  0.00    +0.232 C 
ATOM      9  O   UNL     1       1.009   0.627   2.969  0.00  0.00    -0.283 OA
ATOM     10  C   UNL     1       0.330  -1.672   3.274  0.00  0.00    +0.176 C 
ATOM     11  C   UNL     1       0.230  -1.777   4.624  0.00  0.00    +0.058 C 
ATOM     12  O   UNL     1       0.080  -2.653   2.375  0.00  0.00    -0.451 OA
ENDROOT
BRANCH  11  13
ATOM     13  C   UNL     1       0.341  -0.578   5.463  0.00  0.00    -0.014 A 
ATOM     14  C   UNL     1      -0.300   0.608   5.082  0.00  0.00    +0.057 A 
ATOM     15  C   UNL     1      -0.193   1.734   5.876  0.00  0.00    +0.166 A 
ATOM     16  C   UNL     1       0.550   1.691   7.053  0.00  0.00    +0.204 A 
ATOM     17  C   UNL     1       1.189   0.514   7.435  0.00  0.00    +0.166 A 
ATOM     18  C   UNL     1       1.083  -0.618   6.651  0.00  0.00    +0.057 A 
BRANCH  17  19
ATOM     19  O   UNL     1       1.914   0.477   8.585  0.00  0.00    -0.491 OA
ATOM     20  C   UNL     1       2.542  -0.762   8.917  0.00  0.00    +0.277 C 
ENDBRANCH  17  19
BRANCH  16  21
ATOM     21  O   UNL     1       0.653   2.801   7.830  0.00  0.00    -0.488 OA
ATOM     22  C   UNL     1      -0.338   2.977   8.845  0.00  0.00    +0.277 C 
ENDBRANCH  16  21
BRANCH  15  23
ATOM     23  O   UNL     1      -0.815   2.886   5.506  0.00  0.00    -0.491 OA
ATOM     24  C   UNL     1      -1.560   2.859   4.287  0.00  0.00    +0.277 C 
ENDBRANCH  15  23
ENDBRANCH  11  13
BRANCH   4  25
ATOM     25  O   UNL     1       0.288  -2.872  -2.478  0.00  0.00    -0.506 OA
ATOM     26  H   UNL     1       1.100  -3.306  -2.774  0.00  0.00    +0.292 HD
ENDBRANCH   4  25
BRANCH   5  27
ATOM     27  C   UNL     1      -0.267  -4.341  -0.142  0.00  0.00    +0.127 C 
BRANCH  27  28
ATOM     28  N   UNL     1       0.926  -5.196  -0.078  0.00  0.00    -0.295 NA
ATOM     29  C   UNL     1       1.610  -5.050   1.214  0.00  0.00    +0.103 C 
ATOM     30  C   UNL     1       2.938  -5.812   1.174  0.00  0.00    +0.122 C 
ATOM     31  N   UNL     1       2.669  -7.199   0.766  0.00  0.00    -0.314 N 
ATOM     32  C   UNL     1       1.869  -7.425  -0.448  0.00  0.00    +0.122 C 
ATOM     33  C   UNL     1       0.583  -6.599  -0.344  0.00  0.00    +0.103 C 
ATOM     34  C   UNL     1       3.156  -8.269   1.508  0.00  0.00    +0.099 A 
ATOM     35  C   UNL     1       2.994  -9.567   1.035  0.00  0.00    +0.042 A 
ATOM     36  C   UNL     1       3.484 -10.622   1.784  0.00  0.00    +0.005 A 
ATOM     37  C   UNL     1       4.121 -10.342   2.985  0.00  0.00    +0.018 A 
ATOM     38  C   UNL     1       4.247  -9.030   3.394  0.00  0.00    +0.084 A 
ATOM     39  N   UNL     1       3.775  -8.043   2.657  0.00  0.00    -0.350 N 
ATOM     40  H   UNL     1       3.879  -7.129   2.966  0.00  0.00    +0.166 HD
ENDBRANCH  27  28
ENDBRANCH   5  27
TORSDOF 7
