REMARK  Name = ZINC00876064
REMARK  8 active torsions:
REMARK  status: ('A' for Active; 'I' for Inactive)
REMARK    1  A    between atoms: C_1  and  C_2
REMARK    2  A    between atoms: C_4  and  S_27
REMARK    3  A    between atoms: C_5  and  C_25
REMARK    4  A    between atoms: C_6  and  C_19
REMARK    5  A    between atoms: C_8  and  C_9
REMARK    6  A    between atoms: N_11  and  C_12
REMARK    7  A    between atoms: S_27  and  C_28
REMARK    8  A    between atoms: C_28  and  C_29
REMARK                            x       y       z     vdW  Elec       q    Type
REMARK                         _______ _______ _______ _____ _____    ______ ____
ROOT
ATOM      1  C   UNL     1       0.075   1.630  -0.079  0.00  0.00    +0.061 C 
ATOM      2  C   UNL     1      -0.001   0.125  -0.070  0.00  0.00    +0.014 C 
ATOM      3  N   UNL     1      -0.111  -0.551  -1.255  0.00  0.00    -0.312 N 
ATOM      4  C   UNL     1      -0.540  -1.859  -1.268  0.00  0.00    +0.080 C 
ATOM      5  C   UNL     1      -0.518  -2.604  -0.130  0.00  0.00    +0.069 C 
ATOM      6  C   UNL     1      -0.021  -2.031   1.167  0.00  0.00    +0.098 C 
ATOM      7  C   UNL     1       0.047  -0.532   1.100  0.00  0.00    +0.044 C 
ATOM      8  H   UNL     1       0.113  -0.107  -2.087  0.00  0.00    +0.152 HD
ENDROOT
BRANCH   6   9
ATOM      9  C   UNL     1       1.357  -2.572   1.451  0.00  0.00    -0.032 A 
ATOM     10  C   UNL     1       2.405  -2.342   0.572  0.00  0.00    +0.024 A 
ATOM     11  C   UNL     1       3.655  -2.854   0.866  0.00  0.00    +0.111 A 
ATOM     12  N   UNL     1       3.856  -3.552   1.966  0.00  0.00    -0.263 NA
ATOM     13  C   UNL     1       2.884  -3.790   2.824  0.00  0.00    +0.111 A 
ATOM     14  C   UNL     1       1.609  -3.305   2.600  0.00  0.00    +0.024 A 
ENDBRANCH   6   9
BRANCH   7  15
ATOM     15  C   UNL     1       0.158   0.207   2.302  0.00  0.00    +0.247 C 
ATOM     16  O   UNL     1      -0.808   0.331   3.032  0.00  0.00    -0.270 OA
ATOM     17  N   UNL     1       1.334   0.774   2.638  0.00  0.00    -0.282 N 
ATOM     18  H   UNL     1       2.082   0.741   2.022  0.00  0.00    +0.155 HD
BRANCH  17  19
ATOM     19  C   UNL     1       1.475   1.412   3.875  0.00  0.00    +0.034 A 
ATOM     20  C   UNL     1       2.294   2.527   3.993  0.00  0.00    +0.025 A 
ATOM     21  C   UNL     1       2.431   3.155   5.216  0.00  0.00    +0.022 A 
ATOM     22  C   UNL     1       1.754   2.673   6.322  0.00  0.00    +0.041 A 
ATOM     23  C   UNL     1       0.937   1.562   6.207  0.00  0.00    +0.022 A 
ATOM     24  C   UNL     1       0.791   0.935   4.985  0.00  0.00    +0.025 A 
ATOM     25 CL   UNL     1       1.929   3.464   7.858  0.00  0.00    -0.084 Cl
ENDBRANCH  17  19
ENDBRANCH   7  15
BRANCH   5  26
ATOM     26  C   UNL     1      -0.979  -3.959  -0.168  0.00  0.00    +0.098 C 
ATOM     27  N   UNL     1      -1.344  -5.034  -0.199  0.00  0.00    -0.191 NA
ENDBRANCH   5  26
BRANCH   4  28
ATOM     28  S   UNL     1      -1.123  -2.574  -2.769  0.00  0.00    -0.100 S 
BRANCH  28  29
ATOM     29  C   UNL     1      -0.969  -1.234  -3.982  0.00  0.00    +0.171 C 
BRANCH  29  30
ATOM     30  C   UNL     1      -1.440  -1.718  -5.329  0.00  0.00    +0.221 C 
ATOM     31  O   UNL     1      -1.841  -2.855  -5.458  0.00  0.00    -0.275 OA
ATOM     32  N   UNL     1      -1.416  -0.887  -6.390  0.00  0.00    -0.329 N 
ATOM     33  H   UNL     1      -1.096   0.023  -6.286  0.00  0.00    +0.145 HD
ATOM     34  H   UNL     1      -1.720  -1.199  -7.257  0.00  0.00    +0.145 HD
ENDBRANCH  29  30
ENDBRANCH  28  29
ENDBRANCH   4  28
TORSDOF 7
