REMARK  Name = ZINC13500021
REMARK  12 active torsions:
REMARK  status: ('A' for Active; 'I' for Inactive)
REMARK    1  A    between atoms: C_1  and  C_2
REMARK    2  A    between atoms: C_2  and  C_3
REMARK    3  A    between atoms: N_5  and  C_6
REMARK    4  A    between atoms: C_9  and  N_12
REMARK    5  A    between atoms: C_13  and  C_15
REMARK    6  A    between atoms: C_15  and  S_16
REMARK    7  A    between atoms: S_16  and  C_17
REMARK    8  A    between atoms: C_22  and  C_31
REMARK    9  A    between atoms: C_26  and  C_30
REMARK   10  A    between atoms: C_27  and  C_29
REMARK   11  A    between atoms: C_31  and  C_32
REMARK   12  A    between atoms: C_31  and  C_33
REMARK                            x       y       z     vdW  Elec       q    Type
REMARK                         _______ _______ _______ _____ _____    ______ ____
ROOT
ATOM      1  S   UNL     1      -5.454   7.499   0.600  0.00  0.00    -0.076 S 
ENDROOT
BRANCH   1   2
ATOM      2  C   UNL     1      -7.104   8.117   0.628  0.00  0.00    +0.198 A 
ATOM      3  N   UNL     1      -8.204   7.400   0.620  0.00  0.00    -0.122 NA
ATOM      4  N   UNL     1      -9.238   8.168   0.647  0.00  0.00    -0.128 NA
ATOM      5  C   UNL     1      -8.855   9.421   0.673  0.00  0.00    +0.173 A 
ATOM      6  N   UNL     1      -7.477   9.431   0.668  0.00  0.00    -0.257 N 
ATOM      7  C   UNL     1      -6.792  10.612   0.685  0.00  0.00    +0.121 A 
ATOM      8  N   UNL     1      -7.413  11.756   0.717  0.00  0.00    -0.226 NA
ATOM      9  C   UNL     1      -8.740  11.848   0.730  0.00  0.00    +0.114 A 
ATOM     10  C   UNL     1      -9.571  10.715   0.710  0.00  0.00    +0.055 A 
ATOM     11  C   UNL     1     -10.952  10.972   0.728  0.00  0.00    -0.028 A 
ATOM     12  C   UNL     1     -11.403  12.240   0.761  0.00  0.00    -0.008 A 
ATOM     13  S   UNL     1      -9.896  13.195   0.771  0.00  0.00    -0.073 S 
ATOM     14  C   UNL     1     -12.828  12.730   0.785  0.00  0.00    +0.052 C 
ATOM     15  C   UNL     1     -11.930   9.826   0.709  0.00  0.00    +0.045 C 
BRANCH   7  16
ATOM     16  C   UNL     1      -5.285  10.591   0.672  0.00  0.00    +0.049 C 
ATOM     17  C   UNL     1      -4.773  11.441  -0.492  0.00  0.00    +0.015 C 
ATOM     18  C   UNL     1      -4.756  11.159   1.990  0.00  0.00    +0.015 C 
ENDBRANCH   7  16
ENDBRANCH   1   2
BRANCH   1  19
ATOM     19  C   UNL     1      -5.660   5.697   0.559  0.00  0.00    +0.173 C 
BRANCH  19  21
ATOM     20  N   UNL     1      -4.212   3.693   0.500  0.00  0.00    -0.285 N 
ATOM     21  C   UNL     1      -4.306   5.037   0.533  0.00  0.00    +0.227 C 
ATOM     22  O   UNL     1      -3.300   5.715   0.541  0.00  0.00    -0.275 OA
ATOM     23  H   UNL     1      -5.013   3.149   0.561  0.00  0.00    +0.155 HD
BRANCH  20  27
ATOM     24  C   UNL     1      -0.479   1.871   0.138  0.00  0.00    +0.033 A 
ATOM     25  C   UNL     1      -0.611   3.044   0.870  0.00  0.00    +0.025 A 
ATOM     26  C   UNL     1      -1.846   3.650   0.985  0.00  0.00    +0.025 A 
ATOM     27  C   UNL     1      -2.958   3.081   0.379  0.00  0.00    +0.034 A 
ATOM     28  C   UNL     1      -2.827   1.905  -0.348  0.00  0.00    +0.025 A 
ATOM     29  C   UNL     1      -1.591   1.302  -0.469  0.00  0.00    +0.025 A 
BRANCH  24  32
ATOM     30  C   UNL     1       1.109   0.629  -1.127  0.00  0.00    +0.217 C 
ATOM     31  O   UNL     1       0.297   0.523  -2.022  0.00  0.00    -0.275 OA
ATOM     32  N   UNL     1       0.775   1.259   0.016  0.00  0.00    -0.286 N 
ATOM     33  H   UNL     1       1.402   1.286   0.756  0.00  0.00    +0.155 HD
BRANCH  30  35
ATOM     34  C   UNL     1       2.609  -0.601  -2.672  0.00  0.00    +0.013 C 
ATOM     35  C   UNL     1       2.493   0.055  -1.295  0.00  0.00    +0.093 C 
ENDBRANCH  30  35
ENDBRANCH  24  32
ENDBRANCH  20  27
ENDBRANCH  19  21
ENDBRANCH   1  19
TORSDOF 7
