REMARK  Name = ZINC38143731
REMARK  18 active torsions:
REMARK  status: ('A' for Active; 'I' for Inactive)
REMARK    1  A    between atoms: C_1  and  C_2
REMARK    2  A    between atoms: C_4  and  O_43
REMARK    3  A    between atoms: C_6  and  C_32
REMARK    4  A    between atoms: C_8  and  C_31
REMARK    5  A    between atoms: C_12  and  C_30
REMARK    6  A    between atoms: C_21  and  O_29
REMARK    7  A    between atoms: C_23  and  O_28
REMARK    8  A    between atoms: C_25  and  C_26
REMARK    9  A    between atoms: C_25  and  C_27
REMARK   10  A    between atoms: C_32  and  C_33
REMARK   11  A    between atoms: C_32  and  C_34
REMARK   12  A    between atoms: C_32  and  O_42
REMARK   13  A    between atoms: C_34  and  C_36
REMARK   14  A    between atoms: C_36  and  C_37
REMARK   15  A    between atoms: C_37  and  C_38
REMARK   16  A    between atoms: C_38  and  C_39
REMARK   17  A    between atoms: C_38  and  C_40
REMARK   18  A    between atoms: C_38  and  O_41
REMARK                            x       y       z     vdW  Elec       q    Type
REMARK                         _______ _______ _______ _____ _____    ______ ____
ROOT
ATOM      1  C   UNL     1       0.493   0.772  -1.699  0.00  0.00    +0.012 C 
ATOM      2  C   UNL     1       0.738  -0.744  -1.775  0.00  0.00    -0.020 C 
ATOM      3  C   UNL     1       1.799  -0.959  -2.875  0.00  0.00    +0.039 C 
ATOM      4  C   UNL     1       3.113  -0.482  -2.200  0.00  0.00    +0.122 C 
ATOM      5  C   UNL     1       2.900  -0.605  -0.675  0.00  0.00    +0.063 C 
ATOM      6  C   UNL     1       1.503  -1.227  -0.529  0.00  0.00    -0.011 C 
ATOM      7  C   UNL     1       0.739  -0.924   0.728  0.00  0.00    +0.082 C 
ATOM      8  C   UNL     1      -0.756  -0.870   0.424  0.00  0.00    +0.141 C 
ATOM      9  O   UNL     1      -1.454  -0.126   1.103  0.00  0.00    -0.297 OA
ATOM     10  C   UNL     1      -1.322  -1.693  -0.692  0.00  0.00    +0.036 C 
ATOM     11  C   UNL     1      -0.575  -1.475  -1.999  0.00  0.00    +0.013 C 
ATOM     12  C   UNL     1      -1.427  -0.692  -3.000  0.00  0.00    +0.032 C 
ATOM     13  C   UNL     1      -2.798  -1.299  -3.154  0.00  0.00    -0.026 C 
ATOM     14  C   UNL     1      -3.466  -1.674  -2.116  0.00  0.00    -0.061 C 
ATOM     15  C   UNL     1      -2.815  -1.733  -0.768  0.00  0.00    +0.031 C 
ATOM     16  C   UNL     1      -3.593  -0.924   0.250  0.00  0.00    +0.042 C 
ATOM     17  C   UNL     1      -5.015  -1.494   0.313  0.00  0.00    +0.144 C 
ATOM     18  C   UNL     1      -5.702  -1.460  -1.042  0.00  0.00    +0.153 C 
ATOM     19  C   UNL     1      -4.908  -2.129  -2.167  0.00  0.00    +0.015 C 
ATOM     20  C   UNL     1      -5.558  -1.728  -3.500  0.00  0.00    +0.018 C 
ATOM     21  C   UNL     1      -4.988  -3.652  -2.023  0.00  0.00    +0.018 C 
ATOM     22  C   UNL     1      -1.081  -3.176  -0.289  0.00  0.00    +0.020 C 
ATOM     23  C   UNL     1       1.797  -2.741  -0.617  0.00  0.00    +0.012 C 
ENDROOT
BRANCH  18  24
ATOM     24  O   UNL     1      -5.962  -0.093  -1.399  0.00  0.00    -0.388 OA
ATOM     25  H   UNL     1      -6.531   0.376  -0.774  0.00  0.00    +0.210 HD
ENDBRANCH  18  24
BRANCH  17  26
ATOM     26  O   UNL     1      -4.960  -2.831   0.826  0.00  0.00    -0.389 OA
ATOM     27  H   UNL     1      -4.583  -2.896   1.714  0.00  0.00    +0.210 HD
ENDBRANCH  17  26
BRANCH   5  28
ATOM     28  C   UNL     1       3.109   0.712   0.043  0.00  0.00    +0.126 C 
ATOM     29  C   UNL     1       4.497   1.261  -0.293  0.00  0.00    +0.050 C 
BRANCH  28  30
ATOM     30  C   UNL     1       3.000   0.496   1.530  0.00  0.00    +0.165 C 
ATOM     31  O   UNL     1       3.290  -0.574   2.008  0.00  0.00    -0.294 OA
BRANCH  30  32
ATOM     32  C   UNL     1       2.529   1.617   2.421  0.00  0.00    +0.080 C 
BRANCH  32  33
ATOM     33  C   UNL     1       2.510   1.138   3.875  0.00  0.00    +0.042 C 
BRANCH  33  34
ATOM     34  C   UNL     1       2.031   2.276   4.779  0.00  0.00    +0.061 C 
ATOM     35  C   UNL     1       2.130   1.839   6.242  0.00  0.00    +0.041 C 
ATOM     36  C   UNL     1       2.908   3.509   4.555  0.00  0.00    +0.041 C 
BRANCH  34  37
ATOM     37  O   UNL     1       0.673   2.593   4.468  0.00  0.00    -0.389 OA
ATOM     38  H   UNL     1       0.059   1.856   4.588  0.00  0.00    +0.210 HD
ENDBRANCH  34  37
ENDBRANCH  33  34
ENDBRANCH  32  33
ENDBRANCH  30  32
ENDBRANCH  28  30
BRANCH  28  39
ATOM     39  O   UNL     1       2.113   1.647  -0.377  0.00  0.00    -0.381 OA
ATOM     40  H   UNL     1       1.286   1.590   0.120  0.00  0.00    +0.211 HD
ENDBRANCH  28  39
ENDBRANCH   5  28
BRANCH   4  41
ATOM     41  O   UNL     1       3.404   0.869  -2.553  0.00  0.00    -0.391 OA
ATOM     42  H   UNL     1       3.539   1.008  -3.501  0.00  0.00    +0.210 HD
ENDBRANCH   4  41
TORSDOF 10
