REMARK  Name = ZINC03045654
REMARK  6 active torsions:
REMARK  status: ('A' for Active; 'I' for Inactive)
REMARK    1  A    between atoms: C_5  and  C_7
REMARK    2  A    between atoms: C_7  and  N_8
REMARK    3  A    between atoms: C_9  and  C_11
REMARK    4  A    between atoms: C_11  and  N_12
REMARK    5  A    between atoms: N_12  and  C_13
REMARK    6  A    between atoms: C_18  and  C_19
REMARK                            x       y       z     vdW  Elec       q    Type
REMARK                         _______ _______ _______ _____ _____    ______ ____
ROOT
ATOM      1  C   UNL     1      -0.070   3.850  -0.069  0.00  0.00    +0.037 A 
ATOM      2  C   UNL     1      -1.241   3.140   0.157  0.00  0.00    +0.023 A 
ATOM      3  C   UNL     1      -1.210   1.761   0.235  0.00  0.00    +0.002 A 
ATOM      4  C   UNL     1      -0.013   1.078   0.100  0.00  0.00    +0.001 A 
ATOM      5  C   UNL     1       1.160   1.767  -0.125  0.00  0.00    +0.012 A 
ATOM      6  C   UNL     1       1.143   3.160  -0.212  0.00  0.00    +0.026 A 
ENDROOT
BRANCH   6   7
ATOM      7  C   UNL     1       2.397   3.905  -0.454  0.00  0.00    +0.138 A 
ATOM      8  C   UNL     1       2.580   4.652  -1.712  0.00  0.00    +0.275 A 
ATOM      9  O   UNL     1       1.704   4.660  -2.557  0.00  0.00    -0.266 OA
ATOM     10  N   UNL     1       3.731   5.331  -1.911  0.00  0.00    -0.319 N 
ATOM     11  H   UNL     1       3.873   5.851  -2.753  0.00  0.00    +0.169 HD
ATOM     12  C   UNL     1       4.709   5.296  -0.935  0.00  0.00    +0.068 A 
ATOM     13  C   UNL     1       5.906   5.981  -1.119  0.00  0.00    +0.028 A 
ATOM     14  C   UNL     1       6.876   5.942  -0.141  0.00  0.00    +0.002 A 
ATOM     15  C   UNL     1       6.669   5.223   1.029  0.00  0.00    +0.002 A 
ATOM     16  C   UNL     1       5.503   4.544   1.231  0.00  0.00    +0.030 A 
ATOM     17  C   UNL     1       4.499   4.567   0.251  0.00  0.00    +0.088 A 
ATOM     18  N   UNL     1       3.349   3.896   0.450  0.00  0.00    -0.240 NA
ENDBRANCH   6   7
BRANCH   1  19
ATOM     19  N   UNL     1      -0.099   5.239  -0.153  0.00  0.00    -0.335 N 
ATOM     20  H   UNL     1       0.729   5.738  -0.232  0.00  0.00    +0.147 HD
BRANCH  19  21
ATOM     21  C   UNL     1      -1.381   5.948  -0.123  0.00  0.00    +0.197 C 
BRANCH  21  23
ATOM     22  N   UNL     1      -2.178   8.287  -0.222  0.00  0.00    -0.310 N 
ATOM     23  C   UNL     1      -1.137   7.431  -0.229  0.00  0.00    +0.230 C 
ATOM     24  O   UNL     1      -0.004   7.855  -0.320  0.00  0.00    -0.274 OA
ATOM     25  H   UNL     1      -3.084   7.949  -0.148  0.00  0.00    +0.149 HD
BRANCH  22  26
ATOM     26  C   UNL     1      -1.941   9.729  -0.324  0.00  0.00    +0.141 C 
BRANCH  26  31
ATOM     27  C   UNL     1      -5.041  11.572  -1.442  0.00  0.00    +0.000 A 
ATOM     28  C   UNL     1      -5.679  11.797  -0.237  0.00  0.00    +0.001 A 
ATOM     29  C   UNL     1      -5.108  11.354   0.941  0.00  0.00    +0.020 A 
ATOM     30  C   UNL     1      -3.897  10.684   0.913  0.00  0.00    +0.046 A 
ATOM     31  C   UNL     1      -3.260  10.458  -0.293  0.00  0.00    -0.012 A 
ATOM     32  C   UNL     1      -3.829  10.907  -1.470  0.00  0.00    +0.006 A 
ATOM     33 CL   UNL     1      -3.179  10.128   2.393  0.00  0.00    -0.083 Cl
ENDBRANCH  26  31
ENDBRANCH  22  26
ENDBRANCH  21  23
ENDBRANCH  19  21
ENDBRANCH   1  19
TORSDOF 6
