REMARK  Name = ZINC40152858
REMARK  14 active torsions:
REMARK  status: ('A' for Active; 'I' for Inactive)
REMARK    1  A    between atoms: C_1  and  C_2
REMARK    2  A    between atoms: C_2  and  O_3
REMARK    3  A    between atoms: O_3  and  C_4
REMARK    4  A    between atoms: C_4  and  C_6
REMARK    5  A    between atoms: C_7  and  C_28
REMARK    6  A    between atoms: C_10  and  N_11
REMARK    7  A    between atoms: C_12  and  C_14
REMARK    8  A    between atoms: C_14  and  N_15
REMARK    9  A    between atoms: N_15  and  C_16
REMARK   10  A    between atoms: N_15  and  C_17
REMARK   11  A    between atoms: C_17  and  C_18
REMARK   12  A    between atoms: N_20  and  C_21
REMARK   13  A    between atoms: C_24  and  O_27
REMARK   14  A    between atoms: C_31  and  C_34
REMARK                            x       y       z     vdW  Elec       q    Type
REMARK                         _______ _______ _______ _____ _____    ______ ____
ROOT
ATOM      1  N   UNL     1      -3.041  -2.526   2.495  0.00  0.00    -0.281 N 
ATOM      2  C   UNL     1      -3.819  -2.871   3.540  0.00  0.00    +0.201 C 
ATOM      3  O   UNL     1      -4.920  -3.342   3.348  0.00  0.00    -0.278 OA
ATOM      4  H   UNL     1      -2.161  -2.150   2.649  0.00  0.00    +0.155 HD
ENDROOT
BRANCH   1   9
ATOM      5  C   UNL     1      -2.841  -2.416   0.016  0.00  0.00    +0.095 A 
ATOM      6  C   UNL     1      -3.552  -2.716  -1.214  0.00  0.00    +0.005 A 
ATOM      7  C   UNL     1      -4.792  -3.249  -1.056  0.00  0.00    +0.056 A 
ATOM      8  S   UNL     1      -4.977  -3.336   0.712  0.00  0.00    -0.080 S 
ATOM      9  C   UNL     1      -3.499  -2.710   1.200  0.00  0.00    +0.086 A 
BRANCH   6  10
ATOM     10  C   UNL     1      -2.966  -2.457  -2.551  0.00  0.00    -0.017 A 
ATOM     11  C   UNL     1      -2.407  -1.214  -2.841  0.00  0.00    +0.009 A 
ATOM     12  C   UNL     1      -1.862  -0.979  -4.087  0.00  0.00    +0.004 A 
ATOM     13  C   UNL     1      -1.871  -1.975  -5.047  0.00  0.00    -0.050 A 
ATOM     14  C   UNL     1      -2.425  -3.211  -4.765  0.00  0.00    +0.004 A 
ATOM     15  C   UNL     1      -2.967  -3.459  -3.521  0.00  0.00    +0.009 A 
ATOM     16  C   UNL     1      -1.276  -1.712  -6.407  0.00  0.00    +0.044 C 
ENDBRANCH   6  10
BRANCH   5  17
ATOM     17  C   UNL     1      -1.497  -1.838   0.006  0.00  0.00    +0.342 C 
ATOM     18  O   UNL     1      -0.522  -2.566  -0.007  0.00  0.00    -0.245 OA
BRANCH  17  19
ATOM     19  O   UNL     1      -1.339  -0.499   0.012  0.00  0.00    -0.461 OA
BRANCH  19  21
ATOM     20  C   UNL     1      -0.019   1.526   0.010  0.00  0.00    +0.048 C 
ATOM     21  C   UNL     1       0.002  -0.004   0.002  0.00  0.00    +0.229 C 
ENDBRANCH  19  21
ENDBRANCH  17  19
ENDBRANCH   5  17
ENDBRANCH   1   9
BRANCH   2  22
ATOM     22  C   UNL     1      -3.321  -2.671   4.948  0.00  0.00    +0.019 C 
BRANCH  22  23
ATOM     23  N   UNL     1      -4.346  -3.121   5.899  0.00  0.00    +0.389 N 
ATOM     24  C   UNL     1      -4.542  -4.570   5.758  0.00  0.00    -0.095 C 
ATOM     25  H   UNL     1      -5.215  -2.644   5.708  0.00  0.00    -0.081 HD
BRANCH  23  26
ATOM     26  C   UNL     1      -3.911  -2.816   7.269  0.00  0.00    +0.019 C 
BRANCH  26  27
ATOM     27  C   UNL     1      -5.014  -3.165   8.235  0.00  0.00    +0.197 C 
ATOM     28  O   UNL     1      -6.059  -3.622   7.823  0.00  0.00    -0.278 OA
ATOM     29  N   UNL     1      -4.838  -2.969   9.557  0.00  0.00    -0.314 N 
ATOM     30  H   UNL     1      -4.003  -2.603   9.886  0.00  0.00    +0.149 HD
BRANCH  29  31
ATOM     31  C   UNL     1      -5.910  -3.308  10.496  0.00  0.00    +0.073 C 
ATOM     32  C   UNL     1      -6.887  -2.135  10.601  0.00  0.00    +0.025 C 
ATOM     33  C   UNL     1      -8.006  -2.489  11.582  0.00  0.00    +0.033 C 
ATOM     34  C   UNL     1      -7.405  -2.776  12.959  0.00  0.00    +0.115 C 
ATOM     35  C   UNL     1      -6.429  -3.950  12.855  0.00  0.00    +0.033 C 
ATOM     36  C   UNL     1      -5.309  -3.595  11.873  0.00  0.00    +0.025 C 
BRANCH  34  37
ATOM     37  O   UNL     1      -8.451  -3.107  13.875  0.00  0.00    -0.392 OA
ATOM     38  H   UNL     1      -8.142  -3.302  14.771  0.00  0.00    +0.210 HD
ENDBRANCH  34  37
ENDBRANCH  29  31
ENDBRANCH  26  27
ENDBRANCH  23  26
ENDBRANCH  22  23
ENDBRANCH   2  22
TORSDOF 11
