REMARK  Name = ZINC66071173
REMARK  9 active torsions:
REMARK  status: ('A' for Active; 'I' for Inactive)
REMARK    1  A    between atoms: C_1  and  C_2
REMARK    2  A    between atoms: C_2  and  C_3
REMARK    3  A    between atoms: C_3  and  C_4
REMARK    4  A    between atoms: N_6  and  C_7
REMARK    5  A    between atoms: C_11  and  N_13
REMARK    6  A    between atoms: N_13  and  C_14
REMARK    7  A    between atoms: C_14  and  C_15
REMARK    8  A    between atoms: N_17  and  C_18
REMARK    9  A    between atoms: C_21  and  C_25
REMARK                            x       y       z     vdW  Elec       q    Type
REMARK                         _______ _______ _______ _____ _____    ______ ____
ROOT
ATOM      1  N   UNL     1       3.298  -6.695  -4.170  0.00  0.00    -0.334 N 
ATOM      2  H   UNL     1       3.482  -7.646  -4.130  0.00  0.00    +0.147 HD
ENDROOT
BRANCH   1   7
ATOM      3  C   UNL     1       1.687  -4.091  -2.129  0.00  0.00    +0.035 A 
ATOM      4  C   UNL     1       1.281  -4.836  -1.029  0.00  0.00    +0.025 A 
ATOM      5  C   UNL     1       1.545  -6.191  -0.975  0.00  0.00    +0.023 A 
ATOM      6  C   UNL     1       2.213  -6.810  -2.015  0.00  0.00    +0.062 A 
ATOM      7  C   UNL     1       2.622  -6.069  -3.119  0.00  0.00    +0.048 A 
ATOM      8  C   UNL     1       2.353  -4.709  -3.177  0.00  0.00    +0.047 A 
ATOM      9 CL   UNL     1       2.543  -8.513  -1.943  0.00  0.00    -0.082 Cl
BRANCH   3  12
ATOM     10  C   UNL     1       1.458  -1.980  -1.056  0.00  0.00    +0.217 C 
ATOM     11  O   UNL     1       1.643  -2.517   0.016  0.00  0.00    -0.275 OA
ATOM     12  N   UNL     1       1.419  -2.718  -2.182  0.00  0.00    -0.285 N 
ATOM     13  H   UNL     1       1.205  -2.298  -3.030  0.00  0.00    +0.155 HD
BRANCH  10  14
ATOM     14  C   UNL     1       1.272  -0.486  -1.127  0.00  0.00    +0.096 C 
BRANCH  14  16
ATOM     15  C   UNL     1       1.171   1.623   0.209  0.00  0.00    +0.004 C 
ATOM     16  C   UNL     1       1.360   0.107   0.281  0.00  0.00    +0.006 C 
ENDBRANCH  14  16
ENDBRANCH  10  14
ENDBRANCH   3  12
ENDBRANCH   1   7
BRANCH   1  17
ATOM     17  C   UNL     1       3.728  -5.913  -5.332  0.00  0.00    +0.198 C 
BRANCH  17  18
ATOM     18  C   UNL     1       4.428  -6.817  -6.314  0.00  0.00    +0.234 C 
ATOM     19  O   UNL     1       4.555  -7.998  -6.067  0.00  0.00    -0.274 OA
ATOM     20  N   UNL     1       4.913  -6.314  -7.466  0.00  0.00    -0.284 N 
ATOM     21  H   UNL     1       4.877  -5.359  -7.631  0.00  0.00    +0.155 HD
BRANCH  20  22
ATOM     22  C   UNL     1       5.467  -7.169  -8.425  0.00  0.00    +0.035 A 
ATOM     23  C   UNL     1       6.529  -6.739  -9.210  0.00  0.00    +0.023 A 
ATOM     24  C   UNL     1       7.075  -7.585 -10.155  0.00  0.00    +0.006 A 
ATOM     25  C   UNL     1       6.566  -8.859 -10.321  0.00  0.00    -0.032 A 
ATOM     26  C   UNL     1       5.508  -9.292  -9.541  0.00  0.00    +0.046 A 
ATOM     27  C   UNL     1       4.961  -8.451  -8.589  0.00  0.00    +0.043 A 
ATOM     28 CL   UNL     1       4.871 -10.893  -9.753  0.00  0.00    -0.083 Cl
ATOM     29  C   UNL     1       7.163  -9.779 -11.354  0.00  0.00    +0.045 C 
ENDBRANCH  20  22
ENDBRANCH  17  18
ENDBRANCH   1  17
TORSDOF 7
