REMARK  Name = ZINC40173592
REMARK  8 active torsions:
REMARK  status: ('A' for Active; 'I' for Inactive)
REMARK    1  A    between atoms: C_1  and  C_2
REMARK    2  A    between atoms: C_12  and  C_14
REMARK    3  A    between atoms: C_14  and  N_15
REMARK    4  A    between atoms: C_19  and  S_20
REMARK    5  A    between atoms: S_20  and  C_21
REMARK    6  A    between atoms: C_21  and  C_22
REMARK    7  A    between atoms: C_22  and  O_24
REMARK    8  A    between atoms: O_24  and  C_25
REMARK                            x       y       z     vdW  Elec       q    Type
REMARK                         _______ _______ _______ _____ _____    ______ ____
ROOT
ATOM      1  C   UNL     1       0.122  -8.485   0.891  0.00  0.00    +0.223 C 
ENDROOT
BRANCH   1  13
ATOM      2  C   UNL     1      -0.018   1.503   0.010  0.00  0.00    +0.044 C 
ATOM      3  C   UNL     1       0.002  -0.004   0.002  0.00  0.00    -0.049 A 
ATOM      4  C   UNL     1       0.006  -0.698  -1.199  0.00  0.00    +0.005 A 
ATOM      5  C   UNL     1       0.024  -2.068  -1.235  0.00  0.00    +0.029 A 
ATOM      6  C   UNL     1       0.040  -2.822  -0.038  0.00  0.00    +0.080 A 
ATOM      7  C   UNL     1       0.036  -2.081   1.166  0.00  0.00    +0.041 A 
ATOM      8  C   UNL     1       0.023  -0.709   1.191  0.00  0.00    +0.020 A 
ATOM      9  S   UNL     1       0.059  -3.361   2.397  0.00  0.00    -0.052 S 
ATOM     10  C   UNL     1       0.073  -4.752   1.275  0.00  0.00    +0.165 A 
ATOM     11  N   UNL     1       0.059  -4.165   0.101  0.00  0.00    -0.225 NA
ATOM     12  N   UNL     1       0.093  -6.106   1.569  0.00  0.00    -0.263 N 
ATOM     13  C   UNL     1       0.101  -7.012   0.571  0.00  0.00    +0.239 C 
ATOM     14  O   UNL     1       0.090  -6.643  -0.584  0.00  0.00    -0.273 OA
ATOM     15  H   UNL     1       0.101  -6.402   2.493  0.00  0.00    +0.157 HD
ENDBRANCH   1  13
BRANCH   1  16
ATOM     16  N   UNL     1       0.127  -9.255  -0.355  0.00  0.00    -0.282 N 
ATOM     17  C   UNL     1      -0.975  -9.687  -1.036  0.00  0.00    +0.216 A 
ATOM     18  N   UNL     1      -0.567 -10.338  -2.097  0.00  0.00    -0.113 NA
ATOM     19  N   UNL     1       0.834 -10.326  -2.101  0.00  0.00    -0.121 NA
ATOM     20  C   UNL     1       1.235  -9.662  -1.043  0.00  0.00    +0.194 A 
ATOM     21  N   UNL     1      -2.298  -9.474  -0.668  0.00  0.00    -0.328 N 
ATOM     22  H   UNL     1      -2.502  -8.978   0.140  0.00  0.00    +0.145 HD
ATOM     23  H   UNL     1      -3.017  -9.822  -1.219  0.00  0.00    +0.145 HD
BRANCH  20  24
ATOM     24  S   UNL     1       2.909  -9.354  -0.588  0.00  0.00    -0.075 S 
BRANCH  24  25
ATOM     25  C   UNL     1       3.875 -10.149  -1.901  0.00  0.00    +0.197 C 
BRANCH  25  26
ATOM     26  C   UNL     1       5.345  -9.958  -1.630  0.00  0.00    +0.317 C 
ATOM     27  O   UNL     1       5.704  -9.347  -0.651  0.00  0.00    -0.250 OA
BRANCH  26  28
ATOM     28  O   UNL     1       6.256 -10.466  -2.475  0.00  0.00    -0.467 OA
ATOM     29  C   UNL     1       7.631 -10.246  -2.156  0.00  0.00    +0.280 C 
ENDBRANCH  26  28
ENDBRANCH  25  26
ENDBRANCH  24  25
ENDBRANCH  20  24
ENDBRANCH   1  16
TORSDOF 6
