REMARK  Name = ZINC20751481
REMARK  6 active torsions:
REMARK  status: ('A' for Active; 'I' for Inactive)
REMARK    1  A    between atoms: C_4  and  C_7
REMARK    2  A    between atoms: C_7  and  C_9
REMARK    3  A    between atoms: C_7  and  S_22
REMARK    4  A    between atoms: N_11  and  C_12
REMARK    5  A    between atoms: C_16  and  N_18
REMARK    6  A    between atoms: S_22  and  C_23
REMARK                            x       y       z     vdW  Elec       q    Type
REMARK                         _______ _______ _______ _____ _____    ______ ____
ROOT
ATOM      1  C   UNL     1      -0.529  -2.822  -0.159  0.00  0.00    +0.169 C 
ENDROOT
BRANCH   1   5
ATOM      2  C   UNL     1       1.967  -3.630  -3.530  0.00  0.00    +0.000 A 
ATOM      3  C   UNL     1       2.520  -3.542  -2.266  0.00  0.00    +0.000 A 
ATOM      4  C   UNL     1       1.712  -3.280  -1.175  0.00  0.00    +0.005 A 
ATOM      5  C   UNL     1       0.351  -3.107  -1.348  0.00  0.00    -0.025 A 
ATOM      6  C   UNL     1      -0.202  -3.200  -2.611  0.00  0.00    +0.005 A 
ATOM      7  C   UNL     1       0.607  -3.457  -3.703  0.00  0.00    +0.000 A 
ENDBRANCH   1   5
BRANCH   1   8
ATOM      8  C   UNL     1      -1.565  -3.909  -0.029  0.00  0.00    +0.235 C 
ATOM      9  O   UNL     1      -2.666  -3.758  -0.515  0.00  0.00    -0.274 OA
ATOM     10  N   UNL     1      -1.268  -5.048   0.627  0.00  0.00    -0.284 N 
ATOM     11  H   UNL     1      -0.245  -5.221   0.992  0.00  0.00    +0.155 HD
BRANCH  10  12
ATOM     12  C   UNL     1      -2.261  -6.010   0.844  0.00  0.00    +0.036 A 
ATOM     13  C   UNL     1      -3.577  -5.617   1.052  0.00  0.00    +0.025 A 
ATOM     14  C   UNL     1      -4.556  -6.568   1.260  0.00  0.00    +0.024 A 
ATOM     15  C   UNL     1      -4.225  -7.912   1.272  0.00  0.00    +0.071 A 
ATOM     16  C   UNL     1      -2.914  -8.306   1.071  0.00  0.00    +0.146 A 
ATOM     17  C   UNL     1      -1.932  -7.359   0.856  0.00  0.00    +0.057 A 
ATOM     18 CL   UNL     1      -5.457  -9.106   1.540  0.00  0.00    -0.081 Cl
BRANCH  16  19
ATOM     19  N   UNL     1      -2.563  -9.744   1.084  0.00  0.00    +0.058 N 
ATOM     20  O   UNL     1      -1.410 -10.092   0.906  0.00  0.00    -0.126 OA
ATOM     21  O   UNL     1      -3.429 -10.580   1.273  0.00  0.00    -0.126 OA
ENDBRANCH  16  19
ENDBRANCH  10  12
ENDBRANCH   1   8
BRANCH   1  22
ATOM     22  S   UNL     1      -1.355  -1.223  -0.388  0.00  0.00    -0.079 S 
BRANCH  22  23
ATOM     23  C   UNL     1      -0.036  -0.055  -0.373  0.00  0.00    +0.161 A 
ATOM     24  N   UNL     1       1.260  -0.260  -0.232  0.00  0.00    -0.133 NA
ATOM     25  N   UNL     1       2.127   0.808  -0.251  0.00  0.00    -0.125 NA
ATOM     26  C   UNL     1       1.659   2.031  -0.410  0.00  0.00    +0.180 A 
ATOM     27  S   UNL     1      -0.095   1.722  -0.546  0.00  0.00    -0.025 S 
ATOM     28  N   UNL     1       2.347   3.238  -0.459  0.00  0.00    -0.336 N 
ATOM     29  H   UNL     1       1.796   4.179  -0.600  0.00  0.00    +0.144 HD
ATOM     30  H   UNL     1       3.442   3.251  -0.357  0.00  0.00    +0.144 HD
ENDBRANCH  22  23
ENDBRANCH   1  22
TORSDOF 6
