REMARK  Name = ZINC38547008
REMARK  9 active torsions:
REMARK  status: ('A' for Active; 'I' for Inactive)
REMARK    1  A    between atoms: C_1  and  C_2
REMARK    2  A    between atoms: C_2  and  O_3
REMARK    3  A    between atoms: O_3  and  C_4
REMARK    4  A    between atoms: C_7  and  C_10
REMARK    5  A    between atoms: C_10  and  C_12
REMARK    6  A    between atoms: C_10  and  N_26
REMARK    7  A    between atoms: C_14  and  C_25
REMARK    8  A    between atoms: C_16  and  N_17
REMARK    9  A    between atoms: C_18  and  C_20
REMARK                            x       y       z     vdW  Elec       q    Type
REMARK                         _______ _______ _______ _____ _____    ______ ____
ROOT
ATOM      1  C   UNL     1       1.117  -6.035  -1.833  0.00  0.00    +0.135 C 
ENDROOT
BRANCH   1   2
ATOM      2  N   UNL     1       2.379  -6.566  -2.353  0.00  0.00    -0.320 N 
ATOM      3  C   UNL     1       2.763  -7.868  -2.050  0.00  0.00    +0.097 A 
ATOM      4  C   UNL     1       1.985  -8.632  -1.185  0.00  0.00    +0.041 A 
ATOM      5  C   UNL     1       2.378  -9.925  -0.893  0.00  0.00    +0.005 A 
ATOM      6  C   UNL     1       3.540 -10.413  -1.476  0.00  0.00    +0.018 A 
ATOM      7  C   UNL     1       4.264  -9.599  -2.324  0.00  0.00    +0.084 A 
ATOM      8  N   UNL     1       3.862  -8.371  -2.590  0.00  0.00    -0.350 N 
ATOM      9  H   UNL     1       2.948  -6.011  -2.908  0.00  0.00    +0.148 HD
ATOM     10  H   UNL     1       4.387  -7.821  -3.193  0.00  0.00    +0.166 HD
ENDBRANCH   1   2
BRANCH   1  14
ATOM     11  C   UNL     1       1.291  -1.765  -1.765  0.00  0.00    +0.121 A 
ATOM     12  C   UNL     1       0.817  -2.459  -0.661  0.00  0.00    +0.046 A 
ATOM     13  C   UNL     1       0.761  -3.839  -0.685  0.00  0.00    +0.009 A 
ATOM     14  C   UNL     1       1.178  -4.529  -1.809  0.00  0.00    -0.023 A 
ATOM     15  C   UNL     1       1.652  -3.840  -2.910  0.00  0.00    +0.009 A 
ATOM     16  C   UNL     1       1.704  -2.460  -2.893  0.00  0.00    +0.046 A 
BRANCH  11  17
ATOM     17  O   UNL     1       1.346  -0.408  -1.743  0.00  0.00    -0.492 OA
BRANCH  17  19
ATOM     18  C   UNL     1       1.040   1.756  -0.711  0.00  0.00    +0.048 C 
ATOM     19  C   UNL     1       0.905   0.241  -0.549  0.00  0.00    +0.225 C 
ENDBRANCH  17  19
ENDBRANCH  11  17
ENDBRANCH   1  14
BRANCH   1  20
ATOM     20  C   UNL     1      -0.018  -6.477  -2.720  0.00  0.00    +0.006 A 
ATOM     21  C   UNL     1       0.208  -6.796  -4.046  0.00  0.00    +0.018 A 
ATOM     22  C   UNL     1      -0.834  -7.191  -4.816  0.00  0.00    -0.011 A 
ATOM     23  S   UNL     1      -2.196  -7.122  -3.663  0.00  0.00    -0.078 S 
ATOM     24  C   UNL     1      -1.285  -6.577  -2.228  0.00  0.00    +0.078 A 
ATOM     25  C   UNL     1      -0.843  -7.585  -6.270  0.00  0.00    +0.051 C 
BRANCH  24  26
ATOM     26  N   UNL     1      -1.750  -6.317  -0.937  0.00  0.00    -0.273 N 
ATOM     27  C   UNL     1      -3.056  -6.478  -0.646  0.00  0.00    +0.284 C 
ATOM     28  O   UNL     1      -3.830  -6.849  -1.509  0.00  0.00    -0.266 OA
ATOM     29  H   UNL     1      -1.133  -6.021  -0.249  0.00  0.00    +0.156 HD
BRANCH  27  30
ATOM     30  C   UNL     1      -3.545  -6.205   0.709  0.00  0.00    +0.189 A 
ATOM     31  C   UNL     1      -4.835  -6.331   1.137  0.00  0.00    +0.054 A 
ATOM     32  C   UNL     1      -4.847  -5.970   2.494  0.00  0.00    +0.042 A 
ATOM     33  C   UNL     1      -3.580  -5.643   2.829  0.00  0.00    +0.196 A 
ATOM     34  O   UNL     1      -2.797  -5.791   1.753  0.00  0.00    -0.458 OA
ENDBRANCH  27  30
ENDBRANCH  24  26
ENDBRANCH   1  20
TORSDOF 7
