REMARK  Name = ZINC65776654
REMARK  8 active torsions:
REMARK  status: ('A' for Active; 'I' for Inactive)
REMARK    1  A    between atoms: C_1  and  C_2
REMARK    2  A    between atoms: C_2  and  C_3
REMARK    3  A    between atoms: C_2  and  N_16
REMARK    4  A    between atoms: N_5  and  C_6
REMARK    5  A    between atoms: C_11  and  C_12
REMARK    6  A    between atoms: C_12  and  C_13
REMARK    7  A    between atoms: C_12  and  C_14
REMARK    8  A    between atoms: C_12  and  C_15
REMARK                            x       y       z     vdW  Elec       q    Type
REMARK                         _______ _______ _______ _____ _____    ______ ____
ROOT
ATOM      1  C   UNL     1       1.053  -0.652   1.516  0.00  0.00    +0.233 C 
ATOM      2  O   UNL     1       2.019  -1.379   1.608  0.00  0.00    -0.274 OA
ATOM      3  N   UNL     1       0.476  -0.154   2.628  0.00  0.00    -0.311 N 
ATOM      4  H   UNL     1      -0.297   0.427   2.554  0.00  0.00    +0.149 HD
ENDROOT
BRANCH   3   5
ATOM      5  C   UNL     1       1.018  -0.489   3.947  0.00  0.00    +0.077 C 
ATOM      6  C   UNL     1       2.075   0.544   4.342  0.00  0.00    +0.022 C 
ATOM      7  C   UNL     1       1.437   1.934   4.391  0.00  0.00    +0.002 C 
ATOM      8  C   UNL     1       0.307   1.940   5.423  0.00  0.00    +0.000 C 
ATOM      9  C   UNL     1      -0.750   0.907   5.027  0.00  0.00    +0.006 C 
ATOM     10  C   UNL     1      -0.112  -0.483   4.979  0.00  0.00    +0.015 C 
BRANCH  10  11
ATOM     11  C   UNL     1      -1.169  -1.516   4.583  0.00  0.00    -0.033 C 
ATOM     12  C   UNL     1      -0.503  -2.880   4.392  0.00  0.00    +0.011 C 
ATOM     13  C   UNL     1      -2.224  -1.614   5.687  0.00  0.00    +0.011 C 
ATOM     14  C   UNL     1      -1.838  -1.087   3.276  0.00  0.00    +0.011 C 
ENDBRANCH  10  11
ENDBRANCH   3   5
BRANCH   1  16
ATOM     15  C   UNL     1       0.550   1.208  -0.044  0.00  0.00    +0.038 C 
ATOM     16  C   UNL     1       0.496  -0.307   0.159  0.00  0.00    +0.157 C 
BRANCH  16  17
ATOM     17  N   UNL     1       1.292  -0.968  -0.878  0.00  0.00    -0.289 N 
ATOM     18  C   UNL     1       0.743  -1.239  -2.079  0.00  0.00    +0.298 C 
ATOM     19  O   UNL     1      -0.413  -0.935  -2.301  0.00  0.00    -0.253 OA
ATOM     20  N   UNL     1       1.476  -1.847  -3.033  0.00  0.00    -0.313 N 
ATOM     21  H   UNL     1       2.214  -1.210  -0.701  0.00  0.00    +0.151 HD
ATOM     22  H   UNL     1       2.398  -2.089  -2.856  0.00  0.00    +0.146 HD
ATOM     23  H   UNL     1       1.080  -2.042  -3.897  0.00  0.00    +0.146 HD
ENDBRANCH  16  17
ENDBRANCH   1  16
TORSDOF 4
