REMARK  Name = ZINC20037922
REMARK  6 active torsions:
REMARK  status: ('A' for Active; 'I' for Inactive)
REMARK    1  A    between atoms: C_1  and  C_2
REMARK    2  A    between atoms: N_5  and  C_8
REMARK    3  A    between atoms: C_8  and  C_9
REMARK    4  A    between atoms: C_10  and  C_20
REMARK    5  A    between atoms: N_22  and  N_23
REMARK    6  A    between atoms: C_24  and  C_25
REMARK                            x       y       z     vdW  Elec       q    Type
REMARK                         _______ _______ _______ _____ _____    ______ ____
ROOT
ATOM      1  C   UNL     1      -5.860   0.022  -7.472  0.00  0.00    +0.063 A 
ATOM      2  C   UNL     1      -5.300   0.803  -6.501  0.00  0.00    +0.170 A 
ATOM      3  N   UNL     1      -5.514   2.093  -6.816  0.00  0.00    -0.124 NA
ATOM      4  N   UNL     1      -6.164   2.164  -7.925  0.00  0.00    -0.058 NA
ATOM      5  N   UNL     1      -6.410   0.860  -8.378  0.00  0.00    -0.194 N 
ATOM      6  C   UNL     1      -7.092   0.496  -9.545  0.00  0.00    +0.240 A 
ATOM      7  C   UNL     1      -7.682   1.421 -10.517  0.00  0.00    +0.206 A 
ATOM      8  N   UNL     1      -8.232   0.719 -11.469  0.00  0.00    -0.032 NA
ATOM      9  O   UNL     1      -8.031  -0.651 -11.170  0.00  0.00    -0.239 OA
ATOM     10  N   UNL     1      -7.306  -0.722  -9.955  0.00  0.00    -0.027 NA
ATOM     11  N   UNL     1      -7.660   2.809 -10.438  0.00  0.00    -0.337 N 
ATOM     12  H   UNL     1      -8.135   3.413 -11.225  0.00  0.00    +0.144 HD
ATOM     13  H   UNL     1      -7.167   3.304  -9.588  0.00  0.00    +0.144 HD
ENDROOT
BRANCH   2  14
ATOM     14  C   UNL     1      -4.587   0.315  -5.306  0.00  0.00    +0.285 C 
ATOM     15  O   UNL     1      -4.457  -0.880  -5.121  0.00  0.00    -0.267 OA
ATOM     16  N   UNL     1      -4.078   1.192  -4.419  0.00  0.00    -0.202 N 
ATOM     17  H   UNL     1      -4.195   2.273  -4.586  0.00  0.00    +0.178 HD
BRANCH  16  18
ATOM     18  N   UNL     1      -3.400   0.728  -3.284  0.00  0.00    -0.192 NA
ATOM     19  C   UNL     1      -2.917   1.562  -2.442  0.00  0.00    +0.106 C 
BRANCH  19  20
ATOM     20  C   UNL     1      -2.188   1.063  -1.221  0.00  0.00    +0.032 C 
ATOM     21  C   UNL     1      -0.753   1.593  -1.232  0.00  0.00    +0.009 C 
ATOM     22  C   UNL     1      -0.013   1.086   0.008  0.00  0.00    +0.001 C 
ATOM     23  C   UNL     1      -0.729   1.579   1.267  0.00  0.00    +0.000 C 
ATOM     24  C   UNL     1      -2.164   1.050   1.278  0.00  0.00    +0.001 C 
ATOM     25  C   UNL     1      -2.904   1.556   0.038  0.00  0.00    +0.009 C 
ENDBRANCH  19  20
ENDBRANCH  16  18
ENDBRANCH   2  14
BRANCH   1  26
ATOM     26  C   UNL     1      -5.863  -1.484  -7.522  0.00  0.00    -0.020 C 
BRANCH  26  31
ATOM     27  C   UNL     1      -0.915  -3.585  -9.468  0.00  0.00    +0.007 C 
ATOM     28  C   UNL     1      -2.068  -3.164  -8.554  0.00  0.00    -0.018 C 
ATOM     29  C   UNL     1      -3.352  -3.877  -8.988  0.00  0.00    -0.016 C 
ATOM     30  C   UNL     1      -4.513  -3.406  -8.110  0.00  0.00    -0.078 C 
ATOM     31  N   UNL     1      -4.671  -1.952  -8.243  0.00  0.00    +0.383 N 
ATOM     32  C   UNL     1      -3.468  -1.244  -7.787  0.00  0.00    -0.078 C 
ATOM     33  C   UNL     1      -2.276  -1.650  -8.656  0.00  0.00    -0.016 C 
ATOM     34  H   UNL     1      -4.809  -1.726  -9.311  0.00  0.00    -0.081 HD
ENDBRANCH  26  31
ENDBRANCH   1  26
TORSDOF 5
