REMARK  Name = ZINC09488592
REMARK  5 active torsions:
REMARK  status: ('A' for Active; 'I' for Inactive)
REMARK    1  A    between atoms: C_4  and  C_7
REMARK    2  A    between atoms: C_9  and  C_27
REMARK    3  A    between atoms: C_9  and  C_31
REMARK    4  A    between atoms: N_17  and  C_20
REMARK    5  A    between atoms: C_20  and  C_21
REMARK                            x       y       z     vdW  Elec       q    Type
REMARK                         _______ _______ _______ _____ _____    ______ ____
ROOT
ATOM      1  C   UNL     1       3.520  -0.726  -0.403  0.00  0.00    +0.106 C 
ATOM      2  N   UNL     1       3.751  -1.898  -0.898  0.00  0.00    -0.348 N 
ATOM      3  C   UNL     1       5.000  -2.619  -0.687  0.00  0.00    +0.264 C 
ATOM      4  C   UNL     1       5.783  -2.032   0.453  0.00  0.00    +0.098 A 
ATOM      5  C   UNL     1       6.833  -2.757   1.041  0.00  0.00    +0.260 A 
ATOM      6  O   UNL     1       7.115  -3.871   0.633  0.00  0.00    -0.267 OA
ATOM      7  N   UNL     1       7.527  -2.211   2.060  0.00  0.00    -0.302 N 
ATOM      8  H   UNL     1       8.252  -2.709   2.468  0.00  0.00    +0.171 HD
ATOM      9  C   UNL     1       7.223  -0.982   2.515  0.00  0.00    +0.162 A 
ATOM     10  S   UNL     1       8.126  -0.315   3.808  0.00  0.00    -0.013 S 
ATOM     11  N   UNL     1       6.220  -0.269   1.969  0.00  0.00    -0.303 N 
ATOM     12  C   UNL     1       5.488  -0.789   0.932  0.00  0.00    +0.118 A 
ATOM     13  N   UNL     1       4.457  -0.072   0.372  0.00  0.00    -0.286 N 
ATOM     14  H   UNL     1       4.386   0.884   0.522  0.00  0.00    +0.155 HD
ATOM     15  H   UNL     1       3.060  -2.318  -1.434  0.00  0.00    +0.162 HD
ENDROOT
BRANCH   1  19
ATOM     16  C   UNL     1      -0.203   1.164  -1.197  0.00  0.00    +0.000 A 
ATOM     17  C   UNL     1       0.932   1.931  -1.001  0.00  0.00    +0.001 A 
ATOM     18  C   UNL     1       2.143   1.323  -0.743  0.00  0.00    +0.011 A 
ATOM     19  C   UNL     1       2.223  -0.068  -0.679  0.00  0.00    +0.013 A 
ATOM     20  C   UNL     1       1.076  -0.836  -0.878  0.00  0.00    +0.011 A 
ATOM     21  C   UNL     1      -0.130  -0.216  -1.135  0.00  0.00    +0.001 A 
ENDBRANCH   1  19
BRANCH   3  22
ATOM     22  C   UNL     1       5.841  -2.547  -1.962  0.00  0.00    +0.426 C 
ATOM     23  F   UNL     1       6.116  -1.209  -2.265  0.00  0.00    -0.167 F 
ATOM     24  F   UNL     1       7.043  -3.237  -1.768  0.00  0.00    -0.167 F 
ATOM     25  F   UNL     1       5.135  -3.129  -3.020  0.00  0.00    -0.167 F 
ENDBRANCH   3  22
BRANCH   3  26
ATOM     26  C   UNL     1       4.687  -4.084  -0.377  0.00  0.00    +0.426 C 
ATOM     27  F   UNL     1       3.683  -4.539  -1.239  0.00  0.00    -0.167 F 
ATOM     28  F   UNL     1       5.840  -4.855  -0.556  0.00  0.00    -0.167 F 
ATOM     29  F   UNL     1       4.251  -4.198   0.948  0.00  0.00    -0.167 F 
ENDBRANCH   3  26
BRANCH  11  30
ATOM     30  C   UNL     1       5.910   1.067   2.484  0.00  0.00    +0.180 C 
BRANCH  30  31
ATOM     31  C   UNL     1       6.715   2.095   1.731  0.00  0.00    +0.061 A 
ATOM     32  C   UNL     1       6.152   2.745   0.648  0.00  0.00    +0.025 A 
ATOM     33  C   UNL     1       6.901   3.689  -0.037  0.00  0.00    +0.003 A 
ATOM     34  C   UNL     1       8.194   3.945   0.393  0.00  0.00    +0.020 A 
ATOM     35  C   UNL     1       8.689   3.256   1.483  0.00  0.00    +0.111 A 
ATOM     36  N   UNL     1       7.946   2.368   2.115  0.00  0.00    -0.258 NA
ENDBRANCH  30  31
ENDBRANCH  11  30
TORSDOF 5
