REMARK  Name = ZINC39488172
REMARK  9 active torsions:
REMARK  status: ('A' for Active; 'I' for Inactive)
REMARK    1  A    between atoms: C_1  and  C_2
REMARK    2  A    between atoms: C_2  and  C_29
REMARK    3  A    between atoms: N_4  and  C_22
REMARK    4  A    between atoms: N_7  and  C_8
REMARK    5  A    between atoms: C_8  and  C_9
REMARK    6  A    between atoms: C_9  and  C_16
REMARK    7  A    between atoms: N_12  and  O_15
REMARK    8  A    between atoms: C_27  and  O_28
REMARK    9  A    between atoms: C_34  and  O_35
REMARK                            x       y       z     vdW  Elec       q    Type
REMARK                         _______ _______ _______ _____ _____    ______ ____
ROOT
ATOM      1  C   UNL     1       2.088  -2.984   0.572  0.00  0.00    +0.039 C 
ATOM      2  C   UNL     1       1.757  -1.548   0.163  0.00  0.00    +0.081 C 
ATOM      3  C   UNL     1       1.242  -1.503  -1.289  0.00  0.00    +0.146 C 
ATOM      4  N   UNL     1      -0.122  -0.969  -1.163  0.00  0.00    -0.250 N 
ATOM      5  C   UNL     1      -0.385  -0.734   0.129  0.00  0.00    +0.310 C 
ATOM      6  O   UNL     1      -1.447  -0.287   0.519  0.00  0.00    -0.252 OA
ATOM      7  N   UNL     1       0.628  -1.034   0.953  0.00  0.00    -0.274 N 
ENDROOT
BRANCH   4   8
ATOM      8  C   UNL     1      -1.007  -0.743  -2.226  0.00  0.00    +0.079 A 
ATOM      9  C   UNL     1      -1.876  -1.745  -2.633  0.00  0.00    +0.027 A 
ATOM     10  C   UNL     1      -2.748  -1.519  -3.682  0.00  0.00    +0.002 A 
ATOM     11  C   UNL     1      -2.756  -0.296  -4.327  0.00  0.00    +0.004 A 
ATOM     12  C   UNL     1      -1.893   0.707  -3.927  0.00  0.00    +0.047 A 
ATOM     13  C   UNL     1      -1.020   0.490  -2.873  0.00  0.00    +0.138 A 
BRANCH  13  14
ATOM     14  O   UNL     1      -0.174   1.478  -2.475  0.00  0.00    -0.505 OA
ATOM     15  H   UNL     1       0.679   1.472  -2.929  0.00  0.00    +0.292 HD
ENDBRANCH  13  14
ENDBRANCH   4   8
BRANCH   2  16
ATOM     16  C   UNL     1       2.964  -0.661   0.327  0.00  0.00    +0.019 A 
ATOM     17  C   UNL     1       2.882   0.483   1.098  0.00  0.00    +0.009 A 
ATOM     18  C   UNL     1       3.989   1.297   1.249  0.00  0.00    +0.001 A 
ATOM     19  C   UNL     1       5.181   0.970   0.628  0.00  0.00    +0.004 A 
ATOM     20  C   UNL     1       5.268  -0.173  -0.143  0.00  0.00    +0.046 A 
ATOM     21  C   UNL     1       4.160  -0.995  -0.292  0.00  0.00    +0.122 A 
BRANCH  21  22
ATOM     22  O   UNL     1       4.244  -2.122  -1.046  0.00  0.00    -0.506 OA
ATOM     23  H   UNL     1       4.027  -1.988  -1.979  0.00  0.00    +0.292 HD
ENDBRANCH  21  22
ENDBRANCH   2  16
BRANCH   7  24
ATOM     24  C   UNL     1       0.613  -0.876   2.409  0.00  0.00    +0.117 C 
BRANCH  24  25
ATOM     25  C   UNL     1      -0.235  -1.985   3.034  0.00  0.00    -0.008 C 
ATOM     26  C   UNL     1      -0.421  -1.707   4.528  0.00  0.00    +0.026 C 
ATOM     27  C   UNL     1       0.944  -1.720   5.219  0.00  0.00    +0.115 C 
ATOM     28  N   UNL     1       1.581  -3.029   5.022  0.00  0.00    -0.191 NA
ATOM     29  C   UNL     1       1.813  -3.297   3.598  0.00  0.00    +0.115 C 
ATOM     30  C   UNL     1       0.473  -3.331   2.858  0.00  0.00    +0.026 C 
BRANCH  25  31
ATOM     31  C   UNL     1      -1.601  -2.033   2.348  0.00  0.00    -0.003 C 
ATOM     32  C   UNL     1      -2.392  -0.771   2.696  0.00  0.00    +0.004 C 
ATOM     33  C   UNL     1      -3.758  -0.819   2.010  0.00  0.00    +0.000 C 
ATOM     34  C   UNL     1      -4.528  -2.051   2.489  0.00  0.00    +0.000 C 
ATOM     35  C   UNL     1      -3.737  -3.314   2.140  0.00  0.00    +0.000 C 
ATOM     36  C   UNL     1      -2.370  -3.266   2.827  0.00  0.00    +0.004 C 
ENDBRANCH  25  31
BRANCH  28  37
ATOM     37  O   UNL     1       2.826  -3.126   5.784  0.00  0.00    -0.312 OA
ATOM     38  H   UNL     1       3.283  -3.972   5.685  0.00  0.00    +0.237 HD
ENDBRANCH  28  37
ENDBRANCH  24  25
ENDBRANCH   7  24
TORSDOF 8
