REMARK  Name = ZINC04295097
REMARK  10 active torsions:
REMARK  status: ('A' for Active; 'I' for Inactive)
REMARK    1  A    between atoms: C_1  and  C_2
REMARK    2  A    between atoms: C_2  and  C_12
REMARK    3  A    between atoms: N_3  and  C_4
REMARK    4  A    between atoms: C_7  and  O_10
REMARK    5  A    between atoms: O_10  and  C_11
REMARK    6  A    between atoms: C_13  and  O_29
REMARK    7  A    between atoms: N_16  and  C_26
REMARK    8  A    between atoms: C_17  and  C_19
REMARK    9  A    between atoms: C_26  and  C_27
REMARK   10  A    between atoms: C_27  and  O_28
REMARK                            x       y       z     vdW  Elec       q    Type
REMARK                         _______ _______ _______ _____ _____    ______ ____
ROOT
ATOM      1  C   UNL     1      -2.394   1.664  -1.067  0.00  0.00    +0.043 C 
ATOM      2  C   UNL     1      -3.291   1.217  -0.151  0.00  0.00    +0.186 C 
ATOM      3  C   UNL     1      -4.645   1.310  -0.713  0.00  0.00    +0.282 C 
ATOM      4  O   UNL     1      -5.664   0.985  -0.133  0.00  0.00    -0.267 OA
ATOM      5  N   UNL     1      -4.595   1.808  -1.962  0.00  0.00    -0.282 N 
ATOM      6  C   UNL     1      -3.189   2.076  -2.285  0.00  0.00    +0.142 C 
ENDROOT
BRANCH   6   7
ATOM      7  C   UNL     1      -2.988   3.544  -2.563  0.00  0.00    -0.022 A 
ATOM      8  C   UNL     1      -3.563   4.489  -1.735  0.00  0.00    +0.007 A 
ATOM      9  C   UNL     1      -3.379   5.835  -1.989  0.00  0.00    +0.015 A 
ATOM     10  C   UNL     1      -2.619   6.236  -3.073  0.00  0.00    +0.018 A 
ATOM     11  C   UNL     1      -2.043   5.290  -3.901  0.00  0.00    +0.015 A 
ATOM     12  C   UNL     1      -2.223   3.944  -3.643  0.00  0.00    +0.007 A 
ATOM     13 BR   UNL     1      -2.367   8.078  -3.422  0.00  0.00    -0.050 Br
ENDBRANCH   6   7
BRANCH   1  15
ATOM     14  C   UNL     1      -0.353   1.287   0.379  0.00  0.00    +0.064 C 
ATOM     15  C   UNL     1      -0.991   1.736  -0.910  0.00  0.00    +0.022 C 
ATOM     16  N   UNL     1      -0.247   2.191  -1.884  0.00  0.00    -0.358 N 
ATOM     17  H   UNL     1      -0.662   2.563  -2.679  0.00  0.00    +0.166 HD
BRANCH  16  18
ATOM     18  C   UNL     1       1.112   2.144  -1.783  0.00  0.00    +0.040 A 
ATOM     19  C   UNL     1       1.756   0.926  -1.539  0.00  0.00    +0.029 A 
ATOM     20  C   UNL     1       3.130   0.884  -1.437  0.00  0.00    +0.047 A 
ATOM     21  C   UNL     1       3.875   2.049  -1.577  0.00  0.00    +0.120 A 
ATOM     22  C   UNL     1       3.240   3.261  -1.819  0.00  0.00    +0.047 A 
ATOM     23  C   UNL     1       1.868   3.313  -1.929  0.00  0.00    +0.029 A 
BRANCH  21  24
ATOM     24  O   UNL     1       5.229   2.002  -1.476  0.00  0.00    -0.495 OA
ATOM     25  C   UNL     1       5.934   3.236  -1.630  0.00  0.00    +0.277 C 
ENDBRANCH  21  24
ENDBRANCH  16  18
ENDBRANCH   1  15
BRANCH   2  26
ATOM     26  O   UNL     1      -2.985   0.757   1.088  0.00  0.00    -0.502 OA
ATOM     27  H   UNL     1      -3.753   0.480   1.605  0.00  0.00    +0.292 HD
ENDBRANCH   2  26
BRANCH   5  28
ATOM     28  C   UNL     1      -5.742   2.046  -2.841  0.00  0.00    +0.137 C 
BRANCH  28  29
ATOM     29  C   UNL     1      -5.935   0.842  -3.765  0.00  0.00    +0.175 C 
BRANCH  29  30
ATOM     30  O   UNL     1      -6.286  -0.304  -2.987  0.00  0.00    -0.393 OA
ATOM     31  H   UNL     1      -6.424  -1.107  -3.508  0.00  0.00    +0.209 HD
ENDBRANCH  29  30
ENDBRANCH  28  29
ENDBRANCH   5  28
TORSDOF 8
