REMARK  Name = ZINC12548476
REMARK  5 active torsions:
REMARK  status: ('A' for Active; 'I' for Inactive)
REMARK    1  A    between atoms: C_1  and  S_2
REMARK    2  A    between atoms: S_2  and  N_5
REMARK    3  A    between atoms: N_5  and  C_6
REMARK    4  A    between atoms: C_9  and  C_12
REMARK    5  A    between atoms: C_18  and  C_20
REMARK                            x       y       z     vdW  Elec       q    Type
REMARK                         _______ _______ _______ _____ _____    ______ ____
ROOT
ATOM      1  C   UNL     1      -0.160   5.644  -0.042  0.00  0.00    +0.080 A 
ATOM      2  C   UNL     1      -1.358   6.300   0.023  0.00  0.00    +0.076 A 
ATOM      3  S   UNL     1      -0.807   8.001  -0.025  0.00  0.00    -0.060 S 
ATOM      4  C   UNL     1       0.945   7.665  -0.134  0.00  0.00    +0.165 A 
ATOM      5  N   UNL     1       0.961   6.345  -0.122  0.00  0.00    -0.225 NA
ATOM      6  N   UNL     1       2.009   8.556  -0.211  0.00  0.00    -0.264 N 
ATOM      7  C   UNL     1       1.776   9.883  -0.210  0.00  0.00    +0.225 C 
ATOM      8  O   UNL     1       0.640  10.300  -0.142  0.00  0.00    -0.275 OA
ATOM      9  H   UNL     1       2.918   8.223  -0.266  0.00  0.00    +0.157 HD
ENDROOT
BRANCH   7  10
ATOM     10  C   UNL     1       2.930  10.850  -0.294  0.00  0.00    +0.117 C 
ATOM     11  C   UNL     1       2.403  12.287  -0.246  0.00  0.00    +0.055 C 
ATOM     12  C   UNL     1       3.551  13.241  -0.032  0.00  0.00    -0.004 A 
ATOM     13  C   UNL     1       3.365  14.582  -0.323  0.00  0.00    +0.027 A 
ATOM     14  C   UNL     1       4.394  15.486  -0.134  0.00  0.00    +0.041 A 
ATOM     15  C   UNL     1       5.616  15.050   0.348  0.00  0.00    +0.023 A 
ATOM     16  C   UNL     1       5.806  13.715   0.637  0.00  0.00    +0.047 A 
ATOM     17  C   UNL     1       4.773  12.803   0.447  0.00  0.00    +0.124 A 
ATOM     18  O   UNL     1       5.000  11.496   0.740  0.00  0.00    -0.491 OA
ATOM     19  C   UNL     1       3.868  10.641   0.901  0.00  0.00    +0.242 C 
ATOM     20 CL   UNL     1       4.153  17.165  -0.502  0.00  0.00    -0.084 Cl
ENDBRANCH   7  10
BRANCH   1  24
ATOM     21  C   UNL     1      -0.038   1.392  -0.008  0.00  0.00    +0.048 A 
ATOM     22  C   UNL     1      -1.259   2.051   0.058  0.00  0.00    +0.025 A 
ATOM     23  C   UNL     1      -1.301   3.430   0.053  0.00  0.00    +0.012 A 
ATOM     24  C   UNL     1      -0.117   4.162  -0.030  0.00  0.00    +0.001 A 
ATOM     25  C   UNL     1       1.106   3.498  -0.102  0.00  0.00    +0.012 A 
ATOM     26  C   UNL     1       1.143   2.119  -0.091  0.00  0.00    +0.025 A 
BRANCH  21  27
ATOM     27  N   UNL     1       0.002  -0.004   0.002  0.00  0.00    -0.221 N 
ATOM     28  H   UNL     1       0.558  -0.478  -0.637  0.00  0.00    +0.173 HD
BRANCH  27  30
ATOM     29  C   UNL     1      -0.268  -0.325   2.723  0.00  0.00    +0.218 C 
ATOM     30  S   UNL     1      -0.898  -0.850   1.105  0.00  0.00    +0.040 S 
ATOM     31  O   UNL     1      -2.228  -0.384   0.922  0.00  0.00    -0.155 OA
ATOM     32  O   UNL     1      -0.570  -2.213   0.871  0.00  0.00    -0.155 OA
ENDBRANCH  27  30
ENDBRANCH  21  27
ENDBRANCH   1  24
TORSDOF 4
