REMARK  Name = ZINC12602858
REMARK  5 active torsions:
REMARK  status: ('A' for Active; 'I' for Inactive)
REMARK    1  A    between atoms: C_1  and  C_2
REMARK    2  A    between atoms: C_2  and  C_29
REMARK    3  A    between atoms: N_5  and  C_9
REMARK    4  A    between atoms: C_9  and  C_10
REMARK    5  A    between atoms: C_15  and  N_18
REMARK                            x       y       z     vdW  Elec       q    Type
REMARK                         _______ _______ _______ _____ _____    ______ ____
ROOT
ATOM      1  C   UNL     1       1.396   1.982  -0.001  0.00  0.00    +0.234 C 
ATOM      2  O   UNL     1       2.328   1.207  -0.014  0.00  0.00    -0.274 OA
ATOM      3  N   UNL     1       1.624   3.311   0.004  0.00  0.00    -0.300 N 
ATOM      4  C   UNL     1       0.505   4.263   0.014  0.00  0.00    +0.110 C 
ATOM      5  C   UNL     1       0.676   5.243  -1.145  0.00  0.00    +0.044 C 
ATOM      6  C   UNL     1       2.058   5.896  -1.058  0.00  0.00    +0.095 C 
ATOM      7  C   UNL     1       3.140   4.820  -1.170  0.00  0.00    +0.044 C 
ATOM      8  C   UNL     1       2.997   3.834  -0.006  0.00  0.00    +0.110 C 
ENDROOT
BRANCH   6   9
ATOM      9  N   UNL     1       2.212   6.859  -2.151  0.00  0.00    -0.289 N 
ATOM     10  C   UNL     1       2.447   8.224  -2.007  0.00  0.00    +0.070 A 
ATOM     11  C   UNL     1       2.600   9.053  -0.906  0.00  0.00    +0.028 A 
ATOM     12  C   UNL     1       2.829  10.403  -1.088  0.00  0.00    +0.002 A 
ATOM     13  C   UNL     1       2.908  10.932  -2.365  0.00  0.00    +0.002 A 
ATOM     14  C   UNL     1       2.758  10.114  -3.468  0.00  0.00    +0.028 A 
ATOM     15  C   UNL     1       2.527   8.758  -3.295  0.00  0.00    +0.067 A 
ATOM     16  N   UNL     1       2.337   7.700  -4.182  0.00  0.00    -0.306 N 
ATOM     17  H   UNL     1       2.339   7.763  -5.149  0.00  0.00    +0.170 HD
ATOM     18  C   UNL     1       2.156   6.574  -3.466  0.00  0.00    +0.328 A 
ATOM     19  O   UNL     1       1.968   5.468  -3.936  0.00  0.00    -0.247 OA
ENDBRANCH   6   9
BRANCH   1  20
ATOM     20  C   UNL     1      -0.018   1.461   0.010  0.00  0.00    +0.213 C 
BRANCH  20  25
ATOM     21  C   UNL     1      -1.207  -2.948   1.110  0.00  0.00    +0.047 C 
ATOM     22  C   UNL     1       0.037  -2.202   0.624  0.00  0.00    +0.135 C 
ATOM     23  C   UNL     1       0.023  -0.767   1.113  0.00  0.00    +0.251 C 
ATOM     24  O   UNL     1       0.030  -0.385   2.263  0.00  0.00    -0.272 OA
ATOM     25  N   UNL     1       0.002  -0.004   0.002  0.00  0.00    -0.215 N 
ATOM     26  C   UNL     1      -0.004  -0.750  -1.109  0.00  0.00    +0.310 C 
ATOM     27  O   UNL     1      -0.026  -0.287  -2.233  0.00  0.00    -0.252 OA
ATOM     28  N   UNL     1       0.021  -2.068  -0.843  0.00  0.00    -0.281 N 
ATOM     29  H   UNL     1       0.023  -2.790  -1.491  0.00  0.00    +0.152 HD
BRANCH  22  30
ATOM     30  C   UNL     1       1.290  -2.905   1.079  0.00  0.00    -0.016 A 
ATOM     31  C   UNL     1       1.903  -2.530   2.260  0.00  0.00    +0.006 A 
ATOM     32  C   UNL     1       3.050  -3.178   2.679  0.00  0.00    +0.000 A 
ATOM     33  C   UNL     1       3.590  -4.194   1.912  0.00  0.00    +0.000 A 
ATOM     34  C   UNL     1       2.980  -4.565   0.729  0.00  0.00    +0.000 A 
ATOM     35  C   UNL     1       1.830  -3.920   0.312  0.00  0.00    +0.006 A 
ENDBRANCH  22  30
ENDBRANCH  20  25
ENDBRANCH   1  20
TORSDOF 4
