REMARK  Name = ZINC39674028
REMARK  7 active torsions:
REMARK  status: ('A' for Active; 'I' for Inactive)
REMARK    1  A    between atoms: C_1  and  C_2
REMARK    2  A    between atoms: C_4  and  C_12
REMARK    3  A    between atoms: C_12  and  C_13
REMARK    4  A    between atoms: C_13  and  N_14
REMARK    5  A    between atoms: C_15  and  C_17
REMARK    6  A    between atoms: C_28  and  C_30
REMARK    7  A    between atoms: C_36  and  C_38
REMARK                            x       y       z     vdW  Elec       q    Type
REMARK                         _______ _______ _______ _____ _____    ______ ____
ROOT
ATOM      1  C   UNL     1      -5.454   3.718   3.674  0.00  0.00    +0.100 C 
ATOM      2  C   UNL     1      -6.877   3.539   3.099  0.00  0.00    +0.121 C 
ATOM      3  N   UNL     1      -7.761   4.237   4.063  0.00  0.00    -0.300 N 
ATOM      4  C   UNL     1      -7.002   5.452   4.445  0.00  0.00    +0.115 C 
ATOM      5  C   UNL     1      -5.540   4.975   4.556  0.00  0.00    -0.004 C 
ATOM      6  C   UNL     1      -4.594   6.052   4.035  0.00  0.00    -0.010 C 
ATOM      7  C   UNL     1      -4.654   7.270   4.962  0.00  0.00    -0.082 C 
ATOM      8  N   UNL     1      -4.272   6.871   6.322  0.00  0.00    +0.379 N 
ATOM      9  C   UNL     1      -5.241   5.904   6.851  0.00  0.00    -0.082 C 
ATOM     10  C   UNL     1      -5.206   4.629   6.004  0.00  0.00    -0.010 C 
ATOM     11  C   UNL     1      -8.979   3.854   4.494  0.00  0.00    +0.219 C 
ATOM     12  O   UNL     1      -9.584   4.539   5.291  0.00  0.00    -0.275 OA
ATOM     13  H   UNL     1      -3.355   6.451   6.303  0.00  0.00    -0.086 HD
ATOM     14  H   UNL     1      -4.253   7.686   6.917  0.00  0.00    -0.086 HD
ENDROOT
BRANCH  11  15
ATOM     15  C   UNL     1      -9.590   2.573   3.985  0.00  0.00    +0.078 C 
ATOM     16  C   UNL     1      -9.741   2.649   2.464  0.00  0.00    +0.032 C 
ATOM     17  C   UNL     1     -10.330   1.333   1.947  0.00  0.00    +0.108 C 
ATOM     18  N   UNL     1     -11.583   1.061   2.666  0.00  0.00    -0.302 N 
ATOM     19  C   UNL     1     -11.568   1.055   4.135  0.00  0.00    +0.108 C 
ATOM     20  C   UNL     1     -10.965   2.374   4.627  0.00  0.00    +0.032 C 
ATOM     21  C   UNL     1     -12.724   0.822   1.990  0.00  0.00    +0.212 C 
ATOM     22  O   UNL     1     -13.771   0.701   2.590  0.00  0.00    -0.276 OA
ATOM     23  C   UNL     1     -12.700   0.705   0.487  0.00  0.00    +0.109 C 
ENDBRANCH  11  15
BRANCH   1  25
ATOM     24  N   UNL     1      -3.151   3.690   2.773  0.00  0.00    -0.315 N 
ATOM     25  C   UNL     1      -4.461   3.926   2.560  0.00  0.00    +0.218 C 
ATOM     26  O   UNL     1      -4.840   4.305   1.472  0.00  0.00    -0.275 OA
ATOM     27  H   UNL     1      -2.848   3.387   3.643  0.00  0.00    +0.149 HD
BRANCH  24  28
ATOM     28  C   UNL     1      -2.185   3.892   1.690  0.00  0.00    +0.109 C 
BRANCH  28  29
ATOM     29  C   UNL     1      -0.779   3.556   2.192  0.00  0.00    +0.056 C 
BRANCH  29  33
ATOM     30  C   UNL     1       0.738   6.190   1.562  0.00  0.00    +0.063 C 
ATOM     31  C   UNL     1       0.875   4.898   0.798  0.00  0.00    +0.017 A 
ATOM     32  H   UNL     1       2.260   5.388  -0.678  0.00  0.00    +0.166 HD
ATOM     33  C   UNL     1       0.214   3.764   1.078  0.00  0.00    -0.018 A 
ATOM     34  C   UNL     1       0.643   2.765   0.095  0.00  0.00    +0.003 A 
ATOM     35  C   UNL     1       0.320   1.426  -0.132  0.00  0.00    +0.010 A 
ATOM     36  C   UNL     1       0.911   0.751  -1.163  0.00  0.00    +0.001 A 
ATOM     37  C   UNL     1       1.830   1.387  -1.987  0.00  0.00    +0.002 A 
ATOM     38  C   UNL     1       2.163   2.708  -1.781  0.00  0.00    +0.026 A 
ATOM     39  C   UNL     1       1.574   3.414  -0.737  0.00  0.00    +0.047 A 
ATOM     40  N   UNL     1       1.688   4.710  -0.286  0.00  0.00    -0.358 N 
ENDBRANCH  29  33
ENDBRANCH  28  29
ENDBRANCH  24  28
ENDBRANCH   1  25
TORSDOF 5
