REMARK  Name = ZINC57460861
REMARK  6 active torsions:
REMARK  status: ('A' for Active; 'I' for Inactive)
REMARK    1  A    between atoms: C_1  and  C_2
REMARK    2  A    between atoms: C_8  and  C_19
REMARK    3  A    between atoms: C_21  and  O_27
REMARK    4  A    between atoms: C_23  and  O_25
REMARK    5  A    between atoms: O_25  and  C_26
REMARK    6  A    between atoms: O_27  and  C_28
REMARK                            x       y       z     vdW  Elec       q    Type
REMARK                         _______ _______ _______ _____ _____    ______ ____
ROOT
ATOM      1  C   UNL     1       1.093   1.641  -0.143  0.00  0.00    +0.008 C 
ATOM      2  C   UNL     1       0.813   0.137  -0.142  0.00  0.00    -0.009 C 
ATOM      3  C   UNL     1       1.562  -0.528  -1.303  0.00  0.00    +0.009 C 
ATOM      4  C   UNL     1       1.077  -1.971  -1.425  0.00  0.00    +0.054 C 
ATOM      5  C   UNL     1       1.150  -2.669  -0.091  0.00  0.00    +0.021 A 
ATOM      6  C   UNL     1       1.249  -1.982   1.100  0.00  0.00    -0.020 A 
ATOM      7  C   UNL     1       1.306  -2.683   2.305  0.00  0.00    -0.003 A 
ATOM      8  C   UNL     1       1.265  -4.106   2.285  0.00  0.00    +0.017 A 
ATOM      9  C   UNL     1       1.314  -5.029   3.420  0.00  0.00    -0.027 A 
ATOM     10  C   UNL     1       1.260  -6.347   3.140  0.00  0.00    -0.004 A 
ATOM     11  S   UNL     1       1.141  -6.440   1.374  0.00  0.00    -0.075 S 
ATOM     12  C   UNL     1       1.166  -4.701   1.012  0.00  0.00    +0.086 A 
ATOM     13  N   UNL     1       1.113  -3.996  -0.093  0.00  0.00    -0.352 N 
ATOM     14  C   UNL     1       1.292  -7.484   4.116  0.00  0.00    +0.043 C 
ATOM     15  C   UNL     1       1.773  -6.945   5.471  0.00  0.00    +0.005 C 
ATOM     16  C   UNL     1       0.990  -5.670   5.798  0.00  0.00    +0.005 C 
ATOM     17  C   UNL     1       1.422  -4.541   4.862  0.00  0.00    +0.036 C 
ATOM     18  C   UNL     1       1.308  -0.478   1.166  0.00  0.00    +0.040 C 
ATOM     19  H   UNL     1       1.045  -4.461  -0.941  0.00  0.00    +0.166 HD
ENDROOT
BRANCH   7  20
ATOM     20  C   UNL     1       1.407  -1.954   3.591  0.00  0.00    -0.010 A 
ATOM     21  C   UNL     1       2.610  -1.945   4.296  0.00  0.00    +0.054 A 
ATOM     22  C   UNL     1       2.702  -1.262   5.498  0.00  0.00    +0.124 A 
ATOM     23  C   UNL     1       1.598  -0.588   6.000  0.00  0.00    +0.091 A 
ATOM     24  C   UNL     1       0.399  -0.596   5.303  0.00  0.00    +0.124 A 
ATOM     25  C   UNL     1       0.302  -1.272   4.097  0.00  0.00    +0.054 A 
BRANCH  24  26
ATOM     26  O   UNL     1      -0.679   0.065   5.799  0.00  0.00    -0.495 OA
ATOM     27  C   UNL     1      -0.507   0.745   7.044  0.00  0.00    +0.277 C 
ENDBRANCH  24  26
BRANCH  22  28
ATOM     28  O   UNL     1       3.874  -1.253   6.185  0.00  0.00    -0.495 OA
ATOM     29  C   UNL     1       3.897  -0.529   7.417  0.00  0.00    +0.277 C 
ENDBRANCH  22  28
ENDBRANCH   7  20
TORSDOF 3
