REMARK  Name = ZINC01111620
REMARK  11 active torsions:
REMARK  status: ('A' for Active; 'I' for Inactive)
REMARK    1  A    between atoms: C_1  and  C_2
REMARK    2  A    between atoms: C_3  and  C_23
REMARK    3  A    between atoms: C_4  and  C_10
REMARK    4  A    between atoms: C_12  and  O_21
REMARK    5  A    between atoms: C_13  and  O_17
REMARK    6  A    between atoms: O_17  and  C_18
REMARK    7  A    between atoms: C_18  and  C_19
REMARK    8  A    between atoms: C_18  and  C_20
REMARK    9  A    between atoms: O_21  and  C_22
REMARK   10  A    between atoms: N_25  and  C_26
REMARK   11  A    between atoms: C_26  and  C_27
REMARK                            x       y       z     vdW  Elec       q    Type
REMARK                         _______ _______ _______ _____ _____    ______ ____
ROOT
ATOM      1  C   UNL     1       0.566  -4.906   2.410  0.00  0.00    +0.061 C 
ATOM      2  C   UNL     1       0.368  -3.864   3.481  0.00  0.00    +0.019 C 
ATOM      3  C   UNL     1       0.325  -2.560   3.138  0.00  0.00    +0.056 C 
ATOM      4  C   UNL     1       0.119  -1.546   4.245  0.00  0.00    +0.142 C 
ATOM      5  N   UNL     1      -0.013  -2.070   5.615  0.00  0.00    -0.288 N 
ATOM      6  C   UNL     1       0.057  -3.403   5.801  0.00  0.00    +0.304 C 
ATOM      7  O   UNL     1      -0.051  -3.846   6.928  0.00  0.00    -0.252 OA
ATOM      8  N   UNL     1       0.240  -4.255   4.784  0.00  0.00    -0.273 N 
ATOM      9  H   UNL     1      -0.147  -1.470   6.365  0.00  0.00    +0.151 HD
ATOM     10  H   UNL     1       0.282  -5.204   4.984  0.00  0.00    +0.156 HD
ENDROOT
BRANCH   4  11
ATOM     11  C   UNL     1       1.284  -0.591   4.223  0.00  0.00    -0.018 A 
ATOM     12  C   UNL     1       1.116   0.692   3.736  0.00  0.00    +0.055 A 
ATOM     13  C   UNL     1       2.186   1.572   3.716  0.00  0.00    +0.163 A 
ATOM     14  C   UNL     1       3.430   1.161   4.186  0.00  0.00    +0.176 A 
ATOM     15  C   UNL     1       3.592  -0.126   4.673  0.00  0.00    +0.063 A 
ATOM     16  C   UNL     1       2.518  -0.998   4.696  0.00  0.00    +0.025 A 
ATOM     17 BR   UNL     1       5.280  -0.689   5.314  0.00  0.00    -0.046 Br
BRANCH  13  18
ATOM     18  O   UNL     1       2.022   2.834   3.237  0.00  0.00    -0.491 OA
ATOM     19  C   UNL     1       0.695   3.222   2.873  0.00  0.00    +0.277 C 
ENDBRANCH  13  18
BRANCH  14  20
ATOM     20  O   UNL     1       4.483   2.021   4.168  0.00  0.00    -0.485 OA
BRANCH  20  21
ATOM     21  C   UNL     1       4.677   2.834   5.327  0.00  0.00    +0.168 C 
ATOM     22  C   UNL     1       5.589   2.104   6.316  0.00  0.00    +0.051 C 
ATOM     23  C   UNL     1       5.325   4.159   4.919  0.00  0.00    +0.051 C 
ENDBRANCH  20  21
ENDBRANCH  14  20
ENDBRANCH   4  11
BRANCH   3  24
ATOM     24  C   UNL     1       0.462  -2.153   1.788  0.00  0.00    +0.244 C 
ATOM     25  O   UNL     1      -0.521  -1.832   1.146  0.00  0.00    -0.270 OA
ATOM     26  N   UNL     1       1.681  -2.120   1.214  0.00  0.00    -0.307 N 
ATOM     27  H   UNL     1       2.454  -2.449   1.699  0.00  0.00    +0.149 HD
BRANCH  26  28
ATOM     28  C   UNL     1       1.839  -1.589  -0.142  0.00  0.00    +0.139 C 
BRANCH  28  29
ATOM     29  C   UNL     1       3.265  -1.773  -0.591  0.00  0.00    -0.030 A 
ATOM     30  C   UNL     1       4.176  -0.745  -0.439  0.00  0.00    +0.005 A 
ATOM     31  C   UNL     1       5.486  -0.915  -0.847  0.00  0.00    +0.000 A 
ATOM     32  C   UNL     1       5.882  -2.111  -1.416  0.00  0.00    +0.000 A 
ATOM     33  C   UNL     1       4.970  -3.138  -1.573  0.00  0.00    +0.000 A 
ATOM     34  C   UNL     1       3.662  -2.969  -1.160  0.00  0.00    +0.005 A 
ENDBRANCH  28  29
ENDBRANCH  26  28
ENDBRANCH   3  24
TORSDOF 7
