REMARK  Name = ZINC10991441
REMARK  4 active torsions:
REMARK  status: ('A' for Active; 'I' for Inactive)
REMARK    1  A    between atoms: C_4  and  S_8
REMARK    2  A    between atoms: C_6  and  N_7
REMARK    3  A    between atoms: S_8  and  C_9
REMARK    4  A    between atoms: C_9  and  C_10
REMARK                            x       y       z     vdW  Elec       q    Type
REMARK                         _______ _______ _______ _____ _____    ______ ____
ROOT
ATOM      1  C   UNL     1       4.349   2.638  -0.025  0.00  0.00    +0.086 A 
ATOM      2  C   UNL     1       3.426   3.679  -0.011  0.00  0.00    +0.122 A 
ATOM      3  N   UNL     1       2.126   3.393   0.000  0.00  0.00    -0.207 NA
ATOM      4  C   UNL     1       1.708   2.135  -0.003  0.00  0.00    +0.192 A 
ATOM      5  N   UNL     1       2.559   1.119  -0.011  0.00  0.00    -0.207 NA
ATOM      6  C   UNL     1       3.873   1.330  -0.028  0.00  0.00    +0.122 A 
ATOM      7  N   UNL     1       3.854   4.998  -0.008  0.00  0.00    -0.343 N 
ATOM      8  H   UNL     1       3.205   5.719   0.001  0.00  0.00    +0.144 HD
ATOM      9  H   UNL     1       4.803   5.199  -0.016  0.00  0.00    +0.144 HD
ENDROOT
BRANCH   6  10
ATOM     10  N   UNL     1       4.755   0.262  -0.042  0.00  0.00    -0.343 N 
ATOM     11  H   UNL     1       5.712   0.423  -0.051  0.00  0.00    +0.144 HD
ATOM     12  H   UNL     1       4.417  -0.647  -0.044  0.00  0.00    +0.144 HD
ENDBRANCH   6  10
BRANCH   4  13
ATOM     13  S   UNL     1      -0.022   1.806   0.012  0.00  0.00    -0.086 S 
BRANCH  13  14
ATOM     14  C   UNL     1       0.002  -0.004   0.002  0.00  0.00    +0.084 C 
BRANCH  14  15
ATOM     15  C   UNL     1      -1.433  -0.534   0.013  0.00  0.00    +0.038 C 
ATOM     16  C   UNL     1      -1.899  -1.337  -1.203  0.00  0.00    +0.046 C 
ATOM     17  C   UNL     1      -1.627  -2.047   0.125  0.00  0.00    +0.122 C 
ATOM     18 CL   UNL     1      -0.146  -3.070   0.234  0.00  0.00    -0.101 Cl
ATOM     19 CL   UNL     1      -3.051  -2.637   1.061  0.00  0.00    -0.101 Cl
ENDBRANCH  14  15
ENDBRANCH  13  14
ENDBRANCH   4  13
TORSDOF 4
