REMARK  Name = ZINC12250075
REMARK  11 active torsions:
REMARK  status: ('A' for Active; 'I' for Inactive)
REMARK    1  A    between atoms: C_1  and  C_2
REMARK    2  A    between atoms: C_6  and  C_38
REMARK    3  A    between atoms: C_7  and  N_8
REMARK    4  A    between atoms: C_9  and  C_11
REMARK    5  A    between atoms: C_12  and  C_37
REMARK    6  A    between atoms: C_14  and  S_25
REMARK    7  A    between atoms: C_15  and  C_23
REMARK    8  A    between atoms: C_16  and  C_18
REMARK    9  A    between atoms: S_25  and  C_26
REMARK   10  A    between atoms: C_26  and  C_27
REMARK   11  A    between atoms: N_29  and  C_30
REMARK                            x       y       z     vdW  Elec       q    Type
REMARK                         _______ _______ _______ _____ _____    ______ ____
ROOT
ATOM      1  C   UNL     1       1.461  -0.744   0.111  0.00  0.00    +0.047 C 
ATOM      2  C   UNL     1       2.246  -0.148   1.024  0.00  0.00    +0.015 C 
ATOM      3  N   UNL     1       2.132   1.190   1.287  0.00  0.00    -0.312 N 
ATOM      4  C   UNL     1       1.488   2.018   0.395  0.00  0.00    +0.080 C 
ATOM      5  C   UNL     1       0.662   1.501  -0.554  0.00  0.00    +0.072 C 
ATOM      6  C   UNL     1       0.420   0.021  -0.654  0.00  0.00    +0.134 C 
ATOM      7  C   UNL     1       3.268  -0.967   1.770  0.00  0.00    +0.061 C 
ATOM      8  H   UNL     1       2.555   1.606   2.213  0.00  0.00    +0.152 HD
ENDROOT
BRANCH   6   9
ATOM      9  C   UNL     1      -0.942  -0.298  -0.092  0.00  0.00    +0.118 A 
ATOM     10  C   UNL     1      -1.957  -0.867  -0.765  0.00  0.00    +0.045 A 
ATOM     11  C   UNL     1      -3.036  -0.983   0.141  0.00  0.00    +0.041 A 
ATOM     12  C   UNL     1      -2.618  -0.469   1.312  0.00  0.00    +0.195 A 
ATOM     13  O   UNL     1      -1.349  -0.056   1.165  0.00  0.00    -0.467 OA
ENDBRANCH   6   9
BRANCH   1  15
ATOM     14  N   UNL     1       0.766  -2.768  -0.961  0.00  0.00    -0.281 N 
ATOM     15  C   UNL     1       1.619  -2.128  -0.135  0.00  0.00    +0.247 C 
ATOM     16  O   UNL     1       2.525  -2.742   0.398  0.00  0.00    -0.270 OA
ATOM     17  H   UNL     1      -0.026  -2.205  -1.476  0.00  0.00    +0.155 HD
BRANCH  14  24
ATOM     18  C   UNL     1       3.248  -3.768  -1.928  0.00  0.00    +0.045 C 
ATOM     19  C   UNL     1       2.083  -4.677  -1.633  0.00  0.00    -0.029 A 
ATOM     20  C   UNL     1       2.203  -6.039  -1.826  0.00  0.00    +0.005 A 
ATOM     21  C   UNL     1       1.132  -6.873  -1.562  0.00  0.00    +0.001 A 
ATOM     22  C   UNL     1      -0.060  -6.347  -1.097  0.00  0.00    +0.005 A 
ATOM     23  C   UNL     1      -0.184  -4.987  -0.897  0.00  0.00    -0.029 A 
ATOM     24  C   UNL     1       0.889  -4.146  -1.162  0.00  0.00    +0.040 A 
ATOM     25  C   UNL     1      -1.483  -4.415  -0.391  0.00  0.00    +0.045 C 
ENDBRANCH  14  24
ENDBRANCH   1  15
BRANCH   5  26
ATOM     26  C   UNL     1       0.015   2.382  -1.479  0.00  0.00    +0.098 C 
ATOM     27  N   UNL     1      -0.498   3.082  -2.212  0.00  0.00    -0.191 NA
ENDBRANCH   5  26
BRANCH   4  28
ATOM     28  S   UNL     1       1.735   3.760   0.483  0.00  0.00    -0.100 S 
BRANCH  28  29
ATOM     29  C   UNL     1       2.883   3.844   1.880  0.00  0.00    +0.171 C 
BRANCH  29  30
ATOM     30  C   UNL     1       3.246   5.282   2.147  0.00  0.00    +0.227 C 
ATOM     31  O   UNL     1       2.774   6.164   1.460  0.00  0.00    -0.275 OA
ATOM     32  N   UNL     1       4.094   5.589   3.148  0.00  0.00    -0.285 N 
ATOM     33  H   UNL     1       4.591   4.786   3.713  0.00  0.00    +0.155 HD
BRANCH  32  34
ATOM     34  C   UNL     1       4.341   6.929   3.471  0.00  0.00    +0.034 A 
ATOM     35  C   UNL     1       5.559   7.297   4.026  0.00  0.00    +0.026 A 
ATOM     36  C   UNL     1       5.804   8.620   4.338  0.00  0.00    +0.040 A 
ATOM     37  C   UNL     1       4.830   9.577   4.108  0.00  0.00    +0.124 A 
ATOM     38  C   UNL     1       3.612   9.212   3.560  0.00  0.00    +0.040 A 
ATOM     39  C   UNL     1       3.366   7.891   3.241  0.00  0.00    +0.026 A 
ATOM     40  F   UNL     1       5.069  10.870   4.419  0.00  0.00    -0.205 F 
ENDBRANCH  32  34
ENDBRANCH  29  30
ENDBRANCH  28  29
ENDBRANCH   4  28
TORSDOF 8
