REMARK  Name = ZINC39624881
REMARK  6 active torsions:
REMARK  status: ('A' for Active; 'I' for Inactive)
REMARK    1  A    between atoms: C_2  and  C_9
REMARK    2  A    between atoms: C_13  and  C_22
REMARK    3  A    between atoms: N_24  and  C_25
REMARK    4  A    between atoms: C_25  and  C_26
REMARK    5  A    between atoms: C_26  and  C_27
REMARK    6  A    between atoms: C_27  and  N_28
REMARK                            x       y       z     vdW  Elec       q    Type
REMARK                         _______ _______ _______ _____ _____    ______ ____
ROOT
ATOM      1  C   UNL     1       1.168   3.573   0.007  0.00  0.00    +0.247 C 
ATOM      2  O   UNL     1       0.116   4.174  -0.090  0.00  0.00    -0.270 OA
ATOM      3  N   UNL     1       2.327   4.255   0.102  0.00  0.00    -0.296 N 
ATOM      4  C   UNL     1       3.704   3.708   0.099  0.00  0.00    +0.121 C 
ATOM      5  C   UNL     1       4.522   4.716  -0.740  0.00  0.00    +0.100 C 
ATOM      6  C   UNL     1       3.735   6.034  -0.646  0.00  0.00    -0.004 C 
ATOM      7  C   UNL     1       2.512   5.720   0.228  0.00  0.00    +0.115 C 
ATOM      8  C   UNL     1       4.590   7.115   0.010  0.00  0.00    -0.010 C 
ATOM      9  C   UNL     1       3.807   8.431   0.039  0.00  0.00    -0.082 C 
ATOM     10  N   UNL     1       3.453   8.822  -1.330  0.00  0.00    +0.379 N 
ATOM     11  C   UNL     1       2.555   7.823  -1.921  0.00  0.00    -0.082 C 
ATOM     12  C   UNL     1       3.285   6.481  -2.033  0.00  0.00    -0.010 C 
ATOM     13  H   UNL     1       2.991   9.719  -1.313  0.00  0.00    -0.086 HD
ATOM     14  H   UNL     1       4.292   8.890  -1.887  0.00  0.00    -0.086 HD
ENDROOT
BRANCH   1  16
ATOM     15  C   UNL     1       0.131   1.383  -0.568  0.00  0.00    +0.033 A 
ATOM     16  C   UNL     1       1.177   2.095   0.021  0.00  0.00    +0.040 A 
ATOM     17  C   UNL     1       2.231   1.405   0.622  0.00  0.00    +0.033 A 
ATOM     18  C   UNL     1       2.233   0.025   0.631  0.00  0.00    +0.043 A 
ATOM     19  C   UNL     1       1.193  -0.676   0.045  0.00  0.00    +0.040 A 
ATOM     20  C   UNL     1       0.144   0.002  -0.553  0.00  0.00    +0.043 A 
ATOM     21 CL   UNL     1      -1.156  -0.885  -1.285  0.00  0.00    -0.083 Cl
ATOM     22 CL   UNL     1       3.544  -0.834   1.378  0.00  0.00    -0.083 Cl
ENDBRANCH   1  16
BRANCH   5  23
ATOM     23  C   UNL     1       4.610   4.257  -2.172  0.00  0.00    +0.218 C 
ATOM     24  O   UNL     1       3.675   3.676  -2.682  0.00  0.00    -0.275 OA
ATOM     25  N   UNL     1       5.729   4.491  -2.887  0.00  0.00    -0.315 N 
ATOM     26  H   UNL     1       6.476   4.955  -2.480  0.00  0.00    +0.149 HD
BRANCH  25  27
ATOM     27  C   UNL     1       5.815   4.044  -4.280  0.00  0.00    +0.105 C 
BRANCH  27  28
ATOM     28  C   UNL     1       7.178   4.432  -4.857  0.00  0.00    +0.034 C 
BRANCH  28  29
ATOM     29  C   UNL     1       7.268   3.965  -6.311  0.00  0.00    +0.086 C 
BRANCH  29  30
ATOM     30  N   UNL     1       8.577   4.337  -6.865  0.00  0.00    -0.298 NA
ATOM     31  C   UNL     1       8.710   5.798  -6.964  0.00  0.00    +0.112 C 
ATOM     32  C   UNL     1      10.107   6.142  -7.488  0.00  0.00    +0.175 C 
ATOM     33  O   UNL     1      10.313   5.493  -8.745  0.00  0.00    -0.377 OA
ATOM     34  C   UNL     1      10.190   4.069  -8.685  0.00  0.00    +0.175 C 
ATOM     35  C   UNL     1       8.794   3.704  -8.173  0.00  0.00    +0.112 C 
ENDBRANCH  29  30
ENDBRANCH  28  29
ENDBRANCH  27  28
ENDBRANCH  25  27
ENDBRANCH   5  23
TORSDOF 6
