REMARK  Name = ZINC08402538
REMARK  6 active torsions:
REMARK  status: ('A' for Active; 'I' for Inactive)
REMARK    1  A    between atoms: C_1  and  C_2
REMARK    2  A    between atoms: C_2  and  C_3
REMARK    3  A    between atoms: N_7  and  N_8
REMARK    4  A    between atoms: N_9  and  N_10
REMARK    5  A    between atoms: C_11  and  C_12
REMARK    6  A    between atoms: C_17  and  O_18
REMARK                            x       y       z     vdW  Elec       q    Type
REMARK                         _______ _______ _______ _____ _____    ______ ____
ROOT
ATOM      1  C   UNL     1       0.731  -0.503   1.223  0.00  0.00    +0.152 A 
ATOM      2  N   UNL     1       2.010  -0.739   1.317  0.00  0.00    -0.131 NA
ATOM      3  N   UNL     1       2.296  -1.154   2.499  0.00  0.00    -0.110 NA
ATOM      4  C   UNL     1       1.206  -1.206   3.229  0.00  0.00    +0.254 A 
ATOM      5  N   UNL     1       0.175  -0.787   2.438  0.00  0.00    -0.220 N 
ATOM      6  N   UNL     1       1.120  -1.605   4.552  0.00  0.00    -0.204 N 
ATOM      7  H   UNL     1       0.261  -1.608   5.003  0.00  0.00    +0.177 HD
ENDROOT
BRANCH   5   8
ATOM      8  N   UNL     1      -1.141  -0.678   2.789  0.00  0.00    -0.294 N 
ATOM      9  H   UNL     1      -1.637  -1.537   2.606  0.00  0.00    +0.163 HD
ATOM     10  H   UNL     1      -1.236  -0.404   3.755  0.00  0.00    +0.163 HD
ENDBRANCH   5   8
BRANCH   1  12
ATOM     11  C   UNL     1      -0.019   1.526   0.010  0.00  0.00    +0.012 C 
ATOM     12  C   UNL     1       0.002  -0.004   0.002  0.00  0.00    +0.074 C 
ENDBRANCH   1  12
BRANCH   6  13
ATOM     13  N   UNL     1       2.273  -2.005   5.240  0.00  0.00    -0.187 NA
ATOM     14  C   UNL     1       2.193  -2.379   6.481  0.00  0.00    +0.142 C 
BRANCH  14  15
ATOM     15  C   UNL     1       3.406  -2.800   7.204  0.00  0.00    +0.038 A 
ATOM     16  C   UNL     1       3.322  -3.208   8.537  0.00  0.00    +0.027 A 
ATOM     17  C   UNL     1       4.462  -3.601   9.209  0.00  0.00    +0.015 A 
ATOM     18  C   UNL     1       5.689  -3.592   8.566  0.00  0.00    +0.032 A 
ATOM     19  C   UNL     1       5.784  -3.189   7.247  0.00  0.00    +0.056 A 
ATOM     20  C   UNL     1       4.649  -2.797   6.556  0.00  0.00    +0.139 A 
ATOM     21  I   UNL     1       7.647  -3.180   6.288  0.00  0.00    -0.040 I 
ATOM     22  I   UNL     1       4.335  -4.214  11.208  0.00  0.00    -0.044 I 
BRANCH  20  23
ATOM     23  O   UNL     1       4.740  -2.407   5.259  0.00  0.00    -0.505 OA
ATOM     24  H   UNL     1       4.901  -1.460   5.143  0.00  0.00    +0.292 HD
ENDBRANCH  20  23
ENDBRANCH  14  15
ENDBRANCH   6  13
TORSDOF 5
