REMARK  Name = ZINC38547907
REMARK  11 active torsions:
REMARK  status: ('A' for Active; 'I' for Inactive)
REMARK    1  A    between atoms: C_1  and  C_2
REMARK    2  A    between atoms: C_2  and  C_3
REMARK    3  A    between atoms: C_5  and  C_16
REMARK    4  A    between atoms: C_6  and  N_8
REMARK    5  A    between atoms: C_9  and  C_11
REMARK    6  A    between atoms: C_16  and  C_18
REMARK    7  A    between atoms: C_16  and  N_28
REMARK    8  A    between atoms: C_21  and  O_26
REMARK    9  A    between atoms: C_22  and  O_24
REMARK   10  A    between atoms: O_24  and  C_25
REMARK   11  A    between atoms: O_26  and  C_27
REMARK                            x       y       z     vdW  Elec       q    Type
REMARK                         _______ _______ _______ _____ _____    ______ ____
ROOT
ATOM      1  C   UNL     1       3.909  -1.511  -2.896  0.00  0.00    +0.135 C 
ENDROOT
BRANCH   1   2
ATOM      2  N   UNL     1       4.807  -0.908  -1.909  0.00  0.00    -0.320 N 
ATOM      3  C   UNL     1       5.187   0.423  -2.035  0.00  0.00    +0.097 A 
ATOM      4  C   UNL     1       4.791   1.149  -3.154  0.00  0.00    +0.041 A 
ATOM      5  C   UNL     1       5.176   2.473  -3.268  0.00  0.00    +0.005 A 
ATOM      6  C   UNL     1       5.947   3.028  -2.255  0.00  0.00    +0.018 A 
ATOM      7  C   UNL     1       6.304   2.249  -1.173  0.00  0.00    +0.084 A 
ATOM      8  N   UNL     1       5.918   0.990  -1.088  0.00  0.00    -0.350 N 
ATOM      9  H   UNL     1       5.137  -1.438  -1.166  0.00  0.00    +0.148 HD
ATOM     10  H   UNL     1       6.179   0.466  -0.315  0.00  0.00    +0.166 HD
ENDBRANCH   1   2
BRANCH   1  11
ATOM     11  C   UNL     1       4.058  -3.010  -2.862  0.00  0.00    -0.019 A 
ATOM     12  C   UNL     1       4.066  -3.675  -1.650  0.00  0.00    +0.009 A 
ATOM     13  C   UNL     1       4.202  -5.050  -1.613  0.00  0.00    +0.050 A 
ATOM     14  C   UNL     1       4.331  -5.765  -2.793  0.00  0.00    +0.162 A 
ATOM     15  C   UNL     1       4.323  -5.096  -4.013  0.00  0.00    +0.162 A 
ATOM     16  C   UNL     1       4.181  -3.718  -4.043  0.00  0.00    +0.055 A 
BRANCH  15  17
ATOM     17  O   UNL     1       4.450  -5.794  -5.174  0.00  0.00    -0.491 OA
ATOM     18  C   UNL     1       4.433  -5.041  -6.388  0.00  0.00    +0.277 C 
ENDBRANCH  15  17
BRANCH  14  19
ATOM     19  O   UNL     1       4.466  -7.118  -2.759  0.00  0.00    -0.491 OA
ATOM     20  C   UNL     1       4.466  -7.738  -1.471  0.00  0.00    +0.277 C 
ENDBRANCH  14  19
ENDBRANCH   1  11
BRANCH   1  23
ATOM     21  C   UNL     1       0.825  -0.511  -1.017  0.00  0.00    -0.008 A 
ATOM     22  C   UNL     1       2.113  -0.841  -1.274  0.00  0.00    +0.019 A 
ATOM     23  C   UNL     1       2.485  -1.140  -2.572  0.00  0.00    +0.006 A 
ATOM     24  C   UNL     1       1.540  -1.094  -3.552  0.00  0.00    +0.078 A 
ATOM     25  S   UNL     1       0.081  -0.624  -2.636  0.00  0.00    -0.078 S 
BRANCH  24  26
ATOM     26  N   UNL     1       1.675  -1.352  -4.918  0.00  0.00    -0.273 N 
ATOM     27  C   UNL     1       0.606  -1.251  -5.732  0.00  0.00    +0.284 C 
ATOM     28  O   UNL     1      -0.477  -0.933  -5.278  0.00  0.00    -0.266 OA
ATOM     29  H   UNL     1       2.539  -1.605  -5.280  0.00  0.00    +0.156 HD
BRANCH  27  30
ATOM     30  C   UNL     1       0.749  -1.522  -7.166  0.00  0.00    +0.189 A 
ATOM     31  C   UNL     1      -0.246  -1.451  -8.099  0.00  0.00    +0.054 A 
ATOM     32  C   UNL     1       0.333  -1.788  -9.333  0.00  0.00    +0.042 A 
ATOM     33  C   UNL     1       1.639  -2.046  -9.102  0.00  0.00    +0.196 A 
ATOM     34  O   UNL     1       1.887  -1.880  -7.796  0.00  0.00    -0.458 OA
ENDBRANCH  27  30
ENDBRANCH  24  26
BRANCH  21  36
ATOM     35  C   UNL     1       0.269   1.365   0.506  0.00  0.00    +0.009 C 
ATOM     36  C   UNL     1       0.183  -0.148   0.297  0.00  0.00    +0.039 C 
ENDBRANCH  21  36
ENDBRANCH   1  23
TORSDOF 8
