REMARK  Name = ZINC18264722
REMARK  8 active torsions:
REMARK  status: ('A' for Active; 'I' for Inactive)
REMARK    1  A    between atoms: C_1  and  C_2
REMARK    2  A    between atoms: C_2  and  C_4
REMARK    3  A    between atoms: C_2  and  O_16
REMARK    4  A    between atoms: O_16  and  C_17
REMARK    5  A    between atoms: C_17  and  C_19
REMARK    6  A    between atoms: C_24  and  N_25
REMARK    7  A    between atoms: N_25  and  S_26
REMARK    8  A    between atoms: S_26  and  C_29
REMARK                            x       y       z     vdW  Elec       q    Type
REMARK                         _______ _______ _______ _____ _____    ______ ____
ROOT
ATOM      1  C   UNL     1       3.813  -1.247  -2.574  0.00  0.00    +0.081 A 
ATOM      2  C   UNL     1       3.462  -0.471  -3.683  0.00  0.00    +0.017 A 
ATOM      3  C   UNL     1       3.714  -0.937  -4.954  0.00  0.00    +0.001 A 
ATOM      4  C   UNL     1       4.315  -2.172  -5.142  0.00  0.00    +0.002 A 
ATOM      5  C   UNL     1       4.668  -2.949  -4.059  0.00  0.00    +0.025 A 
ATOM      6  C   UNL     1       4.427  -2.495  -2.768  0.00  0.00    +0.062 A 
ENDROOT
BRANCH   1   7
ATOM      7  C   UNL     1       3.547  -0.756  -1.211  0.00  0.00    +0.342 C 
ATOM      8  O   UNL     1       3.854  -1.433  -0.250  0.00  0.00    -0.245 OA
BRANCH   7   9
ATOM      9  O   UNL     1       2.963   0.445  -1.030  0.00  0.00    -0.450 OA
BRANCH   9  11
ATOM     10  C   UNL     1       3.948   1.641   0.849  0.00  0.00    +0.060 C 
ATOM     11  C   UNL     1       2.731   0.866   0.340  0.00  0.00    +0.239 C 
BRANCH  11  12
ATOM     12  C   UNL     1       1.513   1.751   0.395  0.00  0.00    +0.151 A 
ATOM     13  N   UNL     1       0.289   1.171   0.284  0.00  0.00    -0.307 N 
ATOM     14  H   UNL     1       0.221   0.210   0.173  0.00  0.00    +0.170 HD
ATOM     15  C   UNL     1      -0.836   1.923   0.321  0.00  0.00    +0.259 A 
ATOM     16  O   UNL     1      -1.938   1.417   0.217  0.00  0.00    -0.267 OA
ATOM     17  C   UNL     1      -0.674   3.374   0.496  0.00  0.00    +0.065 A 
ATOM     18  C   UNL     1      -1.768   4.236   0.552  0.00  0.00    +0.015 A 
ATOM     19  C   UNL     1      -1.558   5.588   0.713  0.00  0.00    +0.001 A 
ATOM     20  C   UNL     1      -0.270   6.096   0.819  0.00  0.00    +0.002 A 
ATOM     21  C   UNL     1       0.824   5.262   0.765  0.00  0.00    +0.028 A 
ATOM     22  C   UNL     1       0.637   3.887   0.604  0.00  0.00    +0.078 A 
ATOM     23  N   UNL     1       1.686   3.029   0.546  0.00  0.00    -0.230 NA
ENDBRANCH  11  12
ENDBRANCH   9  11
ENDBRANCH   7   9
ENDBRANCH   1   7
BRANCH   6  24
ATOM     24  N   UNL     1       4.786  -3.273  -1.675  0.00  0.00    -0.215 N 
ATOM     25  H   UNL     1       4.231  -3.278  -0.880  0.00  0.00    +0.174 HD
BRANCH  24  26
ATOM     26  S   UNL     1       6.163  -4.192  -1.731  0.00  0.00    +0.072 S 
ATOM     27  O   UNL     1       6.325  -4.758  -0.438  0.00  0.00    -0.150 OA
ATOM     28  O   UNL     1       6.073  -4.988  -2.905  0.00  0.00    -0.150 OA
BRANCH  26  29
ATOM     29  C   UNL     1       7.516  -3.090  -1.972  0.00  0.00    +0.109 A 
ATOM     30  C   UNL     1       7.929  -2.772  -3.252  0.00  0.00    +0.030 A 
ATOM     31  C   UNL     1       8.987  -1.903  -3.442  0.00  0.00    +0.022 A 
ATOM     32  C   UNL     1       9.639  -1.359  -2.350  0.00  0.00    +0.041 A 
ATOM     33  C   UNL     1       9.229  -1.682  -1.069  0.00  0.00    +0.022 A 
ATOM     34  C   UNL     1       8.168  -2.547  -0.880  0.00  0.00    +0.030 A 
ATOM     35 CL   UNL     1      10.972  -0.273  -2.588  0.00  0.00    -0.084 Cl
ENDBRANCH  26  29
ENDBRANCH  24  26
ENDBRANCH   6  24
TORSDOF 7
