REMARK  Name = ZINC08299083
REMARK  9 active torsions:
REMARK  status: ('A' for Active; 'I' for Inactive)
REMARK    1  A    between atoms: C_1  and  C_2
REMARK    2  A    between atoms: N_4  and  C_5
REMARK    3  A    between atoms: C_5  and  C_6
REMARK    4  A    between atoms: C_6  and  N_7
REMARK    5  A    between atoms: C_8  and  C_10
REMARK    6  A    between atoms: C_18  and  C_20
REMARK    7  A    between atoms: C_20  and  N_21
REMARK    8  A    between atoms: C_23  and  C_26
REMARK    9  A    between atoms: C_26  and  O_32
REMARK                            x       y       z     vdW  Elec       q    Type
REMARK                         _______ _______ _______ _____ _____    ______ ____
ROOT
ATOM      1  C   UNL     1       1.398   5.554   2.495  0.00  0.00    +0.061 C 
ATOM      2  C   UNL     1       0.859   4.121   2.526  0.00  0.00    -0.065 C 
ATOM      3  C   UNL     1       2.882   3.324   3.592  0.00  0.00    -0.078 C 
ATOM      4  C   UNL     1       3.480   4.751   3.603  0.00  0.00    -0.015 C 
ATOM      5  C   UNL     1       2.927   5.506   2.387  0.00  0.00    -0.004 C 
ATOM      6  C   UNL     1       3.304   4.749   1.107  0.00  0.00    -0.010 C 
ATOM      7  C   UNL     1       2.712   3.338   1.175  0.00  0.00    -0.046 C 
ATOM      8  N   UNL     1       1.971   3.149   2.441  0.00  0.00    +0.383 N 
ATOM      9  H   UNL     1       1.585   2.198   2.462  0.00  0.00    -0.081 HD
ENDROOT
BRANCH   1  11
ATOM     10  N   UNL     1      -0.503   6.434   1.181  0.00  0.00    -0.314 N 
ATOM     11  C   UNL     1       0.830   6.282   1.304  0.00  0.00    +0.215 C 
ATOM     12  O   UNL     1       1.573   6.730   0.457  0.00  0.00    -0.276 OA
ATOM     13  H   UNL     1      -1.098   6.075   1.858  0.00  0.00    +0.149 HD
BRANCH  10  14
ATOM     14  C   UNL     1      -1.055   7.142   0.023  0.00  0.00    +0.123 C 
BRANCH  14  15
ATOM     15  C   UNL     1      -2.582   7.174   0.125  0.00  0.00    +0.123 C 
BRANCH  15  19
ATOM     16  C   UNL     1      -5.035   8.762  -2.348  0.00  0.00    +0.109 C 
ATOM     17  C   UNL     1      -4.467   8.034  -1.157  0.00  0.00    +0.210 C 
ATOM     18  O   UNL     1      -5.210   7.585  -0.310  0.00  0.00    -0.276 OA
ATOM     19  N   UNL     1      -3.134   7.882  -1.033  0.00  0.00    -0.314 N 
ATOM     20  H   UNL     1      -2.539   8.241  -1.711  0.00  0.00    +0.149 HD
ENDBRANCH  15  19
ENDBRANCH  14  15
ENDBRANCH  10  14
ENDBRANCH   1  11
BRANCH   7  21
ATOM     21  C   UNL     1       1.753   3.130   0.002  0.00  0.00    +0.130 C 
BRANCH  21  22
ATOM     22  N   UNL     1       1.278   1.744  -0.001  0.00  0.00    -0.253 N 
ATOM     23  C   UNL     1      -0.016   1.349   0.009  0.00  0.00    +0.136 A 
ATOM     24  C   UNL     1       0.002  -0.004   0.002  0.00  0.00    +0.114 A 
ATOM     25  N   UNL     1       1.290  -0.366  -0.012  0.00  0.00    -0.132 NA
ATOM     26  N   UNL     1       2.020   0.692  -0.013  0.00  0.00    -0.065 NA
BRANCH  24  27
ATOM     27  C   UNL     1      -1.193  -0.922   0.008  0.00  0.00    +0.111 C 
ATOM     28  C   UNL     1      -2.025  -0.668   1.266  0.00  0.00    +0.041 C 
ATOM     29  C   UNL     1      -3.239  -1.600   1.272  0.00  0.00    +0.003 C 
ATOM     30  C   UNL     1      -2.764  -3.054   1.260  0.00  0.00    +0.000 C 
ATOM     31  C   UNL     1      -1.932  -3.309   0.002  0.00  0.00    +0.003 C 
ATOM     32  C   UNL     1      -0.719  -2.377  -0.004  0.00  0.00    +0.041 C 
BRANCH  27  33
ATOM     33  O   UNL     1      -1.992  -0.672  -1.150  0.00  0.00    -0.382 OA
ATOM     34  H   UNL     1      -2.328   0.233  -1.208  0.00  0.00    +0.211 HD
ENDBRANCH  27  33
ENDBRANCH  24  27
ENDBRANCH  21  22
ENDBRANCH   7  21
TORSDOF 8
