REMARK  Name = ZINC23989506
REMARK  9 active torsions:
REMARK  status: ('A' for Active; 'I' for Inactive)
REMARK    1  A    between atoms: C_1  and  N_2
REMARK    2  A    between atoms: N_2  and  C_3
REMARK    3  A    between atoms: N_2  and  P_4
REMARK    4  A    between atoms: P_4  and  N_20
REMARK    5  A    between atoms: C_6  and  C_16
REMARK    6  A    between atoms: C_8  and  C_10
REMARK    7  A    between atoms: N_20  and  N_21
REMARK    8  A    between atoms: N_21  and  C_22
REMARK    9  A    between atoms: N_21  and  C_28
REMARK                            x       y       z     vdW  Elec       q    Type
REMARK                         _______ _______ _______ _____ _____    ______ ____
ROOT
ATOM      1  P   UNL     1      -1.108  -2.021   0.024  0.00  0.00    +0.235 P 
ATOM      2  N   UNL     1       0.367  -2.541  -0.111  0.00  0.00    -0.197 NA
ATOM      3  C   UNL     1       1.307  -1.630  -0.044  0.00  0.00    +0.163 C 
ATOM      4  N   UNL     1       1.078  -0.345   0.120  0.00  0.00    -0.324 N 
ATOM      5  C   UNL     1      -0.090   0.274   0.257  0.00  0.00    +0.143 C 
ATOM      6  N   UNL     1      -1.237  -0.383   0.232  0.00  0.00    -0.197 NA
ATOM      7  H   UNL     1       1.919   0.363   0.157  0.00  0.00    +0.169 HD
ENDROOT
BRANCH   5   8
ATOM      8  C   UNL     1      -0.107   1.747   0.439  0.00  0.00    +0.017 A 
ATOM      9  C   UNL     1      -1.319   2.421   0.573  0.00  0.00    +0.011 A 
ATOM     10  C   UNL     1      -1.330   3.790   0.747  0.00  0.00    +0.001 A 
ATOM     11  C   UNL     1      -0.140   4.494   0.777  0.00  0.00    +0.000 A 
ATOM     12  C   UNL     1       1.066   3.831   0.638  0.00  0.00    +0.001 A 
ATOM     13  C   UNL     1       1.089   2.462   0.469  0.00  0.00    +0.011 A 
ENDBRANCH   5   8
BRANCH   3  14
ATOM     14  C   UNL     1       2.739  -2.082  -0.169  0.00  0.00    +0.248 C 
ATOM     15 CL   UNL     1       3.833  -0.654  -0.045  0.00  0.00    -0.075 Cl
ATOM     16 CL   UNL     1       3.119  -3.246   1.155  0.00  0.00    -0.075 Cl
ATOM     17 CL   UNL     1       2.979  -2.886  -1.764  0.00  0.00    -0.075 Cl
ENDBRANCH   3  14
BRANCH   1  19
ATOM     18  C   UNL     1      -1.404  -1.770  -2.548  0.00  0.00    +0.113 C 
ATOM     19  N   UNL     1      -1.952  -2.451  -1.367  0.00  0.00    -0.244 NA
ATOM     20  C   UNL     1      -1.951  -3.909  -1.553  0.00  0.00    +0.113 C 
ENDBRANCH   1  19
BRANCH   1  21
ATOM     21  N   UNL     1      -1.825  -2.785   1.340  0.00  0.00    -0.168 NA
ATOM     22  H   UNL     1      -1.825  -3.787   1.222  0.00  0.00    +0.154 HD
BRANCH  21  23
ATOM     23  N   UNL     1      -1.210  -2.430   2.507  0.00  0.00    -0.229 N 
BRANCH  23  24
ATOM     24  C   UNL     1      -1.662  -1.320   3.225  0.00  0.00    +0.050 A 
ATOM     25  C   UNL     1      -3.005  -1.209   3.565  0.00  0.00    +0.025 A 
ATOM     26  C   UNL     1      -3.447  -0.113   4.279  0.00  0.00    +0.002 A 
ATOM     27  C   UNL     1      -2.557   0.880   4.646  0.00  0.00    +0.000 A 
ATOM     28  C   UNL     1      -1.220   0.775   4.306  0.00  0.00    +0.002 A 
ATOM     29  C   UNL     1      -0.770  -0.321   3.596  0.00  0.00    +0.025 A 
ENDBRANCH  23  24
BRANCH  23  30
ATOM     30  C   UNL     1      -0.130  -3.177   2.983  0.00  0.00    +0.050 A 
ATOM     31  C   UNL     1       0.326  -4.276   2.265  0.00  0.00    +0.025 A 
ATOM     32  C   UNL     1       1.397  -5.010   2.736  0.00  0.00    +0.002 A 
ATOM     33  C   UNL     1       2.009  -4.658   3.925  0.00  0.00    +0.000 A 
ATOM     34  C   UNL     1       1.554  -3.568   4.645  0.00  0.00    +0.002 A 
ATOM     35  C   UNL     1       0.487  -2.827   4.177  0.00  0.00    +0.025 A 
ENDBRANCH  23  30
ENDBRANCH  21  23
ENDBRANCH   1  21
TORSDOF 7
