REMARK  Name = ZINC63974370
REMARK  7 active torsions:
REMARK  status: ('A' for Active; 'I' for Inactive)
REMARK    1  A    between atoms: C_4  and  C_7
REMARK    2  A    between atoms: N_9  and  C_10
REMARK    3  A    between atoms: C_10  and  C_12
REMARK    4  A    between atoms: C_10  and  C_24
REMARK    5  A    between atoms: N_26  and  N_27
REMARK    6  A    between atoms: C_28  and  C_29
REMARK    7  A    between atoms: C_34  and  C_35
REMARK                            x       y       z     vdW  Elec       q    Type
REMARK                         _______ _______ _______ _____ _____    ______ ____
ROOT
ATOM      1  C   UNL     1       4.996  -2.742  -0.063  0.00  0.00    +0.189 C 
ENDROOT
BRANCH   1   2
ATOM      2  C   UNL     1       4.904  -3.010   1.441  0.00  0.00    +0.156 C 
ATOM      3  C   UNL     1       5.461  -1.806   2.162  0.00  0.00    -0.009 A 
ATOM      4  C   UNL     1       6.737  -1.348   1.960  0.00  0.00    +0.006 A 
ATOM      5  C   UNL     1       7.183  -0.235   2.657  0.00  0.00    +0.000 A 
ATOM      6  C   UNL     1       6.348   0.413   3.551  0.00  0.00    +0.001 A 
ATOM      7  C   UNL     1       5.061  -0.041   3.763  0.00  0.00    +0.013 A 
ATOM      8  C   UNL     1       4.607  -1.157   3.065  0.00  0.00    +0.045 A 
ATOM      9  C   UNL     1       3.245  -1.695   3.241  0.00  0.00    +0.283 C 
ATOM     10  O   UNL     1       2.483  -1.153   4.017  0.00  0.00    -0.267 OA
ATOM     11  N   UNL     1       2.835  -2.773   2.556  0.00  0.00    -0.105 NA
ATOM     12  N   UNL     1       3.519  -3.397   1.747  0.00  0.00    -0.305 N 
ATOM     13  H   UNL     1       3.134  -4.167   1.299  0.00  0.00    +0.181 HD
ENDBRANCH   1   2
BRANCH   1  16
ATOM     14  C   UNL     1       4.265  -0.432  -0.322  0.00  0.00    +0.245 C 
ATOM     15  O   UNL     1       5.346  -0.073   0.102  0.00  0.00    -0.270 OA
ATOM     16  N   UNL     1       3.991  -1.746  -0.443  0.00  0.00    -0.298 N 
ATOM     17  H   UNL     1       3.128  -2.032  -0.781  0.00  0.00    +0.150 HD
BRANCH  14  21
ATOM     18  C   UNL     1       1.352   2.456  -1.425  0.00  0.00    +0.000 A 
ATOM     19  C   UNL     1       2.581   2.868  -0.942  0.00  0.00    +0.001 A 
ATOM     20  C   UNL     1       3.532   1.935  -0.582  0.00  0.00    +0.013 A 
ATOM     21  C   UNL     1       3.251   0.574  -0.706  0.00  0.00    +0.037 A 
ATOM     22  C   UNL     1       2.009   0.165  -1.193  0.00  0.00    +0.013 A 
ATOM     23  C   UNL     1       1.067   1.108  -1.550  0.00  0.00    +0.001 A 
ENDBRANCH  14  21
ENDBRANCH   1  16
BRANCH   1  24
ATOM     24  C   UNL     1       4.745  -4.021  -0.818  0.00  0.00    +0.255 C 
ATOM     25  O   UNL     1       3.659  -4.228  -1.318  0.00  0.00    -0.272 OA
ATOM     26  N   UNL     1       5.727  -4.937  -0.937  0.00  0.00    -0.206 N 
ATOM     27  H   UNL     1       6.571  -4.806  -0.477  0.00  0.00    +0.177 HD
BRANCH  26  28
ATOM     28  N   UNL     1       5.529  -6.077  -1.726  0.00  0.00    -0.192 NA
ATOM     29  C   UNL     1       6.493  -6.898  -1.918  0.00  0.00    +0.118 C 
BRANCH  29  30
ATOM     30  C   UNL     1       6.315  -8.063  -2.857  0.00  0.00    +0.125 C 
ATOM     31  C   UNL     1       6.602  -9.371  -2.146  0.00  0.00    +0.123 C 
ATOM     32  N   UNL     1       7.603  -9.905  -2.766  0.00  0.00    -0.161 NA
ATOM     33  N   UNL     1       8.050  -9.124  -3.827  0.00  0.00    -0.153 NA
ATOM     34  C   UNL     1       7.354  -8.024  -3.961  0.00  0.00    +0.084 C 
BRANCH  34  35
ATOM     35  C   UNL     1       7.539  -6.968  -4.968  0.00  0.00    -0.001 A 
ATOM     36  C   UNL     1       6.707  -5.844  -4.969  0.00  0.00    +0.012 A 
ATOM     37  C   UNL     1       6.886  -4.859  -5.915  0.00  0.00    +0.039 A 
ATOM     38  C   UNL     1       7.888  -4.980  -6.866  0.00  0.00    +0.123 A 
ATOM     39  C   UNL     1       8.716  -6.092  -6.871  0.00  0.00    +0.039 A 
ATOM     40  C   UNL     1       8.552  -7.082  -5.926  0.00  0.00    +0.012 A 
ATOM     41  F   UNL     1       8.057  -4.011  -7.791  0.00  0.00    -0.205 F 
ENDBRANCH  34  35
ENDBRANCH  29  30
ENDBRANCH  26  28
ENDBRANCH   1  24
TORSDOF 7
