REMARK  Name = ZINC16563034
REMARK  11 active torsions:
REMARK  status: ('A' for Active; 'I' for Inactive)
REMARK    1  A    between atoms: C_1  and  C_2
REMARK    2  A    between atoms: C_2  and  N_58
REMARK    3  A    between atoms: C_3  and  C_4
REMARK    4  A    between atoms: C_3  and  N_58
REMARK    5  A    between atoms: C_10  and  C_16
REMARK    6  A    between atoms: C_11  and  C_15
REMARK    7  A    between atoms: C_19  and  C_22
REMARK    8  A    between atoms: C_23  and  C_24
REMARK    9  A    between atoms: C_23  and  N_58
REMARK   10  A    between atoms: N_26  and  C_27
REMARK   11  A    between atoms: C_27  and  C_28
REMARK                            x       y       z     vdW  Elec       q    Type
REMARK                         _______ _______ _______ _____ _____    ______ ____
ROOT
ATOM      1  C   UNL     1       8.081  -0.750  -4.578  0.00  0.00    +0.094 A 
ATOM      2  N   UNL     1       8.685  -1.076  -5.750  0.00  0.00    -0.312 N 
ATOM      3  H   UNL     1       8.201  -0.961  -6.582  0.00  0.00    +0.170 HD
ATOM      4  C   UNL     1       9.944  -1.552  -5.779  0.00  0.00    +0.260 A 
ATOM      5  O   UNL     1      10.474  -1.836  -6.839  0.00  0.00    -0.267 OA
ATOM      6  C   UNL     1      10.649  -1.724  -4.545  0.00  0.00    +0.080 A 
ATOM      7  C   UNL     1      12.000  -2.221  -4.316  0.00  0.00    +0.007 A 
ATOM      8  C   UNL     1      12.460  -2.297  -3.044  0.00  0.00    -0.003 A 
ATOM      9  S   UNL     1      11.089  -1.700  -2.073  0.00  0.00    -0.073 S 
ATOM     10  C   UNL     1       9.942  -1.365  -3.385  0.00  0.00    +0.116 A 
ATOM     11  N   UNL     1       8.698  -0.896  -3.437  0.00  0.00    -0.229 NA
ATOM     12  C   UNL     1      13.807  -2.773  -2.564  0.00  0.00    +0.052 C 
ENDROOT
BRANCH   7  13
ATOM     13  C   UNL     1      12.856  -2.635  -5.454  0.00  0.00    -0.016 A 
ATOM     14  C   UNL     1      13.267  -1.695  -6.398  0.00  0.00    +0.009 A 
ATOM     15  C   UNL     1      14.067  -2.085  -7.453  0.00  0.00    +0.004 A 
ATOM     16  C   UNL     1      14.452  -3.407  -7.580  0.00  0.00    -0.050 A 
ATOM     17  C   UNL     1      14.043  -4.345  -6.649  0.00  0.00    +0.004 A 
ATOM     18  C   UNL     1      13.247  -3.966  -5.587  0.00  0.00    +0.009 A 
ATOM     19  C   UNL     1      15.321  -3.828  -8.737  0.00  0.00    +0.044 C 
ENDBRANCH   7  13
BRANCH   1  20
ATOM     20  C   UNL     1       6.672  -0.215  -4.595  0.00  0.00    -0.003 C 
BRANCH  20  21
ATOM     21  N   UNL     1       6.211  -0.047  -3.201  0.00  0.00    +0.390 N 
ATOM     22  H   UNL     1       6.950   0.418  -2.659  0.00  0.00    -0.081 HD
BRANCH  21  24
ATOM     23  C   UNL     1       4.785  -2.062  -3.334  0.00  0.00    -0.017 C 
ATOM     24  C   UNL     1       5.933  -1.367  -2.599  0.00  0.00    -0.081 C 
ENDBRANCH  21  24
BRANCH  21  25
ATOM     25  C   UNL     1       4.993   0.790  -3.169  0.00  0.00    +0.019 C 
BRANCH  25  26
ATOM     26  C   UNL     1       4.673   1.127  -1.736  0.00  0.00    +0.197 C 
ATOM     27  O   UNL     1       5.373   0.702  -0.841  0.00  0.00    -0.278 OA
ATOM     28  N   UNL     1       3.608   1.902  -1.447  0.00  0.00    -0.312 N 
ATOM     29  H   UNL     1       3.048   2.242  -2.163  0.00  0.00    +0.149 HD
BRANCH  28  30
ATOM     30  C   UNL     1       3.297   2.230  -0.054  0.00  0.00    +0.146 C 
BRANCH  30  31
ATOM     31  C   UNL     1       2.068   3.102  -0.006  0.00  0.00    +0.007 A 
ATOM     32  C   UNL     1       0.766   2.737   0.088  0.00  0.00    +0.013 A 
ATOM     33  C   UNL     1      -0.205   3.720   0.112  0.00  0.00    +0.008 A 
ATOM     34  C   UNL     1       0.174   5.020   0.051  0.00  0.00    +0.045 A 
ATOM     35  S   UNL     1       1.951   4.882  -0.056  0.00  0.00    -0.100 S 
ENDBRANCH  30  31
ENDBRANCH  28  30
ENDBRANCH  25  26
ENDBRANCH  21  25
ENDBRANCH  20  21
ENDBRANCH   1  20
TORSDOF 8
