REMARK  Name = ZINC11074398
REMARK  11 active torsions:
REMARK  status: ('A' for Active; 'I' for Inactive)
REMARK    1  A    between atoms: C_1  and  C_2
REMARK    2  A    between atoms: C_2  and  C_3
REMARK    3  A    between atoms: C_3  and  C_4
REMARK    4  A    between atoms: C_4  and  N_5
REMARK    5  A    between atoms: N_5  and  C_6
REMARK    6  A    between atoms: N_5  and  S_8
REMARK    7  A    between atoms: C_6  and  C_7
REMARK    8  A    between atoms: S_8  and  C_11
REMARK    9  A    between atoms: C_14  and  C_17
REMARK   10  A    between atoms: N_19  and  C_20
REMARK   11  A    between atoms: C_20  and  C_21
REMARK                            x       y       z     vdW  Elec       q    Type
REMARK                         _______ _______ _______ _____ _____    ______ ____
ROOT
ATOM      1  C   UNL     1      -3.801   1.092   3.630  0.00  0.00    +0.252 C 
ATOM      2  O   UNL     1      -3.558   0.593   4.712  0.00  0.00    -0.270 OA
ATOM      3  N   UNL     1      -3.107   2.170   3.214  0.00  0.00    -0.244 N 
ATOM      4  C   UNL     1      -2.098   2.692   4.007  0.00  0.00    +0.168 A 
ATOM      5  N   UNL     1      -1.676   2.280   5.179  0.00  0.00    -0.224 NA
ATOM      6  C   UNL     1      -0.671   2.891   5.845  0.00  0.00    +0.080 A 
ATOM      7  C   UNL     1      -0.125   2.550   7.104  0.00  0.00    +0.032 A 
ATOM      8  C   UNL     1       0.901   3.281   7.644  0.00  0.00    +0.040 A 
ATOM      9  C   UNL     1       1.440   4.375   6.979  0.00  0.00    +0.125 A 
ATOM     10  C   UNL     1       0.930   4.736   5.744  0.00  0.00    +0.055 A 
ATOM     11  C   UNL     1      -0.099   4.009   5.197  0.00  0.00    +0.043 A 
ATOM     12  S   UNL     1      -1.034   4.092   3.689  0.00  0.00    -0.052 S 
ATOM     13  F   UNL     1       2.452   5.079   7.532  0.00  0.00    -0.205 F 
ENDROOT
BRANCH   1  17
ATOM     14  C   UNL     1      -6.835  -0.561   1.160  0.00  0.00    +0.106 A 
ATOM     15  C   UNL     1      -6.855  -0.792   2.524  0.00  0.00    +0.029 A 
ATOM     16  C   UNL     1      -5.872  -0.259   3.332  0.00  0.00    +0.015 A 
ATOM     17  C   UNL     1      -4.856   0.517   2.771  0.00  0.00    +0.037 A 
ATOM     18  C   UNL     1      -4.845   0.751   1.394  0.00  0.00    +0.015 A 
ATOM     19  C   UNL     1      -5.831   0.207   0.597  0.00  0.00    +0.029 A 
BRANCH  14  20
ATOM     20  S   UNL     1      -8.094  -1.247   0.136  0.00  0.00    +0.061 S 
ATOM     21  O   UNL     1      -7.547  -1.339  -1.173  0.00  0.00    -0.153 OA
ATOM     22  O   UNL     1      -8.609  -2.376   0.827  0.00  0.00    -0.153 OA
BRANCH  20  23
ATOM     23  N   UNL     1      -9.321  -0.138   0.059  0.00  0.00    -0.177 NA
BRANCH  23  24
ATOM     24  C   UNL     1     -10.405  -0.176   1.044  0.00  0.00    +0.106 C 
ATOM     25  C   UNL     1     -10.092   0.794   2.185  0.00  0.00    +0.022 C 
ENDBRANCH  23  24
BRANCH  23  26
ATOM     26  C   UNL     1      -9.323   0.881  -0.994  0.00  0.00    +0.109 C 
BRANCH  26  27
ATOM     27  C   UNL     1     -10.176   0.399  -2.169  0.00  0.00    +0.017 C 
BRANCH  27  29
ATOM     28  C   UNL     1     -11.030   0.981  -4.443  0.00  0.00    +0.004 C 
ATOM     29  C   UNL     1     -10.178   1.463  -3.268  0.00  0.00    -0.002 C 
ENDBRANCH  27  29
ENDBRANCH  26  27
ENDBRANCH  23  26
ENDBRANCH  20  23
ENDBRANCH  14  20
ENDBRANCH   1  17
BRANCH   3  30
ATOM     30  C   UNL     1      -3.420   2.791   1.925  0.00  0.00    +0.147 C 
BRANCH  30  31
ATOM     31  C   UNL     1      -2.412   2.320   0.874  0.00  0.00    +0.136 C 
ATOM     32  C   UNL     1      -2.723   2.962  -0.496  0.00  0.00    +0.035 C 
ATOM     33  C   UNL     1      -1.331   3.240  -1.105  0.00  0.00    +0.031 C 
ATOM     34  C   UNL     1      -0.343   2.733  -0.031  0.00  0.00    +0.160 C 
ATOM     35  O   UNL     1      -1.083   2.785   1.208  0.00  0.00    -0.375 OA
ENDBRANCH  30  31
ENDBRANCH   3  30
TORSDOF 9
