REMARK  Name = ZINC45443342
REMARK  12 active torsions:
REMARK  status: ('A' for Active; 'I' for Inactive)
REMARK    1  A    between atoms: C_1  and  C_2
REMARK    2  A    between atoms: C_2  and  C_4
REMARK    3  A    between atoms: C_2  and  N_14
REMARK    4  A    between atoms: C_15  and  C_17
REMARK    5  A    between atoms: C_17  and  S_18
REMARK    6  A    between atoms: S_18  and  C_19
REMARK    7  A    between atoms: C_22  and  C_31
REMARK    8  A    between atoms: N_23  and  C_24
REMARK    9  A    between atoms: C_31  and  C_33
REMARK   10  A    between atoms: C_31  and  N_34
REMARK   11  A    between atoms: N_34  and  C_35
REMARK   12  A    between atoms: N_34  and  C_36
REMARK                            x       y       z     vdW  Elec       q    Type
REMARK                         _______ _______ _______ _____ _____    ______ ____
ROOT
ATOM      1  S   UNL     1      -0.692  -1.185  -4.945  0.00  0.00    -0.076 S 
ENDROOT
BRANCH   1   2
ATOM      2  C   UNL     1       0.154  -1.943  -6.292  0.00  0.00    +0.197 A 
ATOM      3  N   UNL     1       1.364  -2.451  -6.268  0.00  0.00    -0.122 NA
ATOM      4  N   UNL     1       1.665  -2.920  -7.425  0.00  0.00    -0.135 NA
ATOM      5  C   UNL     1       0.675  -2.742  -8.253  0.00  0.00    +0.125 A 
ATOM      6  N   UNL     1      -0.328  -2.118  -7.560  0.00  0.00    -0.275 N 
BRANCH   6   7
ATOM      7  C   UNL     1      -1.586  -1.735  -8.050  0.00  0.00    +0.050 A 
ATOM      8  C   UNL     1      -2.497  -2.700  -8.454  0.00  0.00    +0.028 A 
ATOM      9  C   UNL     1      -3.735  -2.321  -8.936  0.00  0.00    +0.022 A 
ATOM     10  C   UNL     1      -4.067  -0.980  -9.014  0.00  0.00    +0.041 A 
ATOM     11  C   UNL     1      -3.160  -0.015  -8.611  0.00  0.00    +0.022 A 
ATOM     12  C   UNL     1      -1.923  -0.390  -8.124  0.00  0.00    +0.028 A 
ATOM     13 CL   UNL     1      -5.623  -0.506  -9.621  0.00  0.00    -0.084 Cl
ENDBRANCH   6   7
BRANCH   5  14
ATOM     14  C   UNL     1       0.637  -3.153  -9.703  0.00  0.00    -0.003 C 
ATOM     15  C   UNL     1       1.497  -2.193 -10.527  0.00  0.00    -0.005 C 
BRANCH  14  16
ATOM     16  N   UNL     1       1.161  -4.519  -9.839  0.00  0.00    +0.382 N 
ATOM     17  C   UNL     1       0.335  -5.441  -9.047  0.00  0.00    -0.096 C 
ATOM     18  C   UNL     1       1.124  -4.919 -11.252  0.00  0.00    -0.096 C 
ATOM     19  H   UNL     1       2.112  -4.549  -9.505  0.00  0.00    -0.082 HD
ENDBRANCH  14  16
ENDBRANCH   5  14
ENDBRANCH   1   2
BRANCH   1  20
ATOM     20  C   UNL     1       0.493  -1.276  -3.575  0.00  0.00    +0.173 C 
BRANCH  20  22
ATOM     21  N   UNL     1       0.592  -0.609  -1.195  0.00  0.00    -0.308 N 
ATOM     22  C   UNL     1      -0.113  -0.654  -2.343  0.00  0.00    +0.224 C 
ATOM     23  O   UNL     1      -1.234  -0.195  -2.386  0.00  0.00    -0.275 OA
ATOM     24  H   UNL     1       1.489  -0.976  -1.161  0.00  0.00    +0.149 HD
BRANCH  21  26
ATOM     25  C   UNL     1       0.268   1.503  -0.004  0.00  0.00    +0.033 C 
ATOM     26  C   UNL     1       0.002  -0.004   0.002  0.00  0.00    +0.101 C 
BRANCH  26  27
ATOM     27  C   UNL     1       0.620  -0.619   1.231  0.00  0.00    -0.020 A 
ATOM     28  C   UNL     1       1.876  -1.141   1.178  0.00  0.00    +0.006 A 
ATOM     29  C   UNL     1       2.464  -1.714   2.304  0.00  0.00    +0.001 A 
ATOM     30  C   UNL     1       1.799  -1.768   3.490  0.00  0.00    +0.008 A 
ATOM     31  C   UNL     1       0.501  -1.239   3.584  0.00  0.00    -0.018 A 
ATOM     32  C   UNL     1      -0.095  -0.651   2.440  0.00  0.00    -0.013 A 
ATOM     33  C   UNL     1      -1.391  -0.117   2.536  0.00  0.00    +0.009 A 
ATOM     34  C   UNL     1      -2.054  -0.165   3.724  0.00  0.00    +0.001 A 
ATOM     35  C   UNL     1      -1.466  -0.738   4.851  0.00  0.00    +0.001 A 
ATOM     36  C   UNL     1      -0.217  -1.277   4.792  0.00  0.00    +0.008 A 
ENDBRANCH  26  27
ENDBRANCH  21  26
ENDBRANCH  20  22
ENDBRANCH   1  20
TORSDOF 8
