REMARK  Name = ZINC39666014
REMARK  10 active torsions:
REMARK  status: ('A' for Active; 'I' for Inactive)
REMARK    1  A    between atoms: C_1  and  C_2
REMARK    2  A    between atoms: C_5  and  O_8
REMARK    3  A    between atoms: O_8  and  C_9
REMARK    4  A    between atoms: C_9  and  C_11
REMARK    5  A    between atoms: C_9  and  C_12
REMARK    6  A    between atoms: C_12  and  N_13
REMARK    7  A    between atoms: C_14  and  C_16
REMARK    8  A    between atoms: C_27  and  C_29
REMARK    9  A    between atoms: C_32  and  O_35
REMARK   10  A    between atoms: O_35  and  C_36
REMARK                            x       y       z     vdW  Elec       q    Type
REMARK                         _______ _______ _______ _____ _____    ______ ____
ROOT
ATOM      1  C   UNL     1       5.040  -6.668  -0.170  0.00  0.00    +0.100 C 
ATOM      2  C   UNL     1       5.766  -6.040   1.041  0.00  0.00    +0.121 C 
ATOM      3  N   UNL     1       6.335  -7.194   1.776  0.00  0.00    -0.296 N 
ATOM      4  C   UNL     1       6.812  -8.110   0.711  0.00  0.00    +0.115 C 
ATOM      5  C   UNL     1       5.732  -8.024  -0.385  0.00  0.00    -0.004 C 
ATOM      6  C   UNL     1       6.376  -8.075  -1.767  0.00  0.00    -0.010 C 
ATOM      7  C   UNL     1       7.007  -9.454  -1.981  0.00  0.00    -0.082 C 
ATOM      8  N   UNL     1       5.975 -10.491  -1.862  0.00  0.00    +0.379 N 
ATOM      9  C   UNL     1       5.425 -10.496  -0.501  0.00  0.00    -0.082 C 
ATOM     10  C   UNL     1       4.727  -9.162  -0.225  0.00  0.00    -0.010 C 
ATOM     11  C   UNL     1       6.405  -7.371   3.110  0.00  0.00    +0.247 C 
ATOM     12  O   UNL     1       6.016  -6.497   3.860  0.00  0.00    -0.270 OA
ATOM     13  H   UNL     1       5.235 -10.303  -2.522  0.00  0.00    -0.086 HD
ATOM     14  H   UNL     1       6.381 -11.392  -2.063  0.00  0.00    -0.086 HD
ENDROOT
BRANCH  11  15
ATOM     15  C   UNL     1       6.955  -8.626   3.660  0.00  0.00    +0.037 A 
ATOM     16  C   UNL     1       7.916  -9.343   2.944  0.00  0.00    +0.016 A 
ATOM     17  C   UNL     1       8.427 -10.513   3.461  0.00  0.00    +0.047 A 
ATOM     18  C   UNL     1       7.987 -10.980   4.694  0.00  0.00    +0.130 A 
ATOM     19  C   UNL     1       7.031 -10.270   5.409  0.00  0.00    +0.047 A 
ATOM     20  C   UNL     1       6.519  -9.096   4.902  0.00  0.00    +0.016 A 
BRANCH  18  21
ATOM     21  O   UNL     1       8.492 -12.134   5.199  0.00  0.00    -0.406 OA
BRANCH  21  22
ATOM     22  C   UNL     1       7.996 -12.557   6.471  0.00  0.00    +0.575 C 
ATOM     23  F   UNL     1       6.613 -12.755   6.389  0.00  0.00    -0.133 F 
ATOM     24  F   UNL     1       8.618 -13.754   6.840  0.00  0.00    -0.133 F 
ATOM     25  F   UNL     1       8.270 -11.575   7.429  0.00  0.00    -0.133 F 
ENDBRANCH  21  22
ENDBRANCH  18  21
ENDBRANCH  11  15
BRANCH   1  27
ATOM     26  N   UNL     1       2.684  -6.964  -0.863  0.00  0.00    -0.312 N 
ATOM     27  C   UNL     1       3.579  -6.868   0.141  0.00  0.00    +0.218 C 
ATOM     28  O   UNL     1       3.208  -6.942   1.293  0.00  0.00    -0.275 OA
ATOM     29  H   UNL     1       2.980  -6.904  -1.784  0.00  0.00    +0.149 HD
BRANCH  26  30
ATOM     30  C   UNL     1       1.263  -7.158  -0.561  0.00  0.00    +0.148 C 
BRANCH  30  31
ATOM     31  C   UNL     1       0.470  -7.233  -1.868  0.00  0.00    +0.187 C 
ATOM     32  C   UNL     1      -1.025  -7.311  -1.553  0.00  0.00    +0.053 C 
BRANCH  31  33
ATOM     33  O   UNL     1       0.864  -8.397  -2.597  0.00  0.00    -0.488 OA
BRANCH  33  38
ATOM     34  C   UNL     1       0.424  -8.167  -8.208  0.00  0.00    +0.044 C 
ATOM     35  C   UNL     1       0.542  -8.229  -6.707  0.00  0.00    -0.050 A 
ATOM     36  C   UNL     1       0.076  -7.180  -5.934  0.00  0.00    +0.007 A 
ATOM     37  C   UNL     1       0.183  -7.234  -4.558  0.00  0.00    +0.046 A 
ATOM     38  C   UNL     1       0.758  -8.342  -3.951  0.00  0.00    +0.121 A 
ATOM     39  C   UNL     1       1.223  -9.392  -4.728  0.00  0.00    +0.046 A 
ATOM     40  C   UNL     1       1.109  -9.336  -6.104  0.00  0.00    +0.007 A 
ENDBRANCH  33  38
ENDBRANCH  31  33
ENDBRANCH  30  31
ENDBRANCH  26  30
ENDBRANCH   1  27
TORSDOF 8
