REMARK  Name = ZINC20257609
REMARK  5 active torsions:
REMARK  status: ('A' for Active; 'I' for Inactive)
REMARK    1  A    between atoms: C_1  and  C_2
REMARK    2  A    between atoms: N_8  and  S_9
REMARK    3  A    between atoms: S_9  and  N_12
REMARK    4  A    between atoms: N_12  and  C_13
REMARK    5  A    between atoms: C_17  and  N_19
REMARK                            x       y       z     vdW  Elec       q    Type
REMARK                         _______ _______ _______ _____ _____    ______ ____
ROOT
ATOM      1  S   UNL     1       3.611  -0.550   1.901  0.00  0.00    +0.047 S 
ATOM      2  O   UNL     1       3.473  -1.849   2.460  0.00  0.00    -0.169 OA
ATOM      3  O   UNL     1       4.396  -0.297   0.744  0.00  0.00    -0.169 OA
ENDROOT
BRANCH   1  10
ATOM      4  C   UNL     1       3.218   1.798   0.368  0.00  0.00    -0.010 C 
ATOM      5  C   UNL     1       1.871   1.245   0.837  0.00  0.00    -0.039 C 
ATOM      6  C   UNL     1       0.976   0.976  -0.377  0.00  0.00    -0.012 C 
ATOM      7  C   UNL     1      -0.314   0.296   0.086  0.00  0.00    -0.003 C 
ATOM      8  C   UNL     1       0.022  -1.044   0.745  0.00  0.00    -0.015 C 
ATOM      9  C   UNL     1       0.906  -0.799   1.971  0.00  0.00    -0.043 C 
ATOM     10  N   UNL     1       2.080  -0.017   1.559  0.00  0.00    +0.444 N 
ATOM     11  H   UNL     1       1.064   0.338   1.335  0.00  0.00    -0.043 HD
ENDBRANCH   1  10
BRANCH   1  12
ATOM     12  N   UNL     1       4.210   0.421   3.101  0.00  0.00    -0.116 NA
BRANCH  12  13
ATOM     13  C   UNL     1       3.642   0.386   4.378  0.00  0.00    +0.074 A 
ATOM     14  C   UNL     1       2.260   0.416   4.524  0.00  0.00    +0.029 A 
ATOM     15  C   UNL     1       1.697   0.375   5.785  0.00  0.00    +0.042 A 
ATOM     16  C   UNL     1       2.505   0.318   6.906  0.00  0.00    +0.144 A 
ATOM     17  C   UNL     1       3.889   0.293   6.765  0.00  0.00    +0.062 A 
ATOM     18  C   UNL     1       4.457   0.328   5.499  0.00  0.00    +0.052 A 
ATOM     19  F   UNL     1       1.951   0.284   8.137  0.00  0.00    -0.204 F 
BRANCH  17  20
ATOM     20  N   UNL     1       4.707   0.234   7.897  0.00  0.00    -0.356 N 
ATOM     21  H   UNL     1       5.801   0.215   7.785  0.00  0.00    +0.142 HD
ATOM     22  H   UNL     1       4.256   0.206   8.901  0.00  0.00    +0.142 HD
ENDBRANCH  17  20
ENDBRANCH  12  13
ENDBRANCH   1  12
TORSDOF 4
