REMARK  Name = ZINC09883280
REMARK  9 active torsions:
REMARK  status: ('A' for Active; 'I' for Inactive)
REMARK    1  A    between atoms: C_1  and  C_2
REMARK    2  A    between atoms: N_4  and  C_5
REMARK    3  A    between atoms: C_8  and  S_11
REMARK    4  A    between atoms: S_11  and  N_14
REMARK    5  A    between atoms: N_14  and  C_15
REMARK    6  A    between atoms: C_15  and  C_16
REMARK    7  A    between atoms: N_18  and  C_19
REMARK    8  A    between atoms: C_19  and  C_20
REMARK    9  A    between atoms: C_20  and  N_63
REMARK                            x       y       z     vdW  Elec       q    Type
REMARK                         _______ _______ _______ _____ _____    ______ ____
ROOT
ATOM      1  C   UNL     1       0.256   9.280   3.219  0.00  0.00    +0.229 C 
ATOM      2  O   UNL     1      -0.635  10.091   3.357  0.00  0.00    -0.274 OA
ATOM      3  N   UNL     1       1.250   9.210   4.126  0.00  0.00    -0.315 N 
ATOM      4  H   UNL     1       1.963   8.561   4.015  0.00  0.00    +0.149 HD
ENDROOT
BRANCH   1   5
ATOM      5  C   UNL     1       0.251   8.351   2.032  0.00  0.00    +0.201 C 
BRANCH   5   6
ATOM      6  N   UNL     1      -0.924   8.625   1.202  0.00  0.00    -0.181 NA
ATOM      7  H   UNL     1      -1.655   9.155   1.557  0.00  0.00    +0.149 HD
BRANCH   6   8
ATOM      8  S   UNL     1      -1.005   8.030  -0.341  0.00  0.00    +0.059 S 
ATOM      9  O   UNL     1       0.227   8.358  -0.968  0.00  0.00    -0.153 OA
ATOM     10  O   UNL     1      -2.260   8.438  -0.869  0.00  0.00    -0.153 OA
BRANCH   8  14
ATOM     11  C   UNL     1      -1.138   3.514  -0.032  0.00  0.00    +0.033 A 
ATOM     12  C   UNL     1       0.083   4.170  -0.121  0.00  0.00    +0.025 A 
ATOM     13  C   UNL     1       0.120   5.547  -0.222  0.00  0.00    +0.030 A 
ATOM     14  C   UNL     1      -1.057   6.273  -0.221  0.00  0.00    +0.105 A 
ATOM     15  C   UNL     1      -2.274   5.624  -0.126  0.00  0.00    +0.030 A 
ATOM     16  C   UNL     1      -2.318   4.247  -0.032  0.00  0.00    +0.025 A 
BRANCH  11  20
ATOM     17  C   UNL     1      -2.174  -0.074  -0.501  0.00  0.00    +0.109 C 
ATOM     18  C   UNL     1      -2.180   1.433  -0.523  0.00  0.00    +0.214 C 
ATOM     19  O   UNL     1      -3.088   2.028  -1.063  0.00  0.00    -0.276 OA
ATOM     20  N   UNL     1      -1.179   2.119   0.063  0.00  0.00    -0.286 N 
ATOM     21  H   UNL     1      -0.487   1.645   0.551  0.00  0.00    +0.155 HD
ENDBRANCH  11  20
ENDBRANCH   8  14
ENDBRANCH   6   8
ENDBRANCH   5   6
ENDBRANCH   1   5
BRANCH   3  22
ATOM     22  C   UNL     1       1.255  10.113   5.279  0.00  0.00    +0.092 C 
BRANCH  22  23
ATOM     23  C   UNL     1       2.545   9.913   6.078  0.00  0.00    -0.049 C 
ATOM     24  C   UNL     1       2.543  10.845   7.291  0.00  0.00    -0.010 C 
ATOM     25  C   UNL     1       2.455  12.298   6.819  0.00  0.00    -0.001 C 
ATOM     26  C   UNL     1       3.659  12.619   5.931  0.00  0.00    -0.000 C 
ATOM     27  C   UNL     1       3.661  11.687   4.718  0.00  0.00    -0.001 C 
ATOM     28  C   UNL     1       3.749  10.235   5.190  0.00  0.00    -0.010 C 
BRANCH  23  34
ATOM     29  C   UNL     1       1.398   8.115   7.225  0.00  0.00    -0.049 C 
ATOM     30  C   UNL     1       1.505   6.641   7.627  0.00  0.00    +0.141 C 
ATOM     31  O   UNL     1       2.668   6.457   8.438  0.00  0.00    -0.383 OA
ATOM     32  C   UNL     1       3.886   6.840   7.793  0.00  0.00    +0.141 C 
ATOM     33  C   UNL     1       3.803   8.315   7.392  0.00  0.00    -0.049 C 
ATOM     34  N   UNL     1       2.632   8.502   6.510  0.00  0.00    +0.387 N 
ATOM     35  H   UNL     1       2.739   7.905   5.682  0.00  0.00    -0.081 HD
ENDBRANCH  23  34
ENDBRANCH  22  23
ENDBRANCH   3  22
TORSDOF 8
