REMARK  Name = ZINC63194994
REMARK  10 active torsions:
REMARK  status: ('A' for Active; 'I' for Inactive)
REMARK    1  A    between atoms: C_1  and  C_2
REMARK    2  A    between atoms: C_4  and  C_9
REMARK    3  A    between atoms: C_5  and  C_8
REMARK    4  A    between atoms: C_9  and  O_10
REMARK    5  A    between atoms: O_10  and  C_11
REMARK    6  A    between atoms: C_14  and  C_17
REMARK    7  A    between atoms: C_17  and  C_18
REMARK    8  A    between atoms: N_20  and  N_21
REMARK    9  A    between atoms: C_22  and  C_24
REMARK   10  A    between atoms: C_24  and  C_25
REMARK                            x       y       z     vdW  Elec       q    Type
REMARK                         _______ _______ _______ _____ _____    ______ ____
ROOT
ATOM      1  C   UNL     1      -8.545  -1.734  -4.386  0.00  0.00    +0.233 C 
ATOM      2  O   UNL     1      -7.616  -2.508  -4.483  0.00  0.00    -0.274 OA
ATOM      3  N   UNL     1      -9.593  -1.830  -5.228  0.00  0.00    -0.234 N 
ATOM      4  H   UNL     1     -10.336  -1.212  -5.151  0.00  0.00    +0.173 HD
ENDROOT
BRANCH   3   5
ATOM      5  N   UNL     1      -9.609  -2.824  -6.216  0.00  0.00    -0.234 N 
ATOM      6  C   UNL     1     -10.656  -2.920  -7.058  0.00  0.00    +0.233 C 
ATOM      7  O   UNL     1     -11.585  -2.146  -6.961  0.00  0.00    -0.274 OA
ATOM      8  H   UNL     1      -8.866  -3.443  -6.293  0.00  0.00    +0.173 HD
BRANCH   6   9
ATOM      9  C   UNL     1     -10.674  -3.989  -8.120  0.00  0.00    +0.130 C 
BRANCH   9  10
ATOM     10  C   UNL     1     -11.945  -3.880  -8.922  0.00  0.00    -0.033 C 
ATOM     11  C   UNL     1     -12.114  -3.227 -10.094  0.00  0.00    -0.001 A 
ATOM     12  C   UNL     1     -11.201  -2.451 -10.941  0.00  0.00    +0.010 A 
ATOM     13  C   UNL     1     -11.672  -1.903 -12.084  0.00  0.00    +0.001 A 
ATOM     14  C   UNL     1     -13.008  -2.056 -12.479  0.00  0.00    +0.002 A 
ATOM     15  C   UNL     1     -13.907  -2.755 -11.754  0.00  0.00    +0.026 A 
ATOM     16  C   UNL     1     -13.520  -3.375 -10.534  0.00  0.00    +0.043 A 
ATOM     17  N   UNL     1     -14.194  -4.091  -9.667  0.00  0.00    -0.380 N 
ATOM     18  C   UNL     1     -13.289  -4.485  -8.581  0.00  0.00    +0.145 C 
ATOM     19  H   UNL     1     -15.133  -4.326  -9.735  0.00  0.00    +0.160 HD
ENDBRANCH   9  10
ENDBRANCH   6   9
ENDBRANCH   3   5
BRANCH   1  20
ATOM     20  C   UNL     1      -8.528  -0.665  -3.324  0.00  0.00    +0.132 C 
BRANCH  20  24
ATOM     21  C   UNL     1      -4.922  -0.973  -1.051  0.00  0.00    +0.121 A 
ATOM     22  C   UNL     1      -4.963  -0.173  -2.184  0.00  0.00    +0.046 A 
ATOM     23  C   UNL     1      -6.130  -0.076  -2.917  0.00  0.00    +0.007 A 
ATOM     24  C   UNL     1      -7.256  -0.774  -2.522  0.00  0.00    -0.038 A 
ATOM     25  C   UNL     1      -7.218  -1.572  -1.393  0.00  0.00    +0.007 A 
ATOM     26  C   UNL     1      -6.051  -1.677  -0.660  0.00  0.00    +0.046 A 
BRANCH  21  27
ATOM     27  O   UNL     1      -3.775  -1.071  -0.328  0.00  0.00    -0.488 OA
BRANCH  27  28
ATOM     28  C   UNL     1      -2.651  -0.318  -0.789  0.00  0.00    +0.264 C 
BRANCH  28  31
ATOM     29  C   UNL     1      -0.391  -2.627  -0.725  0.00  0.00    +0.045 C 
ATOM     30  C   UNL     1      -0.902  -1.892   0.516  0.00  0.00    +0.176 C 
ATOM     31  C   UNL     1      -1.480  -0.550   0.130  0.00  0.00    +0.019 C 
ATOM     32  C   UNL     1      -0.777   0.380   0.741  0.00  0.00    +0.041 C 
ATOM     33  N   UNL     1       0.228  -0.179   1.510  0.00  0.00    -0.269 N 
ATOM     34  O   UNL     1       0.188  -1.593   1.402  0.00  0.00    -0.267 OA
ATOM     35  C   UNL     1      -1.033   1.860   0.619  0.00  0.00    +0.065 C 
ATOM     36  H   UNL     1       0.864   0.321   2.045  0.00  0.00    +0.194 HD
ENDBRANCH  28  31
ENDBRANCH  27  28
ENDBRANCH  21  27
ENDBRANCH  20  24
ENDBRANCH   1  20
TORSDOF 8
