REMARK  Name = ZINC15728497
REMARK  4 active torsions:
REMARK  status: ('A' for Active; 'I' for Inactive)
REMARK    1  A    between atoms: C_6  and  S_7
REMARK    2  A    between atoms: S_7  and  N_10
REMARK    3  A    between atoms: C_14  and  C_17
REMARK    4  A    between atoms: N_19  and  C_20
REMARK                            x       y       z     vdW  Elec       q    Type
REMARK                         _______ _______ _______ _____ _____    ______ ____
ROOT
ATOM      1  N   UNL     1      -7.682  -2.918   0.900  0.00  0.00    -0.176 NA
ATOM      2  C   UNL     1      -8.817  -2.079   0.490  0.00  0.00    +0.109 C 
ATOM      3  C   UNL     1      -8.586  -0.653   1.001  0.00  0.00    +0.018 C 
ATOM      4  C   UNL     1      -7.226  -0.153   0.511  0.00  0.00    +0.015 C 
ATOM      5  C   UNL     1      -6.119  -1.051   1.069  0.00  0.00    +0.091 C 
ATOM      6  C   UNL     1      -6.321  -2.481   0.559  0.00  0.00    +0.122 C 
ENDROOT
BRANCH   5   7
ATOM      7  C   UNL     1      -4.777  -0.539   0.613  0.00  0.00    +0.218 C 
ATOM      8  O   UNL     1      -4.053  -1.247  -0.055  0.00  0.00    -0.275 OA
ATOM      9  N   UNL     1      -4.382   0.705   0.947  0.00  0.00    -0.312 N 
ATOM     10  H   UNL     1      -4.961   1.271   1.481  0.00  0.00    +0.149 HD
BRANCH   9  11
ATOM     11  C   UNL     1      -3.078   1.203   0.503  0.00  0.00    +0.073 C 
ATOM     12  C   UNL     1      -1.998   0.753   1.488  0.00  0.00    +0.022 C 
ATOM     13  C   UNL     1      -0.729   1.579   1.267  0.00  0.00    +0.002 C 
ATOM     14  C   UNL     1      -0.013   1.086   0.008  0.00  0.00    +0.000 C 
ATOM     15  C   UNL     1      -0.753   1.593  -1.231  0.00  0.00    +0.000 C 
ATOM     16  C   UNL     1      -1.125   3.064  -1.038  0.00  0.00    +0.000 C 
ATOM     17  C   UNL     1      -2.646   3.197  -0.940  0.00  0.00    +0.002 C 
ATOM     18  C   UNL     1      -3.109   2.732   0.442  0.00  0.00    +0.022 C 
ENDBRANCH   9  11
ENDBRANCH   5   7
BRANCH   1  19
ATOM     19  S   UNL     1      -7.933  -4.328   1.732  0.00  0.00    +0.061 S 
ATOM     20  O   UNL     1      -9.254  -4.750   1.425  0.00  0.00    -0.153 OA
ATOM     21  O   UNL     1      -6.796  -5.147   1.493  0.00  0.00    -0.153 OA
BRANCH  19  27
ATOM     22  C   UNL     1      -9.088  -3.583   4.095  0.00  0.00    +0.030 A 
ATOM     23  C   UNL     1      -9.057  -3.273   5.433  0.00  0.00    +0.025 A 
ATOM     24  C   UNL     1      -7.857  -3.298   6.164  0.00  0.00    +0.037 A 
ATOM     25  C   UNL     1      -6.693  -3.652   5.516  0.00  0.00    -0.024 A 
ATOM     26  C   UNL     1      -6.737  -3.969   4.158  0.00  0.00    +0.034 A 
ATOM     27  C   UNL     1      -7.916  -3.931   3.448  0.00  0.00    +0.106 A 
ATOM     28  C   UNL     1      -5.345  -3.741   6.155  0.00  0.00    +0.037 C 
ATOM     29  C   UNL     1      -5.326  -4.232   7.569  0.00  0.00    +0.014 C 
ATOM     30  C   UNL     1      -5.741  -3.185   8.574  0.00  0.00    +0.096 C 
ATOM     31  C   UNL     1      -7.204  -2.926   8.534  0.00  0.00    +0.217 C 
ATOM     32  O   UNL     1      -7.739  -2.686   9.596  0.00  0.00    -0.275 OA
ATOM     33  N   UNL     1      -7.976  -2.929   7.485  0.00  0.00    -0.285 N 
ATOM     34  H   UNL     1      -8.859  -2.583   7.685  0.00  0.00    +0.155 HD
ENDBRANCH  19  27
ENDBRANCH   1  19
TORSDOF 4
