REMARK  Name = ZINC39659173
REMARK  7 active torsions:
REMARK  status: ('A' for Active; 'I' for Inactive)
REMARK    1  A    between atoms: C_1  and  C_2
REMARK    2  A    between atoms: C_2  and  C_36
REMARK    3  A    between atoms: C_5  and  C_8
REMARK    4  A    between atoms: C_8  and  N_9
REMARK    5  A    between atoms: C_10  and  C_12
REMARK    6  A    between atoms: C_23  and  C_25
REMARK    7  A    between atoms: C_27  and  C_32
REMARK                            x       y       z     vdW  Elec       q    Type
REMARK                         _______ _______ _______ _____ _____    ______ ____
ROOT
ATOM      1  C   UNL     1       3.278  -2.821   4.701  0.00  0.00    +0.100 C 
ATOM      2  C   UNL     1       4.417  -1.806   4.450  0.00  0.00    +0.121 C 
ATOM      3  N   UNL     1       5.522  -2.260   5.327  0.00  0.00    -0.296 N 
ATOM      4  C   UNL     1       5.485  -3.739   5.231  0.00  0.00    +0.115 C 
ATOM      5  C   UNL     1       3.984  -4.088   5.212  0.00  0.00    -0.004 C 
ATOM      6  C   UNL     1       3.725  -5.255   4.264  0.00  0.00    -0.010 C 
ATOM      7  C   UNL     1       4.388  -6.518   4.824  0.00  0.00    -0.082 C 
ATOM      8  N   UNL     1       3.841  -6.811   6.154  0.00  0.00    +0.379 N 
ATOM      9  C   UNL     1       4.175  -5.725   7.083  0.00  0.00    -0.082 C 
ATOM     10  C   UNL     1       3.503  -4.429   6.619  0.00  0.00    -0.010 C 
ATOM     11  C   UNL     1       6.369  -1.500   6.049  0.00  0.00    +0.247 C 
ATOM     12  O   UNL     1       6.192  -0.300   6.127  0.00  0.00    -0.270 OA
ATOM     13  H   UNL     1       2.838  -6.902   6.091  0.00  0.00    -0.086 HD
ATOM     14  H   UNL     1       4.234  -7.676   6.494  0.00  0.00    -0.086 HD
ENDROOT
BRANCH  11  15
ATOM     15  C   UNL     1       7.513  -2.126   6.745  0.00  0.00    +0.040 A 
ATOM     16  C   UNL     1       8.124  -1.473   7.817  0.00  0.00    +0.025 A 
ATOM     17  C   UNL     1       9.191  -2.061   8.464  0.00  0.00    +0.058 A 
ATOM     18  C   UNL     1       9.657  -3.297   8.053  0.00  0.00    +0.050 A 
ATOM     19  C   UNL     1       9.056  -3.952   6.990  0.00  0.00    +0.125 A 
ATOM     20  C   UNL     1       7.983  -3.375   6.338  0.00  0.00    +0.051 A 
ATOM     21  F   UNL     1       9.517  -5.159   6.594  0.00  0.00    -0.205 F 
BRANCH  17  22
ATOM     22  C   UNL     1       9.851  -1.355   9.620  0.00  0.00    +0.418 C 
ATOM     23  F   UNL     1       9.222  -1.728  10.814  0.00  0.00    -0.166 F 
ATOM     24  F   UNL     1      11.202  -1.712   9.674  0.00  0.00    -0.166 F 
ATOM     25  F   UNL     1       9.739   0.028   9.447  0.00  0.00    -0.166 F 
ENDBRANCH  17  22
ENDBRANCH  11  15
BRANCH   1  27
ATOM     26  N   UNL     1       1.235  -3.437   3.450  0.00  0.00    -0.312 N 
ATOM     27  C   UNL     1       2.542  -3.111   3.418  0.00  0.00    +0.218 C 
ATOM     28  O   UNL     1       3.127  -3.051   2.357  0.00  0.00    -0.275 OA
ATOM     29  H   UNL     1       0.768  -3.485   4.299  0.00  0.00    +0.149 HD
BRANCH  26  30
ATOM     30  C   UNL     1       0.520  -3.719   2.203  0.00  0.00    +0.138 C 
BRANCH  30  35
ATOM     31  C   UNL     1      -4.030  -2.951   3.440  0.00  0.00    +0.074 C 
ATOM     32  C   UNL     1      -2.961  -2.944   2.346  0.00  0.00    +0.165 C 
ATOM     33  O   UNL     1      -3.059  -4.148   1.567  0.00  0.00    -0.347 OA
ATOM     34  C   UNL     1      -1.691  -4.485   1.232  0.00  0.00    +0.196 C 
ATOM     35  C   UNL     1      -0.939  -4.060   2.518  0.00  0.00    +0.164 C 
ATOM     36  O   UNL     1      -1.659  -2.886   2.944  0.00  0.00    -0.342 OA
ATOM     37  C   UNL     1      -3.163  -1.730   1.437  0.00  0.00    +0.074 C 
ENDBRANCH  30  35
ENDBRANCH  26  30
ENDBRANCH   1  27
TORSDOF 5
