REMARK  Name = ZINC10337055
REMARK  3 active torsions:
REMARK  status: ('A' for Active; 'I' for Inactive)
REMARK    1  A    between atoms: C_1  and  C_2
REMARK    2  A    between atoms: C_7  and  C_8
REMARK    3  A    between atoms: C_26  and  C_28
REMARK                            x       y       z     vdW  Elec       q    Type
REMARK                         _______ _______ _______ _____ _____    ______ ____
ROOT
ATOM      1  C   UNL     1       0.559  -0.047   3.056  0.00  0.00    +0.234 C 
ATOM      2  C   UNL     1       1.908   0.593   2.904  0.00  0.00    +0.027 C 
ATOM      3  C   UNL     1       3.004   0.021   3.442  0.00  0.00    +0.083 C 
ATOM      4  C   UNL     1       2.817  -1.248   4.191  0.00  0.00    +0.044 A 
ATOM      5  C   UNL     1       3.889  -2.075   4.497  0.00  0.00    +0.033 A 
ATOM      6  C   UNL     1       3.668  -3.249   5.194  0.00  0.00    +0.042 A 
ATOM      7  C   UNL     1       2.386  -3.596   5.585  0.00  0.00    +0.023 A 
ATOM      8  C   UNL     1       1.314  -2.777   5.284  0.00  0.00    +0.048 A 
ATOM      9  C   UNL     1       1.520  -1.599   4.587  0.00  0.00    +0.131 A 
ATOM     10  O   UNL     1       0.491  -0.774   4.284  0.00  0.00    -0.479 OA
ATOM     11 CL   UNL     1       5.003  -4.289   5.582  0.00  0.00    -0.084 Cl
ATOM     12  N   UNL     1       4.234   0.579   3.310  0.00  0.00    -0.213 NA
ATOM     13  C   UNL     1       4.468   1.697   2.674  0.00  0.00    +0.232 C 
ATOM     14  N   UNL     1       5.601   2.412   2.435  0.00  0.00    -0.231 N 
ATOM     15  N   UNL     1       5.316   3.464   1.754  0.00  0.00    -0.086 NA
ATOM     16  N   UNL     1       4.053   3.532   1.500  0.00  0.00    -0.165 N 
ATOM     17  N   UNL     1       3.450   2.411   2.071  0.00  0.00    -0.193 N 
ATOM     18  C   UNL     1       2.080   1.893   2.148  0.00  0.00    +0.162 C 
ATOM     19  H   UNL     1       3.605   4.234   1.003  0.00  0.00    +0.195 HD
ATOM     20  H   UNL     1       6.490   2.165   2.733  0.00  0.00    +0.193 HD
ENDROOT
BRANCH   1  27
ATOM     21  C   UNL     1      -0.606   0.935   0.601  0.00  0.00    +0.044 C 
ATOM     22  C   UNL     1      -0.235  -0.520   0.730  0.00  0.00    -0.043 A 
ATOM     23  C   UNL     1      -0.447  -1.383  -0.328  0.00  0.00    +0.004 A 
ATOM     24  C   UNL     1      -0.107  -2.718  -0.210  0.00  0.00    +0.000 A 
ATOM     25  C   UNL     1       0.446  -3.189   0.966  0.00  0.00    +0.000 A 
ATOM     26  C   UNL     1       0.658  -2.325   2.024  0.00  0.00    +0.008 A 
ATOM     27  C   UNL     1       0.322  -0.989   1.904  0.00  0.00    -0.000 A 
ENDBRANCH   1  27
BRANCH  18  28
ATOM     28  C   UNL     1       1.218   2.938   2.806  0.00  0.00    -0.003 A 
ATOM     29  C   UNL     1       0.077   3.407   2.173  0.00  0.00    +0.009 A 
ATOM     30  C   UNL     1      -0.686   4.369   2.816  0.00  0.00    +0.020 A 
ATOM     31  C   UNL     1      -0.287   4.826   4.059  0.00  0.00    +0.111 A 
ATOM     32  N   UNL     1       0.804   4.357   4.631  0.00  0.00    -0.263 NA
ATOM     33  C   UNL     1       1.551   3.438   4.051  0.00  0.00    +0.116 A 
ENDBRANCH  18  28
TORSDOF 2
