REMARK  Name = ZINC39623922
REMARK  8 active torsions:
REMARK  status: ('A' for Active; 'I' for Inactive)
REMARK    1  A    between atoms: C_1  and  C_2
REMARK    2  A    between atoms: C_2  and  C_3
REMARK    3  A    between atoms: C_3  and  C_4
REMARK    4  A    between atoms: C_4  and  N_5
REMARK    5  A    between atoms: C_6  and  C_8
REMARK    6  A    between atoms: C_19  and  C_21
REMARK    7  A    between atoms: C_22  and  C_34
REMARK    8  A    between atoms: C_25  and  C_26
REMARK                            x       y       z     vdW  Elec       q    Type
REMARK                         _______ _______ _______ _____ _____    ______ ____
ROOT
ATOM      1  C   UNL     1       2.365  -2.680   3.303  0.00  0.00    +0.100 C 
ATOM      2  C   UNL     1       3.903  -2.803   3.387  0.00  0.00    +0.121 C 
ATOM      3  N   UNL     1       4.143  -4.185   3.864  0.00  0.00    -0.296 N 
ATOM      4  C   UNL     1       3.130  -5.002   3.153  0.00  0.00    +0.115 C 
ATOM      5  C   UNL     1       1.861  -4.125   3.148  0.00  0.00    -0.004 C 
ATOM      6  C   UNL     1       1.114  -4.286   1.828  0.00  0.00    -0.010 C 
ATOM      7  C   UNL     1       0.573  -5.715   1.724  0.00  0.00    -0.082 C 
ATOM      8  N   UNL     1      -0.325  -5.984   2.853  0.00  0.00    +0.379 N 
ATOM      9  C   UNL     1       0.423  -5.918   4.115  0.00  0.00    -0.082 C 
ATOM     10  C   UNL     1       0.958  -4.498   4.320  0.00  0.00    -0.010 C 
ATOM     11  C   UNL     1       5.072  -4.605   4.745  0.00  0.00    +0.252 C 
ATOM     12  O   UNL     1       5.144  -5.784   5.037  0.00  0.00    -0.270 OA
ATOM     13  H   UNL     1      -1.063  -5.295   2.865  0.00  0.00    -0.086 HD
ATOM     14  H   UNL     1      -0.728  -6.903   2.750  0.00  0.00    -0.086 HD
ENDROOT
BRANCH  11  15
ATOM     15  C   UNL     1       5.999  -3.638   5.355  0.00  0.00    +0.106 A 
ATOM     16  C   UNL     1       5.863  -3.035   6.571  0.00  0.00    +0.147 A 
ATOM     17  O   UNL     1       6.911  -2.228   6.758  0.00  0.00    -0.359 OA
ATOM     18  N   UNL     1       7.766  -2.297   5.635  0.00  0.00    -0.077 NA
ATOM     19  C   UNL     1       7.255  -3.139   4.772  0.00  0.00    +0.128 A 
ATOM     20  C   UNL     1       4.726  -3.243   7.537  0.00  0.00    +0.090 C 
BRANCH  19  21
ATOM     21  C   UNL     1       7.829  -3.515   3.458  0.00  0.00    +0.041 A 
ATOM     22  C   UNL     1       8.059  -2.539   2.489  0.00  0.00    +0.052 A 
ATOM     23  C   UNL     1       8.594  -2.896   1.267  0.00  0.00    +0.021 A 
ATOM     24  C   UNL     1       8.902  -4.218   1.003  0.00  0.00    +0.003 A 
ATOM     25  C   UNL     1       8.675  -5.191   1.959  0.00  0.00    +0.021 A 
ATOM     26  C   UNL     1       8.146  -4.846   3.188  0.00  0.00    +0.052 A 
ATOM     27 CL   UNL     1       7.871  -6.068   4.390  0.00  0.00    -0.083 Cl
ATOM     28 CL   UNL     1       7.673  -0.879   2.818  0.00  0.00    -0.083 Cl
ENDBRANCH  19  21
ENDBRANCH  11  15
BRANCH   1  30
ATOM     29  N   UNL     1       0.822  -1.148   2.124  0.00  0.00    -0.315 N 
ATOM     30  C   UNL     1       1.969  -1.856   2.105  0.00  0.00    +0.218 C 
ATOM     31  O   UNL     1       2.682  -1.830   1.124  0.00  0.00    -0.275 OA
ATOM     32  H   UNL     1       0.252  -1.168   2.908  0.00  0.00    +0.149 HD
BRANCH  29  33
ATOM     33  C   UNL     1       0.437  -0.346   0.959  0.00  0.00    +0.104 C 
BRANCH  33  34
ATOM     34  C   UNL     1      -0.895   0.353   1.239  0.00  0.00    +0.018 C 
BRANCH  34  36
ATOM     35  C   UNL     1      -2.629   1.888   0.302  0.00  0.00    +0.004 C 
ATOM     36  C   UNL     1      -1.297   1.190   0.023  0.00  0.00    -0.002 C 
ENDBRANCH  34  36
ENDBRANCH  33  34
ENDBRANCH  29  33
ENDBRANCH   1  30
TORSDOF 6
