REMARK  Name = ZINC21176139
REMARK  13 active torsions:
REMARK  status: ('A' for Active; 'I' for Inactive)
REMARK    1  A    between atoms: C_1  and  C_2
REMARK    2  A    between atoms: C_2  and  C_3
REMARK    3  A    between atoms: C_2  and  C_4
REMARK    4  A    between atoms: C_2  and  C_5
REMARK    5  A    between atoms: C_8  and  C_11
REMARK    6  A    between atoms: C_14  and  S_17
REMARK    7  A    between atoms: N_15  and  N_16
REMARK    8  A    between atoms: S_17  and  C_18
REMARK    9  A    between atoms: C_18  and  C_19
REMARK   10  A    between atoms: N_21  and  C_22
REMARK   11  A    between atoms: C_27  and  S_28
REMARK   12  A    between atoms: S_28  and  C_29
REMARK   13  A    between atoms: C_29  and  C_30
REMARK                            x       y       z     vdW  Elec       q    Type
REMARK                         _______ _______ _______ _____ _____    ______ ____
ROOT
ATOM      1  C   UNL     1       3.657   3.141  -0.075  0.00  0.00    +0.182 A 
ATOM      2  N   UNL     1       3.762   1.841   0.071  0.00  0.00    -0.127 NA
ATOM      3  N   UNL     1       2.597   1.299   0.026  0.00  0.00    -0.121 NA
ATOM      4  C   UNL     1       1.678   2.220  -0.161  0.00  0.00    +0.209 A 
ATOM      5  N   UNL     1       2.319   3.424  -0.228  0.00  0.00    -0.224 N 
ENDROOT
BRANCH   1   9
ATOM      6  C   UNL     1       6.846   5.947  -0.076  0.00  0.00    -0.042 A 
ATOM      7  C   UNL     1       5.546   6.381   0.116  0.00  0.00    +0.005 A 
ATOM      8  C   UNL     1       4.506   5.475   0.117  0.00  0.00    +0.012 A 
ATOM      9  C   UNL     1       4.767   4.117  -0.076  0.00  0.00    +0.021 A 
ATOM     10  C   UNL     1       6.081   3.685  -0.263  0.00  0.00    +0.012 A 
ATOM     11  C   UNL     1       7.111   4.602  -0.267  0.00  0.00    +0.005 A 
BRANCH   6  13
ATOM     12  C   UNL     1       8.022   7.664   1.272  0.00  0.00    +0.015 C 
ATOM     13  C   UNL     1       7.977   6.942  -0.077  0.00  0.00    -0.013 C 
ATOM     14  C   UNL     1       9.301   6.210  -0.307  0.00  0.00    +0.015 C 
ATOM     15  C   UNL     1       7.758   7.963  -1.195  0.00  0.00    +0.015 C 
ENDBRANCH   6  13
ENDBRANCH   1   9
BRANCH   5  16
ATOM     16  N   UNL     1       1.751   4.652  -0.410  0.00  0.00    -0.295 N 
ATOM     17  H   UNL     1       0.660   4.743  -0.520  0.00  0.00    +0.163 HD
ATOM     18  H   UNL     1       2.384   5.551  -0.447  0.00  0.00    +0.163 HD
ENDBRANCH   5  16
BRANCH   4  19
ATOM     19  S   UNL     1      -0.059   1.952  -0.292  0.00  0.00    -0.075 S 
BRANCH  19  20
ATOM     20  C   UNL     1      -0.113   0.152  -0.107  0.00  0.00    +0.173 C 
BRANCH  20  21
ATOM     21  C   UNL     1      -1.543  -0.318  -0.189  0.00  0.00    +0.228 C 
ATOM     22  O   UNL     1      -2.437   0.485  -0.355  0.00  0.00    -0.275 OA
ATOM     23  N   UNL     1      -1.828  -1.631  -0.077  0.00  0.00    -0.284 N 
ATOM     24  H   UNL     1      -1.014  -2.367  -0.009  0.00  0.00    +0.155 HD
BRANCH  23  25
ATOM     25  C   UNL     1      -3.163  -2.058  -0.048  0.00  0.00    +0.047 A 
ATOM     26  C   UNL     1      -4.126  -1.380  -0.779  0.00  0.00    +0.024 A 
ATOM     27  C   UNL     1      -5.441  -1.806  -0.753  0.00  0.00    +0.002 A 
ATOM     28  C   UNL     1      -5.802  -2.901   0.010  0.00  0.00    +0.001 A 
ATOM     29  C   UNL     1      -4.850  -3.580   0.747  0.00  0.00    +0.016 A 
ATOM     30  C   UNL     1      -3.527  -3.163   0.722  0.00  0.00    +0.030 A 
BRANCH  30  31
ATOM     31  S   UNL     1      -2.310  -4.025   1.661  0.00  0.00    -0.108 S 
BRANCH  31  32
ATOM     32  C   UNL     1      -3.243  -5.352   2.474  0.00  0.00    +0.192 C 
BRANCH  32  33
ATOM     33  C   UNL     1      -2.330  -6.158   3.301  0.00  0.00    +0.074 C 
ATOM     34  N   UNL     1      -1.625  -6.780   3.939  0.00  0.00    -0.196 NA
ENDBRANCH  32  33
ENDBRANCH  31  32
ENDBRANCH  30  31
ENDBRANCH  23  25
ENDBRANCH  20  21
ENDBRANCH  19  20
ENDBRANCH   4  19
TORSDOF 10
