REMARK  Name = ZINC06822019
REMARK  15 active torsions:
REMARK  status: ('A' for Active; 'I' for Inactive)
REMARK    1  A    between atoms: C_1  and  C_2
REMARK    2  A    between atoms: C_2  and  C_3
REMARK    3  A    between atoms: C_6  and  N_9
REMARK    4  A    between atoms: N_9  and  C_10
REMARK    5  A    between atoms: C_10  and  C_12
REMARK    6  A    between atoms: C_10  and  C_19
REMARK    7  A    between atoms: C_15  and  O_18
REMARK    8  A    between atoms: N_21  and  C_22
REMARK    9  A    between atoms: C_22  and  C_23
REMARK   10  A    between atoms: C_23  and  O_25
REMARK   11  A    between atoms: O_25  and  C_26
REMARK   12  A    between atoms: C_26  and  C_27
REMARK   13  A    between atoms: C_28  and  C_30
REMARK   14  A    between atoms: C_31  and  N_38
REMARK   15  A    between atoms: C_32  and  C_35
REMARK                            x       y       z     vdW  Elec       q    Type
REMARK                         _______ _______ _______ _____ _____    ______ ____
ROOT
ATOM      1  N   UNL     1      -1.994   2.943   5.202  0.00  0.00    -0.251 N 
ATOM      2  C   UNL     1      -1.530   2.259   6.267  0.00  0.00    +0.262 C 
ATOM      3  O   UNL     1      -1.479   2.794   7.359  0.00  0.00    -0.269 OA
ENDROOT
BRANCH   1   7
ATOM      4  C   UNL     1      -2.439   1.029   1.530  0.00  0.00    -0.048 A 
ATOM      5  C   UNL     1      -1.408   1.931   1.717  0.00  0.00    +0.005 A 
ATOM      6  C   UNL     1      -1.261   2.572   2.932  0.00  0.00    +0.024 A 
ATOM      7  C   UNL     1      -2.143   2.300   3.969  0.00  0.00    +0.038 A 
ATOM      8  C   UNL     1      -3.174   1.389   3.780  0.00  0.00    +0.024 A 
ATOM      9  C   UNL     1      -3.319   0.756   2.561  0.00  0.00    +0.005 A 
BRANCH   4  11
ATOM     10  C   UNL     1      -3.513   1.168  -0.701  0.00  0.00    +0.009 C 
ATOM     11  C   UNL     1      -2.599   0.336   0.201  0.00  0.00    +0.032 C 
ENDBRANCH   4  11
ENDBRANCH   1   7
BRANCH   2  12
ATOM     12  C   UNL     1      -1.086   0.873   6.109  0.00  0.00    +0.116 A 
ATOM     13  C   UNL     1      -0.685  -0.044   7.083  0.00  0.00    +0.076 A 
ATOM     14  C   UNL     1      -0.334  -1.280   6.540  0.00  0.00    +0.155 A 
ATOM     15  N   UNL     1      -0.399  -1.453   5.238  0.00  0.00    -0.203 NA
ATOM     16  S   UNL     1      -0.906  -0.093   4.624  0.00  0.00    +0.019 S 
BRANCH  14  17
ATOM     17  C   UNL     1       0.111  -2.379   7.416  0.00  0.00    +0.262 C 
ATOM     18  O   UNL     1       0.169  -2.212   8.619  0.00  0.00    -0.269 OA
ATOM     19  N   UNL     1       0.454  -3.569   6.883  0.00  0.00    -0.324 N 
ATOM     20  H   UNL     1       0.407  -3.702   5.924  0.00  0.00    +0.145 HD
ATOM     21  H   UNL     1       0.747  -4.292   7.460  0.00  0.00    +0.145 HD
ENDBRANCH  14  17
BRANCH  13  22
ATOM     22  N   UNL     1      -0.643   0.242   8.441  0.00  0.00    -0.355 N 
ATOM     23  H   UNL     1      -0.902   1.120   8.760  0.00  0.00    +0.142 HD
ATOM     24  H   UNL     1      -0.356  -0.438   9.071  0.00  0.00    +0.142 HD
ENDBRANCH  13  22
ENDBRANCH   2  12
BRANCH   1  25
ATOM     25  C   UNL     1      -2.342   4.360   5.337  0.00  0.00    +0.197 C 
BRANCH  25  26
ATOM     26  C   UNL     1      -1.435   5.186   4.462  0.00  0.00    -0.018 A 
ATOM     27  C   UNL     1      -1.761   5.398   3.136  0.00  0.00    +0.009 A 
ATOM     28  C   UNL     1      -0.933   6.160   2.333  0.00  0.00    +0.046 A 
ATOM     29  C   UNL     1       0.232   6.701   2.857  0.00  0.00    +0.117 A 
ATOM     30  C   UNL     1       0.560   6.482   4.187  0.00  0.00    +0.046 A 
ATOM     31  C   UNL     1      -0.274   5.725   4.987  0.00  0.00    +0.009 A 
BRANCH  29  32
ATOM     32  O   UNL     1       1.051   7.445   2.068  0.00  0.00    -0.507 OA
ATOM     33  H   UNL     1       1.730   6.931   1.610  0.00  0.00    +0.292 HD
ENDBRANCH  29  32
ENDBRANCH  25  26
BRANCH  25  34
ATOM     34  C   UNL     1      -3.773   4.568   4.914  0.00  0.00    +0.239 C 
ATOM     35  O   UNL     1      -4.437   3.625   4.536  0.00  0.00    -0.273 OA
ATOM     36  N   UNL     1      -4.316   5.801   4.954  0.00  0.00    -0.303 N 
ATOM     37  H   UNL     1      -3.785   6.554   5.256  0.00  0.00    +0.149 HD
BRANCH  36  38
ATOM     38  C   UNL     1      -5.707   6.003   4.542  0.00  0.00    +0.225 C 
BRANCH  38  39
ATOM     39  C   UNL     1      -6.066   7.460   4.681  0.00  0.00    +0.324 C 
ATOM     40  O   UNL     1      -5.243   8.249   5.083  0.00  0.00    -0.249 OA
BRANCH  39  41
ATOM     41  O   UNL     1      -7.298   7.882   4.359  0.00  0.00    -0.464 OA
BRANCH  41  42
ATOM     42  C   UNL     1      -7.573   9.299   4.517  0.00  0.00    +0.229 C 
ATOM     43  C   UNL     1      -9.017   9.588   4.103  0.00  0.00    +0.048 C 
ENDBRANCH  41  42
ENDBRANCH  39  41
ENDBRANCH  38  39
ENDBRANCH  36  38
ENDBRANCH  25  34
ENDBRANCH   1  25
TORSDOF 13
