REMARK  Name = ZINC63072955
REMARK  7 active torsions:
REMARK  status: ('A' for Active; 'I' for Inactive)
REMARK    1  A    between atoms: C_7  and  C_10
REMARK    2  A    between atoms: C_10  and  C_11
REMARK    3  A    between atoms: C_11  and  C_13
REMARK    4  A    between atoms: C_11  and  N_25
REMARK    5  A    between atoms: N_15  and  C_16
REMARK    6  A    between atoms: C_19  and  C_22
REMARK    7  A    between atoms: C_26  and  C_28
REMARK                            x       y       z     vdW  Elec       q    Type
REMARK                         _______ _______ _______ _____ _____    ______ ____
ROOT
ATOM      1  C   UNL     1       0.458  -3.654  -1.468  0.00  0.00    +0.163 C 
ENDROOT
BRANCH   1   2
ATOM      2  C   UNL     1      -0.385  -4.903  -1.450  0.00  0.00    +0.238 C 
ATOM      3  O   UNL     1      -1.576  -4.834  -1.667  0.00  0.00    -0.273 OA
ATOM      4  N   UNL     1       0.185  -6.097  -1.193  0.00  0.00    -0.284 N 
ATOM      5  H   UNL     1       1.147  -6.162  -1.085  0.00  0.00    +0.155 HD
BRANCH   4   6
ATOM      6  C   UNL     1      -0.608  -7.239  -1.081  0.00  0.00    +0.033 A 
ATOM      7  C   UNL     1      -1.737  -7.381  -1.882  0.00  0.00    +0.024 A 
ATOM      8  C   UNL     1      -2.522  -8.507  -1.774  0.00  0.00    +0.015 A 
ATOM      9  C   UNL     1      -2.184  -9.507  -0.859  0.00  0.00    +0.037 A 
ATOM     10  C   UNL     1      -1.050  -9.361  -0.056  0.00  0.00    +0.015 A 
ATOM     11  C   UNL     1      -0.266  -8.235  -0.172  0.00  0.00    +0.024 A 
BRANCH   9  12
ATOM     12  C   UNL     1      -3.024 -10.715  -0.741  0.00  0.00    +0.242 C 
ATOM     13  O   UNL     1      -4.011 -10.841  -1.440  0.00  0.00    -0.270 OA
ATOM     14  N   UNL     1      -2.697 -11.679   0.142  0.00  0.00    -0.325 N 
ATOM     15  H   UNL     1      -1.909 -11.579   0.700  0.00  0.00    +0.145 HD
ATOM     16  H   UNL     1      -3.249 -12.473   0.220  0.00  0.00    +0.145 HD
ENDBRANCH   9  12
ENDBRANCH   4   6
ENDBRANCH   1   2
BRANCH   1  17
ATOM     17  N   UNL     1      -0.241  -2.604  -2.213  0.00  0.00    -0.299 N 
ATOM     18  C   UNL     1      -1.450  -2.175  -1.799  0.00  0.00    +0.251 C 
ATOM     19  O   UNL     1      -1.961  -2.660  -0.807  0.00  0.00    -0.270 OA
ATOM     20  H   UNL     1       0.166  -2.217  -3.004  0.00  0.00    +0.150 HD
BRANCH  18  21
ATOM     21  C   UNL     1      -2.149  -1.124  -2.544  0.00  0.00    +0.074 A 
ATOM     22  C   UNL     1      -3.382  -0.544  -2.288  0.00  0.00    +0.021 A 
ATOM     23  C   UNL     1      -3.780   0.428  -3.174  0.00  0.00    +0.008 A 
ATOM     24  C   UNL     1      -2.966   0.748  -4.211  0.00  0.00    +0.046 A 
ATOM     25  S   UNL     1      -1.633  -0.254  -4.012  0.00  0.00    -0.092 S 
ENDBRANCH  18  21
ENDBRANCH   1  17
BRANCH   1  26
ATOM     26  C   UNL     1       0.704  -3.184  -0.033  0.00  0.00    +0.065 C 
BRANCH  26  33
ATOM     27  C   UNL     1       0.004   1.351  -0.002  0.00  0.00    +0.001 A 
ATOM     28  C   UNL     1       1.187   2.102  -0.020  0.00  0.00    +0.002 A 
ATOM     29  C   UNL     1       2.412   1.534  -0.043  0.00  0.00    +0.026 A 
ATOM     30  C   UNL     1       2.547   0.118  -0.051  0.00  0.00    +0.043 A 
ATOM     31  N   UNL     1       3.604  -0.657  -0.073  0.00  0.00    -0.380 N 
ATOM     32  C   UNL     1       3.158  -2.055  -0.071  0.00  0.00    +0.144 C 
ATOM     33  C   UNL     1       1.647  -2.009  -0.044  0.00  0.00    -0.039 C 
ATOM     34  C   UNL     1       1.312  -0.698  -0.033  0.00  0.00    -0.001 A 
ATOM     35  C   UNL     1       0.020  -0.002  -0.007  0.00  0.00    +0.010 A 
ATOM     36  H   UNL     1       4.526  -0.357  -0.088  0.00  0.00    +0.160 HD
ENDBRANCH  26  33
ENDBRANCH   1  26
TORSDOF 7
