REMARK  Name = ZINC65962901
REMARK  6 active torsions:
REMARK  status: ('A' for Active; 'I' for Inactive)
REMARK    1  A    between atoms: C_5  and  C_6
REMARK    2  A    between atoms: C_6  and  N_7
REMARK    3  A    between atoms: C_8  and  C_10
REMARK    4  A    between atoms: C_10  and  N_11
REMARK    5  A    between atoms: C_14  and  N_17
REMARK    6  A    between atoms: C_18  and  C_20
REMARK                            x       y       z     vdW  Elec       q    Type
REMARK                         _______ _______ _______ _____ _____    ______ ____
ROOT
ATOM      1  N   UNL     1      -4.093  -3.375  -3.026  0.00  0.00    +0.385 N 
ATOM      2  C   UNL     1      -3.661  -4.651  -2.443  0.00  0.00    -0.076 C 
ATOM      3  C   UNL     1      -4.853  -5.607  -2.360  0.00  0.00    +0.003 C 
ATOM      4  C   UNL     1      -5.407  -5.848  -3.768  0.00  0.00    +0.069 C 
ATOM      5  C   UNL     1      -5.784  -4.502  -4.394  0.00  0.00    +0.003 C 
ATOM      6  C   UNL     1      -4.558  -3.587  -4.401  0.00  0.00    -0.076 C 
ATOM      7  H   UNL     1      -4.845  -2.992  -2.472  0.00  0.00    -0.081 HD
ENDROOT
BRANCH   4   8
ATOM      8  N   UNL     1      -6.594  -6.702  -3.688  0.00  0.00    -0.312 N 
ATOM      9  C   UNL     1      -6.957  -7.452  -4.747  0.00  0.00    +0.216 C 
ATOM     10  O   UNL     1      -6.300  -7.420  -5.766  0.00  0.00    -0.276 OA
ATOM     11  H   UNL     1      -7.120  -6.727  -2.873  0.00  0.00    +0.149 HD
BRANCH   9  12
ATOM     12  C   UNL     1      -8.179  -8.330  -4.665  0.00  0.00    +0.075 C 
ATOM     13  C   UNL     1      -8.002  -9.347  -3.535  0.00  0.00    +0.013 C 
ATOM     14  C   UNL     1      -9.242 -10.238  -3.452  0.00  0.00    +0.001 C 
ATOM     15  C   UNL     1      -9.429 -10.978  -4.778  0.00  0.00    +0.000 C 
ATOM     16  C   UNL     1      -9.606  -9.961  -5.908  0.00  0.00    +0.001 C 
ATOM     17  C   UNL     1      -8.366  -9.070  -5.991  0.00  0.00    +0.013 C 
ENDBRANCH   9  12
ENDBRANCH   4   8
BRANCH   1  18
ATOM     18  C   UNL     1      -2.964  -2.435  -3.031  0.00  0.00    +0.019 C 
BRANCH  18  20
ATOM     19  N   UNL     1      -1.544  -1.274  -1.371  0.00  0.00    -0.312 N 
ATOM     20  C   UNL     1      -2.564  -2.121  -1.612  0.00  0.00    +0.197 C 
ATOM     21  O   UNL     1      -3.161  -2.630  -0.688  0.00  0.00    -0.278 OA
ATOM     22  H   UNL     1      -1.067  -0.866  -2.111  0.00  0.00    +0.149 HD
BRANCH  19  23
ATOM     23  C   UNL     1      -1.156  -0.969   0.008  0.00  0.00    +0.146 C 
BRANCH  23  28
ATOM     24  C   UNL     1      -0.016   1.351   0.009  0.00  0.00    +0.014 A 
ATOM     25  C   UNL     1       1.184   2.038   0.002  0.00  0.00    +0.028 A 
ATOM     26  C   UNL     1       2.343   1.335  -0.013  0.00  0.00    +0.078 A 
ATOM     27  S   UNL     1       1.753  -0.350  -0.017  0.00  0.00    -0.080 S 
ATOM     28  C   UNL     1       0.002  -0.004   0.002  0.00  0.00    +0.008 A 
ATOM     29 CL   UNL     1       3.977   1.921  -0.026  0.00  0.00    -0.076 Cl
ENDBRANCH  23  28
ENDBRANCH  19  23
ENDBRANCH  18  20
ENDBRANCH   1  18
TORSDOF 6
