REMARK  Name = ZINC12457202
REMARK  10 active torsions:
REMARK  status: ('A' for Active; 'I' for Inactive)
REMARK    1  A    between atoms: C_1  and  C_2
REMARK    2  A    between atoms: C_2  and  C_3
REMARK    3  A    between atoms: C_2  and  C_4
REMARK    4  A    between atoms: C_2  and  O_33
REMARK    5  A    between atoms: C_5  and  C_6
REMARK    6  A    between atoms: C_10  and  C_12
REMARK    7  A    between atoms: N_14  and  C_15
REMARK    8  A    between atoms: C_15  and  C_16
REMARK    9  A    between atoms: C_16  and  N_61
REMARK   10  A    between atoms: C_25  and  C_28
REMARK                            x       y       z     vdW  Elec       q    Type
REMARK                         _______ _______ _______ _____ _____    ______ ____
ROOT
ATOM      1  C   UNL     1       1.098   7.479   0.034  0.00  0.00    +0.086 C 
ENDROOT
BRANCH   1   4
ATOM      2  C   UNL     1      -0.056   5.333   0.033  0.00  0.00    +0.244 C 
ATOM      3  O   UNL     1      -1.113   5.934   0.046  0.00  0.00    -0.270 OA
ATOM      4  N   UNL     1       1.107   6.014   0.025  0.00  0.00    -0.313 N 
ATOM      5  H   UNL     1       1.950   5.534   0.014  0.00  0.00    +0.149 HD
BRANCH   2  10
ATOM      6  C   UNL     1      -1.232   1.756   0.017  0.00  0.00    +0.026 A 
ATOM      7  C   UNL     1      -0.013   1.076   0.008  0.00  0.00    +0.017 A 
ATOM      8  C   UNL     1       1.175   1.781   0.000  0.00  0.00    +0.002 A 
ATOM      9  C   UNL     1       1.165   3.162   0.008  0.00  0.00    +0.013 A 
ATOM     10  C   UNL     1      -0.048   3.854   0.024  0.00  0.00    +0.038 A 
ATOM     11  C   UNL     1      -1.249   3.148   0.031  0.00  0.00    +0.030 A 
BRANCH   6  13
ATOM     12  C   UNL     1      -3.471   0.422   0.021  0.00  0.00    -0.063 C 
ATOM     13  C   UNL     1      -2.462   1.023   0.019  0.00  0.00    -0.063 C 
BRANCH  12  15
ATOM     14  C   UNL     1      -5.912   0.647   0.034  0.00  0.00    +0.055 C 
ATOM     15  C   UNL     1      -4.736  -0.331   0.023  0.00  0.00    +0.121 C 
ATOM     16  C   UNL     1      -4.811  -1.205  -1.231  0.00  0.00    +0.055 C 
BRANCH  15  17
ATOM     17  O   UNL     1      -4.795  -1.160   1.185  0.00  0.00    -0.377 OA
ATOM     18  H   UNL     1      -5.603  -1.686   1.252  0.00  0.00    +0.211 HD
ENDBRANCH  15  17
ENDBRANCH  12  15
ENDBRANCH   6  13
ENDBRANCH   2  10
ENDBRANCH   1   4
BRANCH   1  19
ATOM     19  C   UNL     1       2.537   7.997   0.023  0.00  0.00    -0.059 C 
BRANCH  19  30
ATOM     20  C   UNL     1       1.982   9.981   1.291  0.00  0.00    -0.039 C 
ATOM     21  C   UNL     1       1.323  11.321   1.026  0.00  0.00    -0.022 A 
ATOM     22  C   UNL     1      -0.046  11.453   1.126  0.00  0.00    +0.005 A 
ATOM     23  C   UNL     1      -0.634  12.685   0.899  0.00  0.00    +0.000 A 
ATOM     24  C   UNL     1       0.149  13.778   0.576  0.00  0.00    +0.004 A 
ATOM     25  C   UNL     1       1.520  13.645   0.470  0.00  0.00    +0.046 A 
ATOM     26  C   UNL     1       2.108  12.407   0.688  0.00  0.00    +0.123 A 
ATOM     27  O   UNL     1       3.452  12.253   0.536  0.00  0.00    -0.486 OA
ATOM     28  C   UNL     1       3.856  11.475  -0.598  0.00  0.00    +0.188 C 
ATOM     29  C   UNL     1       3.856   9.999  -0.264  0.00  0.00    -0.028 C 
ATOM     30  N   UNL     1       2.502   9.468   0.001  0.00  0.00    +0.386 N 
ATOM     31  H   UNL     1       1.875   9.774  -0.752  0.00  0.00    -0.081 HD
BRANCH  28  32
ATOM     32  C   UNL     1       5.245  11.889  -1.013  0.00  0.00    -0.002 A 
ATOM     33  C   UNL     1       5.573  11.998  -2.352  0.00  0.00    +0.015 A 
ATOM     34  C   UNL     1       6.831  12.372  -2.692  0.00  0.00    +0.045 A 
ATOM     35  S   UNL     1       7.598  12.583  -1.093  0.00  0.00    -0.105 S 
ATOM     36  C   UNL     1       6.189  12.165  -0.080  0.00  0.00    +0.052 A 
ENDBRANCH  28  32
ENDBRANCH  19  30
ENDBRANCH   1  19
TORSDOF 8
