REMARK  Name = ZINC39687254
REMARK  8 active torsions:
REMARK  status: ('A' for Active; 'I' for Inactive)
REMARK    1  A    between atoms: C_4  and  C_7
REMARK    2  A    between atoms: C_7  and  C_8
REMARK    3  A    between atoms: C_8  and  C_10
REMARK    4  A    between atoms: C_8  and  N_18
REMARK    5  A    between atoms: C_19  and  C_21
REMARK    6  A    between atoms: C_32  and  C_34
REMARK    7  A    between atoms: C_34  and  C_35
REMARK    8  A    between atoms: C_35  and  C_36
REMARK                            x       y       z     vdW  Elec       q    Type
REMARK                         _______ _______ _______ _____ _____    ______ ____
ROOT
ATOM      1  C   UNL     1       3.712   2.715   2.552  0.00  0.00    +0.100 C 
ATOM      2  C   UNL     1       4.630   2.925   3.777  0.00  0.00    +0.121 C 
ATOM      3  N   UNL     1       4.021   4.059   4.511  0.00  0.00    -0.300 N 
ATOM      4  C   UNL     1       2.561   3.825   4.406  0.00  0.00    +0.115 C 
ATOM      5  C   UNL     1       2.355   3.306   2.970  0.00  0.00    -0.004 C 
ATOM      6  C   UNL     1       1.278   2.225   2.949  0.00  0.00    -0.010 C 
ATOM      7  C   UNL     1      -0.072   2.850   3.310  0.00  0.00    -0.082 C 
ATOM      8  N   UNL     1      -0.397   3.910   2.348  0.00  0.00    +0.379 N 
ATOM      9  C   UNL     1       0.593   4.990   2.441  0.00  0.00    -0.082 C 
ATOM     10  C   UNL     1       1.972   4.456   2.042  0.00  0.00    -0.010 C 
ATOM     11  C   UNL     1       4.653   5.075   5.133  0.00  0.00    +0.216 C 
ATOM     12  O   UNL     1       4.009   5.935   5.695  0.00  0.00    -0.276 OA
ATOM     13  H   UNL     1      -0.390   3.528   1.414  0.00  0.00    -0.086 HD
ATOM     14  H   UNL     1      -1.314   4.278   2.552  0.00  0.00    -0.086 HD
ENDROOT
BRANCH   1  16
ATOM     15  N   UNL     1       3.326   0.371   3.243  0.00  0.00    -0.303 N 
ATOM     16  C   UNL     1       3.572   1.245   2.247  0.00  0.00    +0.219 C 
ATOM     17  O   UNL     1       3.681   0.850   1.106  0.00  0.00    -0.275 OA
ATOM     18  H   UNL     1       3.299   0.678   4.162  0.00  0.00    +0.149 HD
BRANCH  15  19
ATOM     19  C   UNL     1       3.100  -1.044   2.936  0.00  0.00    +0.163 C 
BRANCH  19  20
ATOM     20  C   UNL     1       2.277  -1.671   4.032  0.00  0.00    +0.236 C 
ATOM     21  O   UNL     1       2.307  -1.208   5.152  0.00  0.00    -0.274 OA
ATOM     22  N   UNL     1       1.508  -2.745   3.766  0.00  0.00    -0.300 N 
ATOM     23  C   UNL     1       1.546  -3.385   2.444  0.00  0.00    +0.108 C 
ATOM     24  C   UNL     1       1.832  -4.878   2.627  0.00  0.00    +0.019 C 
ATOM     25  C   UNL     1       0.800  -5.478   3.586  0.00  0.00    +0.003 C 
ATOM     26  C   UNL     1       0.912  -4.794   4.950  0.00  0.00    +0.019 C 
ATOM     27  C   UNL     1       0.621  -3.303   4.796  0.00  0.00    +0.108 C 
ENDBRANCH  19  20
BRANCH  19  28
ATOM     28  C   UNL     1       4.446  -1.765   2.832  0.00  0.00    +0.067 C 
BRANCH  28  32
ATOM     29  C   UNL     1       6.677  -0.158  -0.437  0.00  0.00    +0.000 A 
ATOM     30  C   UNL     1       6.805   0.393   0.825  0.00  0.00    +0.000 A 
ATOM     31  C   UNL     1       6.083  -0.127   1.883  0.00  0.00    +0.004 A 
ATOM     32  C   UNL     1       5.232  -1.197   1.679  0.00  0.00    -0.045 A 
ATOM     33  C   UNL     1       5.103  -1.747   0.417  0.00  0.00    +0.004 A 
ATOM     34  C   UNL     1       5.827  -1.228  -0.640  0.00  0.00    +0.000 A 
ENDBRANCH  28  32
ENDBRANCH  19  28
ENDBRANCH  15  19
ENDBRANCH   1  16
BRANCH  11  35
ATOM     35  C   UNL     1       6.158   5.141   5.129  0.00  0.00    +0.096 C 
BRANCH  35  36
ATOM     36  C   UNL     1       6.616   6.382   5.898  0.00  0.00    +0.013 C 
BRANCH  36  37
ATOM     37  C   UNL     1       8.145   6.449   5.894  0.00  0.00    -0.011 C 
ATOM     38  C   UNL     1       8.726   5.294   6.735  0.00  0.00    +0.003 C 
ATOM     39  C   UNL     1       9.957   5.919   7.438  0.00  0.00    +0.000 C 
ATOM     40  C   UNL     1       9.469   7.350   7.775  0.00  0.00    +0.000 C 
ATOM     41  C   UNL     1       8.617   7.756   6.555  0.00  0.00    +0.003 C 
ENDBRANCH  36  37
ENDBRANCH  35  36
ENDBRANCH  11  35
TORSDOF 8
