REMARK  Name = ZINC24976311
REMARK  7 active torsions:
REMARK  status: ('A' for Active; 'I' for Inactive)
REMARK    1  A    between atoms: C_3  and  C_6
REMARK    2  A    between atoms: C_6  and  C_8
REMARK    3  A    between atoms: C_6  and  N_26
REMARK    4  A    between atoms: C_8  and  N_9
REMARK    5  A    between atoms: C_10  and  C_12
REMARK    6  A    between atoms: C_15  and  N_18
REMARK    7  A    between atoms: C_19  and  C_21
REMARK                            x       y       z     vdW  Elec       q    Type
REMARK                         _______ _______ _______ _____ _____    ______ ____
ROOT
ATOM      1  N   UNL     1       5.902  -2.407  -0.361  0.00  0.00    -0.313 N 
ATOM      2  C   UNL     1       5.935  -1.069  -0.203  0.00  0.00    +0.244 C 
ATOM      3  O   UNL     1       6.997  -0.477  -0.240  0.00  0.00    -0.270 OA
ATOM      4  H   UNL     1       4.942  -2.942  -0.327  0.00  0.00    +0.149 HD
ENDROOT
BRANCH   2   5
ATOM      5  C   UNL     1       4.681  -0.321   0.017  0.00  0.00    +0.037 A 
ATOM      6  C   UNL     1       4.713   1.066   0.182  0.00  0.00    +0.015 A 
ATOM      7  C   UNL     1       3.542   1.760   0.387  0.00  0.00    +0.024 A 
ATOM      8  C   UNL     1       2.328   1.082   0.431  0.00  0.00    +0.034 A 
ATOM      9  C   UNL     1       2.293  -0.300   0.272  0.00  0.00    +0.024 A 
ATOM     10  C   UNL     1       3.460  -0.999   0.061  0.00  0.00    +0.015 A 
BRANCH   8  11
ATOM     11  N   UNL     1       1.145   1.788   0.639  0.00  0.00    -0.281 N 
ATOM     12  C   UNL     1       0.994   3.020   0.114  0.00  0.00    +0.255 C 
ATOM     13  O   UNL     1       1.921   3.552  -0.467  0.00  0.00    -0.269 OA
ATOM     14  H   UNL     1       0.334   1.339   1.232  0.00  0.00    +0.155 HD
BRANCH  12  15
ATOM     15  C   UNL     1      -0.286   3.721   0.248  0.00  0.00    +0.074 A 
ATOM     16  C   UNL     1      -0.644   4.981  -0.209  0.00  0.00    +0.021 A 
ATOM     17  C   UNL     1      -1.924   5.400   0.056  0.00  0.00    +0.008 A 
ATOM     18  C   UNL     1      -2.764   4.579   0.739  0.00  0.00    +0.046 A 
ATOM     19  S   UNL     1      -1.791   3.175   1.034  0.00  0.00    -0.092 S 
ENDBRANCH  12  15
ENDBRANCH   8  11
ENDBRANCH   2   5
BRANCH   1  20
ATOM     20  C   UNL     1       7.147  -3.149  -0.580  0.00  0.00    +0.094 C 
BRANCH  20  21
ATOM     21  C   UNL     1       6.822  -4.619  -0.855  0.00  0.00    -0.013 C 
BRANCH  21  22
ATOM     22  N   UNL     1       8.072  -5.383  -0.965  0.00  0.00    +0.386 N 
ATOM     23  C   UNL     1       8.855  -5.307   0.295  0.00  0.00    -0.078 C 
ATOM     24  C   UNL     1       9.800  -6.532   0.200  0.00  0.00    -0.020 C 
ATOM     25  C   UNL     1       8.906  -7.607  -0.460  0.00  0.00    -0.020 C 
ATOM     26  C   UNL     1       7.796  -6.820  -1.182  0.00  0.00    -0.078 C 
ATOM     27  H   UNL     1       8.618  -4.945  -1.813  0.00  0.00    -0.081 HD
ENDBRANCH  21  22
BRANCH  21  30
ATOM     28  C   UNL     1       4.223  -4.957  -3.619  0.00  0.00    +0.008 A 
ATOM     29  C   UNL     1       4.715  -4.876  -2.330  0.00  0.00    +0.009 A 
ATOM     30  C   UNL     1       6.050  -4.730  -2.144  0.00  0.00    -0.022 A 
ATOM     31  S   UNL     1       6.655  -4.695  -3.823  0.00  0.00    -0.103 S 
ATOM     32  C   UNL     1       5.089  -4.887  -4.659  0.00  0.00    +0.045 A 
ENDBRANCH  21  30
ENDBRANCH  20  21
ENDBRANCH   1  20
TORSDOF 7
