REMARK  Name = ZINC15205720
REMARK  6 active torsions:
REMARK  status: ('A' for Active; 'I' for Inactive)
REMARK    1  A    between atoms: C_1  and  C_2
REMARK    2  A    between atoms: C_2  and  C_3
REMARK    3  A    between atoms: C_4  and  O_19
REMARK    4  A    between atoms: C_7  and  O_10
REMARK    5  A    between atoms: C_8  and  O_9
REMARK    6  A    between atoms: C_15  and  C_18
REMARK                            x       y       z     vdW  Elec       q    Type
REMARK                         _______ _______ _______ _____ _____    ______ ____
ROOT
ATOM      1  C   UNL     1       0.707  -0.490  -1.238  0.00  0.00    +0.040 A 
ATOM      2  C   UNL     1      -0.023  -0.718  -2.404  0.00  0.00    +0.135 A 
ATOM      3  C   UNL     1       0.626  -1.169  -3.558  0.00  0.00    +0.078 A 
ATOM      4  C   UNL     1       2.022  -1.389  -3.530  0.00  0.00    +0.085 A 
ATOM      5  C   UNL     1       2.741  -1.158  -2.359  0.00  0.00    +0.171 A 
ATOM      6  C   UNL     1       2.071  -0.700  -1.211  0.00  0.00    +0.166 A 
ATOM      7  C   UNL     1       2.696  -1.864  -4.751  0.00  0.00    +0.237 C 
ATOM      8  O   UNL     1       3.893  -2.064  -4.763  0.00  0.00    -0.283 OA
ATOM      9  C   UNL     1       1.869  -2.094  -5.974  0.00  0.00    +0.233 C 
ATOM     10  O   UNL     1       2.393  -2.486  -7.001  0.00  0.00    -0.283 OA
ATOM     11  C   UNL     1       0.493  -1.857  -5.934  0.00  0.00    +0.047 C 
ATOM     12  C   UNL     1      -0.129  -1.414  -4.790  0.00  0.00    +0.197 C 
ATOM     13  O   UNL     1      -1.463  -1.199  -4.802  0.00  0.00    -0.287 OA
ATOM     14  C   UNL     1      -0.330  -2.092  -7.175  0.00  0.00    +0.052 C 
ENDROOT
BRANCH   1  16
ATOM     15  C   UNL     1      -0.019   1.526   0.010  0.00  0.00    +0.009 C 
ATOM     16  C   UNL     1       0.002  -0.004   0.002  0.00  0.00    +0.039 C 
ENDBRANCH   1  16
BRANCH   6  17
ATOM     17  O   UNL     1       2.767  -0.467  -0.069  0.00  0.00    -0.503 OA
ATOM     18  H   UNL     1       2.836  -1.236   0.513  0.00  0.00    +0.292 HD
ENDBRANCH   6  17
BRANCH   5  19
ATOM     19  O   UNL     1       4.079  -1.368  -2.329  0.00  0.00    -0.503 OA
ATOM     20  H   UNL     1       4.604  -0.593  -2.569  0.00  0.00    +0.292 HD
ENDBRANCH   5  19
BRANCH   2  21
ATOM     21  O   UNL     1      -1.361  -0.504  -2.418  0.00  0.00    -0.506 OA
ATOM     22  H   UNL     1      -1.613   0.394  -2.672  0.00  0.00    +0.292 HD
ENDBRANCH   2  21
TORSDOF 4
