REMARK  Name = ZINC39681402
REMARK  8 active torsions:
REMARK  status: ('A' for Active; 'I' for Inactive)
REMARK    1  A    between atoms: C_1  and  C_2
REMARK    2  A    between atoms: C_5  and  C_8
REMARK    3  A    between atoms: C_8  and  C_9
REMARK    4  A    between atoms: C_13  and  C_22
REMARK    5  A    between atoms: N_24  and  C_25
REMARK    6  A    between atoms: C_25  and  C_26
REMARK    7  A    between atoms: C_26  and  O_27
REMARK    8  A    between atoms: O_27  and  C_28
REMARK                            x       y       z     vdW  Elec       q    Type
REMARK                         _______ _______ _______ _____ _____    ______ ____
ROOT
ATOM      1  C   UNL     1       1.194  -4.798   0.082  0.00  0.00    +0.220 C 
ATOM      2  O   UNL     1       2.038  -3.927   0.117  0.00  0.00    -0.275 OA
ATOM      3  N   UNL     1       1.565  -6.093   0.033  0.00  0.00    -0.300 N 
ATOM      4  C   UNL     1       0.688  -7.287  -0.021  0.00  0.00    +0.121 C 
ATOM      5  C   UNL     1       1.397  -8.247  -1.002  0.00  0.00    +0.100 C 
ATOM      6  C   UNL     1       2.875  -7.822  -0.969  0.00  0.00    -0.004 C 
ATOM      7  C   UNL     1       2.941  -6.644   0.015  0.00  0.00    +0.115 C 
ATOM      8  C   UNL     1       3.745  -8.974  -0.475  0.00  0.00    -0.010 C 
ATOM      9  C   UNL     1       5.215  -8.546  -0.505  0.00  0.00    -0.082 C 
ATOM     10  N   UNL     1       5.590  -8.176  -1.875  0.00  0.00    +0.379 N 
ATOM     11  C   UNL     1       4.813  -7.008  -2.309  0.00  0.00    -0.082 C 
ATOM     12  C   UNL     1       3.326  -7.371  -2.354  0.00  0.00    -0.010 C 
ATOM     13  H   UNL     1       6.574  -7.953  -1.904  0.00  0.00    -0.086 HD
ATOM     14  H   UNL     1       5.405  -8.951  -2.494  0.00  0.00    -0.086 HD
ENDROOT
BRANCH   5  15
ATOM     15  C   UNL     1       0.834  -8.088  -2.391  0.00  0.00    +0.218 C 
ATOM     16  O   UNL     1       0.396  -7.014  -2.748  0.00  0.00    -0.275 OA
ATOM     17  N   UNL     1       0.818  -9.137  -3.236  0.00  0.00    -0.312 N 
ATOM     18  H   UNL     1       1.168  -9.995  -2.950  0.00  0.00    +0.149 HD
BRANCH  17  19
ATOM     19  C   UNL     1       0.270  -8.982  -4.586  0.00  0.00    +0.145 C 
BRANCH  19  20
ATOM     20  C   UNL     1       0.371 -10.314  -5.333  0.00  0.00    +0.248 C 
BRANCH  20  21
ATOM     21  O   UNL     1      -0.465 -11.282  -4.695  0.00  0.00    -0.489 OA
BRANCH  21  22
ATOM     22  C   UNL     1      -0.491 -12.528  -5.238  0.00  0.00    +0.139 A 
ATOM     23  C   UNL     1       0.276 -12.814  -6.357  0.00  0.00    +0.047 A 
ATOM     24  C   UNL     1       0.247 -14.082  -6.907  0.00  0.00    +0.004 A 
ATOM     25  C   UNL     1      -0.545 -15.064  -6.343  0.00  0.00    +0.002 A 
ATOM     26  C   UNL     1      -1.311 -14.782  -5.227  0.00  0.00    +0.023 A 
ATOM     27  C   UNL     1      -1.282 -13.517  -4.669  0.00  0.00    +0.083 A 
ATOM     28 CL   UNL     1      -2.238 -13.165  -3.264  0.00  0.00    -0.080 Cl
ENDBRANCH  21  22
ENDBRANCH  20  21
ENDBRANCH  19  20
ENDBRANCH  17  19
ENDBRANCH   5  15
BRANCH   1  29
ATOM     29  C   UNL     1      -0.267  -4.432   0.093  0.00  0.00    +0.131 C 
BRANCH  29  34
ATOM     30  C   UNL     1      -0.816   1.317   0.312  0.00  0.00    +0.044 C 
ATOM     31  C   UNL     1      -0.673  -0.182   0.255  0.00  0.00    -0.050 A 
ATOM     32  C   UNL     1      -0.604  -0.824  -0.967  0.00  0.00    +0.003 A 
ATOM     33  C   UNL     1      -0.472  -2.199  -1.020  0.00  0.00    +0.004 A 
ATOM     34  C   UNL     1      -0.410  -2.933   0.150  0.00  0.00    -0.039 A 
ATOM     35  C   UNL     1      -0.478  -2.291   1.373  0.00  0.00    +0.004 A 
ATOM     36  C   UNL     1      -0.605  -0.915   1.425  0.00  0.00    +0.003 A 
ENDBRANCH  29  34
ENDBRANCH   1  29
TORSDOF 7
