REMARK  Name = ZINC64539147
REMARK  9 active torsions:
REMARK  status: ('A' for Active; 'I' for Inactive)
REMARK    1  A    between atoms: C_1  and  C_2
REMARK    2  A    between atoms: C_2  and  C_3
REMARK    3  A    between atoms: C_3  and  N_4
REMARK    4  A    between atoms: C_8  and  S_13
REMARK    5  A    between atoms: S_13  and  N_16
REMARK    6  A    between atoms: C_20  and  C_23
REMARK    7  A    between atoms: N_25  and  C_26
REMARK    8  A    between atoms: C_26  and  C_27
REMARK    9  A    between atoms: C_27  and  C_28
REMARK                            x       y       z     vdW  Elec       q    Type
REMARK                         _______ _______ _______ _____ _____    ______ ____
ROOT
ATOM      1  N   UNL     1       5.464  -6.499   0.331  0.00  0.00    -0.176 NA
ATOM      2  C   UNL     1       6.758  -5.807   0.404  0.00  0.00    +0.109 C 
ATOM      3  C   UNL     1       6.919  -5.210   1.805  0.00  0.00    +0.018 C 
ATOM      4  C   UNL     1       6.736  -6.314   2.850  0.00  0.00    +0.015 C 
ATOM      5  C   UNL     1       5.328  -6.900   2.733  0.00  0.00    +0.091 C 
ATOM      6  C   UNL     1       5.146  -7.512   1.346  0.00  0.00    +0.122 C 
ENDROOT
BRANCH   5   7
ATOM      7  C   UNL     1       5.138  -7.964   3.784  0.00  0.00    +0.217 C 
ATOM      8  O   UNL     1       4.881  -9.103   3.454  0.00  0.00    -0.275 OA
ATOM      9  N   UNL     1       5.253  -7.650   5.090  0.00  0.00    -0.315 N 
ATOM     10  H   UNL     1       5.458  -6.740   5.353  0.00  0.00    +0.149 HD
BRANCH   9  11
ATOM     11  C   UNL     1       5.068  -8.685   6.111  0.00  0.00    +0.108 C 
BRANCH  11  12
ATOM     12  C   UNL     1       5.251  -8.069   7.499  0.00  0.00    +0.052 C 
BRANCH  12  13
ATOM     13  C   UNL     1       5.061  -9.133   8.549  0.00  0.00    -0.040 C 
ATOM     14  C   UNL     1       6.027  -9.865   9.149  0.00  0.00    -0.001 A 
ATOM     15  C   UNL     1       7.488  -9.890   9.008  0.00  0.00    +0.010 A 
ATOM     16  C   UNL     1       8.206 -10.754   9.762  0.00  0.00    +0.001 A 
ATOM     17  C   UNL     1       7.590 -11.624  10.672  0.00  0.00    +0.002 A 
ATOM     18  C   UNL     1       6.254 -11.659  10.858  0.00  0.00    +0.026 A 
ATOM     19  C   UNL     1       5.402 -10.793  10.118  0.00  0.00    +0.043 A 
ATOM     20  N   UNL     1       4.100 -10.641  10.117  0.00  0.00    -0.380 N 
ATOM     21  C   UNL     1       3.752  -9.593   9.151  0.00  0.00    +0.144 C 
ATOM     22  H   UNL     1       3.472 -11.136  10.667  0.00  0.00    +0.160 HD
ENDBRANCH  12  13
ENDBRANCH  11  12
ENDBRANCH   9  11
ENDBRANCH   5   7
BRANCH   1  23
ATOM     23  S   UNL     1       4.381  -6.139  -0.870  0.00  0.00    +0.061 S 
ATOM     24  O   UNL     1       3.545  -7.278  -1.017  0.00  0.00    -0.153 OA
ATOM     25  O   UNL     1       5.135  -5.603  -1.949  0.00  0.00    -0.153 OA
BRANCH  23  30
ATOM     26  N   UNL     1       0.762  -1.976   1.234  0.00  0.00    -0.249 N 
ATOM     27  C   UNL     1       1.752  -2.779   0.658  0.00  0.00    +0.068 A 
ATOM     28  C   UNL     1       2.921  -2.490  -0.025  0.00  0.00    +0.028 A 
ATOM     29  C   UNL     1       3.721  -3.519  -0.489  0.00  0.00    +0.030 A 
ATOM     30  C   UNL     1       3.357  -4.835  -0.274  0.00  0.00    +0.107 A 
ATOM     31  C   UNL     1       2.190  -5.132   0.407  0.00  0.00    +0.054 A 
ATOM     32  C   UNL     1       1.384  -4.108   0.875  0.00  0.00    +0.067 A 
ATOM     33  N   UNL     1       0.176  -4.093   1.581  0.00  0.00    -0.263 N 
ATOM     34  N   UNL     1      -0.179  -2.792   1.792  0.00  0.00    -0.160 NA
ATOM     35  H   UNL     1      -0.322  -4.872   1.873  0.00  0.00    +0.168 HD
ATOM     36  H   UNL     1      -0.287  -2.599   2.776  0.00  0.00    +0.168 HD
BRANCH  26  37
ATOM     37  C   UNL     1       0.742  -0.511   1.242  0.00  0.00    +0.125 C 
BRANCH  37  39
ATOM     38  C   UNL     1      -0.019   1.526   0.010  0.00  0.00    +0.005 C 
ATOM     39  C   UNL     1       0.002  -0.004   0.002  0.00  0.00    +0.017 C 
ENDBRANCH  37  39
ENDBRANCH  26  37
ENDBRANCH  23  30
ENDBRANCH   1  23
TORSDOF 8
