REMARK  Name = ZINC13174191
REMARK  13 active torsions:
REMARK  status: ('A' for Active; 'I' for Inactive)
REMARK    1  A    between atoms: C_1  and  C_2
REMARK    2  A    between atoms: C_2  and  C_3
REMARK    3  A    between atoms: C_3  and  C_4
REMARK    4  A    between atoms: C_4  and  O_5
REMARK    5  A    between atoms: O_5  and  C_6
REMARK    6  A    between atoms: C_10  and  N_12
REMARK    7  A    between atoms: C_13  and  C_15
REMARK    8  A    between atoms: C_15  and  S_16
REMARK    9  A    between atoms: S_16  and  C_17
REMARK   10  A    between atoms: C_18  and  C_36
REMARK   11  A    between atoms: C_19  and  C_31
REMARK   12  A    between atoms: C_25  and  C_29
REMARK   13  A    between atoms: C_25  and  C_30
REMARK                            x       y       z     vdW  Elec       q    Type
REMARK                         _______ _______ _______ _____ _____    ______ ____
ROOT
ATOM      1  C   UNL     1       4.923 -10.429  -7.535  0.00  0.00    +0.080 C 
ATOM      2  C   UNL     1       5.179 -11.747  -7.755  0.00  0.00    +0.069 C 
ATOM      3  C   UNL     1       5.977 -12.193  -8.944  0.00  0.00    +0.103 C 
ATOM      4  C   UNL     1       6.764 -11.048  -9.531  0.00  0.00    +0.025 C 
ATOM      5  C   UNL     1       6.444  -9.768  -9.247  0.00  0.00    +0.016 C 
ATOM      6  N   UNL     1       5.399  -9.479  -8.409  0.00  0.00    -0.311 N 
ATOM      7  C   UNL     1       7.218  -8.621  -9.850  0.00  0.00    +0.058 C 
ATOM      8  C   UNL     1       8.670  -9.045 -10.078  0.00  0.00    -0.023 C 
ATOM      9  C   UNL     1       8.680 -10.269 -10.999  0.00  0.00    +0.086 C 
ATOM     10  C   UNL     1       7.840 -11.354 -10.382  0.00  0.00    +0.162 C 
ATOM     11  O   UNL     1       8.098 -12.517 -10.623  0.00  0.00    -0.292 OA
ATOM     12  C   UNL     1       9.317  -9.405  -8.738  0.00  0.00    +0.011 C 
ATOM     13  C   UNL     1       9.443  -7.900 -10.735  0.00  0.00    +0.011 C 
ATOM     14  H   UNL     1       4.995  -8.598  -8.428  0.00  0.00    +0.152 HD
ENDROOT
BRANCH   3  15
ATOM     15  C   UNL     1       5.041 -12.737  -9.992  0.00  0.00    +0.002 A 
ATOM     16  C   UNL     1       4.994 -13.979 -10.533  0.00  0.00    +0.012 A 
ATOM     17  C   UNL     1       4.037 -14.257 -11.491  0.00  0.00    +0.008 A 
ATOM     18  C   UNL     1       3.174 -13.279 -11.862  0.00  0.00    +0.045 A 
ATOM     19  S   UNL     1       3.701 -11.915 -10.838  0.00  0.00    -0.101 S 
ENDBRANCH   3  15
BRANCH   2  20
ATOM     20  C   UNL     1       4.678 -12.724  -6.835  0.00  0.00    +0.098 C 
ATOM     21  N   UNL     1       4.282 -13.500  -6.106  0.00  0.00    -0.191 NA
ENDBRANCH   2  20
BRANCH   1  22
ATOM     22  S   UNL     1       3.974  -9.939  -6.134  0.00  0.00    -0.100 S 
BRANCH  22  23
ATOM     23  C   UNL     1       3.895  -8.132  -6.268  0.00  0.00    +0.171 C 
BRANCH  23  25
ATOM     24  N   UNL     1       2.909  -6.247  -5.006  0.00  0.00    -0.285 N 
ATOM     25  C   UNL     1       3.100  -7.577  -5.114  0.00  0.00    +0.227 C 
ATOM     26  O   UNL     1       2.633  -8.326  -4.283  0.00  0.00    -0.275 OA
ATOM     27  H   UNL     1       3.216  -5.654  -5.709  0.00  0.00    +0.155 HD
BRANCH  24  32
ATOM     28  C   UNL     1       0.832  -4.078  -2.878  0.00  0.00    +0.122 A 
ATOM     29  C   UNL     1       0.998  -4.689  -1.643  0.00  0.00    +0.046 A 
ATOM     30  C   UNL     1       1.795  -5.811  -1.527  0.00  0.00    +0.005 A 
ATOM     31  C   UNL     1       2.429  -6.329  -2.640  0.00  0.00    +0.023 A 
ATOM     32  C   UNL     1       2.266  -5.722  -3.879  0.00  0.00    +0.037 A 
ATOM     33  C   UNL     1       1.462  -4.598  -3.998  0.00  0.00    +0.069 A 
BRANCH  28  34
ATOM     34  O   UNL     1       0.047  -2.974  -2.991  0.00  0.00    -0.492 OA
BRANCH  34  35
ATOM     35  C   UNL     1      -0.571  -2.493  -1.796  0.00  0.00    +0.229 C 
BRANCH  35  36
ATOM     36  C   UNL     1      -1.408  -1.254  -2.118  0.00  0.00    +0.041 C 
BRANCH  36  38
ATOM     37  C   UNL     1      -2.907   0.501  -1.160  0.00  0.00    +0.004 C 
ATOM     38  C   UNL     1      -2.070  -0.738  -0.838  0.00  0.00    -0.000 C 
ENDBRANCH  36  38
ENDBRANCH  35  36
ENDBRANCH  34  35
ENDBRANCH  28  34
ENDBRANCH  24  32
ENDBRANCH  23  25
ENDBRANCH  22  23
ENDBRANCH   1  22
TORSDOF 10
