REMARK  Name = ZINC09004918
REMARK  12 active torsions:
REMARK  status: ('A' for Active; 'I' for Inactive)
REMARK    1  A    between atoms: C_1  and  C_2
REMARK    2  A    between atoms: C_5  and  N_9
REMARK    3  A    between atoms: C_6  and  C_8
REMARK    4  A    between atoms: C_10  and  C_12
REMARK    5  A    between atoms: C_13  and  C_36
REMARK    6  A    between atoms: N_19  and  C_22
REMARK    7  A    between atoms: C_22  and  C_23
REMARK    8  A    between atoms: N_25  and  C_26
REMARK    9  A    between atoms: C_29  and  C_32
REMARK   10  A    between atoms: C_32  and  C_33
REMARK   11  A    between atoms: C_32  and  C_34
REMARK   12  A    between atoms: C_32  and  C_35
REMARK                            x       y       z     vdW  Elec       q    Type
REMARK                         _______ _______ _______ _____ _____    ______ ____
ROOT
ATOM      1  C   UNL     1       7.846   7.834  -1.390  0.00  0.00    +0.080 A 
ATOM      2  C   UNL     1       6.598   7.388  -1.716  0.00  0.00    -0.017 A 
ATOM      3  C   UNL     1       5.719   6.984  -0.708  0.00  0.00    +0.076 A 
ATOM      4  C   UNL     1       6.215   7.075   0.613  0.00  0.00    +0.116 A 
ATOM      5  S   UNL     1       7.857   7.710   0.390  0.00  0.00    -0.064 S 
ATOM      6  N   UNL     1       5.481   6.724   1.661  0.00  0.00    -0.230 NA
ATOM      7  C   UNL     1       4.261   6.280   1.525  0.00  0.00    +0.203 A 
ATOM      8  N   UNL     1       3.680   6.143   0.308  0.00  0.00    -0.290 N 
ATOM      9  C   UNL     1       4.335   6.471  -0.823  0.00  0.00    +0.263 A 
ATOM     10  O   UNL     1       3.803   6.350  -1.912  0.00  0.00    -0.267 OA
ATOM     11  C   UNL     1       6.169   7.331  -3.159  0.00  0.00    +0.046 C 
ENDROOT
BRANCH   1  13
ATOM     12  N   UNL     1      10.090   8.706  -1.769  0.00  0.00    -0.281 N 
ATOM     13  C   UNL     1       8.912   8.300  -2.282  0.00  0.00    +0.255 C 
ATOM     14  O   UNL     1       8.734   8.319  -3.486  0.00  0.00    -0.269 OA
ATOM     15  H   UNL     1      10.257   8.627  -0.816  0.00  0.00    +0.155 HD
BRANCH  12  20
ATOM     16  C   UNL     1      14.072  10.874  -5.177  0.00  0.00    +0.044 C 
ATOM     17  C   UNL     1      13.014  10.298  -4.271  0.00  0.00    -0.050 A 
ATOM     18  C   UNL     1      12.194   9.283  -4.728  0.00  0.00    +0.005 A 
ATOM     19  C   UNL     1      11.223   8.753  -3.901  0.00  0.00    +0.024 A 
ATOM     20  C   UNL     1      11.072   9.240  -2.609  0.00  0.00    +0.037 A 
ATOM     21  C   UNL     1      11.894  10.264  -2.155  0.00  0.00    -0.029 A 
ATOM     22  C   UNL     1      12.866  10.786  -2.986  0.00  0.00    +0.008 A 
ATOM     23  C   UNL     1      11.729  10.800  -0.757  0.00  0.00    +0.045 C 
ENDBRANCH  12  20
ENDBRANCH   1  13
BRANCH   8  24
ATOM     24  C   UNL     1       2.309   5.633   0.220  0.00  0.00    +0.222 C 
BRANCH  24  25
ATOM     25  C   UNL     1       2.339   4.132   0.094  0.00  0.00    +0.237 C 
ATOM     26  O   UNL     1       3.401   3.545   0.079  0.00  0.00    -0.274 OA
ATOM     27  N   UNL     1       1.186   3.441  -0.002  0.00  0.00    -0.284 N 
ATOM     28  H   UNL     1       0.342   3.913  -0.075  0.00  0.00    +0.155 HD
BRANCH  27  29
ATOM     29  C   UNL     1       1.206   2.042   0.004  0.00  0.00    +0.033 A 
ATOM     30  C   UNL     1       2.248   1.363   0.623  0.00  0.00    +0.023 A 
ATOM     31  C   UNL     1       2.265  -0.018   0.627  0.00  0.00    +0.006 A 
ATOM     32  C   UNL     1       1.246  -0.725   0.017  0.00  0.00    -0.042 A 
ATOM     33  C   UNL     1       0.207  -0.053  -0.601  0.00  0.00    +0.006 A 
ATOM     34  C   UNL     1       0.185   1.328  -0.609  0.00  0.00    +0.023 A 
BRANCH  32  35
ATOM     35  C   UNL     1       1.267  -2.232   0.024  0.00  0.00    -0.013 C 
ATOM     36  C   UNL     1       1.254  -2.735   1.469  0.00  0.00    +0.015 C 
ATOM     37  C   UNL     1       0.035  -2.763  -0.712  0.00  0.00    +0.015 C 
ATOM     38  C   UNL     1       2.533  -2.727  -0.677  0.00  0.00    +0.015 C 
ENDBRANCH  32  35
ENDBRANCH  27  29
ENDBRANCH  24  25
ENDBRANCH   8  24
TORSDOF 6
