REMARK  Name = ZINC35778336
REMARK  16 active torsions:
REMARK  status: ('A' for Active; 'I' for Inactive)
REMARK    1  A    between atoms: C_1  and  C_2
REMARK    2  A    between atoms: C_2  and  C_3
REMARK    3  A    between atoms: C_2  and  C_4
REMARK    4  A    between atoms: C_4  and  N_5
REMARK    5  A    between atoms: N_5  and  C_6
REMARK    6  A    between atoms: N_5  and  C_27
REMARK    7  A    between atoms: C_6  and  C_7
REMARK    8  A    between atoms: C_8  and  C_21
REMARK    9  A    between atoms: N_10  and  C_20
REMARK   10  A    between atoms: C_11  and  O_12
REMARK   11  A    between atoms: O_12  and  C_13
REMARK   12  A    between atoms: C_27  and  C_28
REMARK   13  A    between atoms: C_28  and  C_30
REMARK   14  A    between atoms: C_28  and  O_34
REMARK   15  A    between atoms: C_30  and  C_31
REMARK   16  A    between atoms: C_31  and  C_32
REMARK                            x       y       z     vdW  Elec       q    Type
REMARK                         _______ _______ _______ _____ _____    ______ ____
ROOT
ATOM      1  C   UNL     1       1.797   1.485  -3.062  0.00  0.00    +0.025 A 
ATOM      2  C   UNL     1       0.628   1.201  -3.792  0.00  0.00    +0.098 A 
ATOM      3  N   UNL     1       0.284   2.286  -4.453  0.00  0.00    -0.168 NA
ATOM      4  N   UNL     1       1.218   3.289  -4.166  0.00  0.00    -0.235 N 
ATOM      5  C   UNL     1       2.135   2.777  -3.305  0.00  0.00    +0.221 A 
ATOM      6  C   UNL     1       1.205   4.655  -4.697  0.00  0.00    +0.176 C 
ENDROOT
BRANCH   2   7
ATOM      7  C   UNL     1      -0.092  -0.097  -3.813  0.00  0.00    +0.002 A 
ATOM      8  C   UNL     1      -1.483  -0.125  -3.737  0.00  0.00    +0.010 A 
ATOM      9  C   UNL     1      -2.148  -1.335  -3.758  0.00  0.00    +0.001 A 
ATOM     10  C   UNL     1      -1.436  -2.517  -3.853  0.00  0.00    +0.000 A 
ATOM     11  C   UNL     1      -0.055  -2.494  -3.929  0.00  0.00    +0.001 A 
ATOM     12  C   UNL     1       0.620  -1.290  -3.915  0.00  0.00    +0.010 A 
ENDBRANCH   2   7
BRANCH   1  13
ATOM     13  C   UNL     1       2.538   0.527  -2.165  0.00  0.00    -0.035 C 
BRANCH  13  14
ATOM     14  N   UNL     1       2.124   0.741  -0.771  0.00  0.00    +0.384 N 
ATOM     15  H   UNL     1       2.298   1.701  -0.512  0.00  0.00    -0.081 HD
BRANCH  14  16
ATOM     16  C   UNL     1       0.691   0.450  -0.637  0.00  0.00    -0.075 C 
BRANCH  16  18
ATOM     17  C   UNL     1       0.363   2.329   0.977  0.00  0.00    +0.005 C 
ATOM     18  C   UNL     1       0.225   0.819   0.773  0.00  0.00    -0.034 C 
ATOM     19  C   UNL     1      -1.239   0.412   0.950  0.00  0.00    +0.005 C 
ENDBRANCH  16  18
ENDBRANCH  14  16
BRANCH  14  20
ATOM     20  C   UNL     1       2.890  -0.150   0.110  0.00  0.00    -0.047 C 
BRANCH  20  21
ATOM     21  C   UNL     1       4.362   0.266   0.102  0.00  0.00    +0.098 C 
BRANCH  21  22
ATOM     22  O   UNL     1       4.928  -0.010  -1.181  0.00  0.00    -0.394 OA
ATOM     23  H   UNL     1       4.894  -0.942  -1.434  0.00  0.00    +0.210 HD
ENDBRANCH  21  22
BRANCH  21  24
ATOM     24  C   UNL     1       5.120  -0.520   1.173  0.00  0.00    +0.033 C 
BRANCH  24  25
ATOM     25  C   UNL     1       6.562  -0.016   1.251  0.00  0.00    +0.029 C 
BRANCH  25  26
ATOM     26  C   UNL     1       7.309  -0.791   2.306  0.00  0.00    -0.034 C 
ATOM     27  C   UNL     1       8.424  -1.408   2.000  0.00  0.00    +0.004 C 
ENDBRANCH  25  26
ENDBRANCH  24  25
ENDBRANCH  21  24
ENDBRANCH  20  21
ENDBRANCH  14  20
ENDBRANCH  13  14
ENDBRANCH   1  13
BRANCH   5  28
ATOM     28  O   UNL     1       3.200   3.438  -2.784  0.00  0.00    -0.438 OA
BRANCH  28  29
ATOM     29  C   UNL     1       4.351   3.464  -3.506  0.00  0.00    +0.131 A 
ATOM     30  C   UNL     1       4.381   2.924  -4.784  0.00  0.00    +0.049 A 
ATOM     31  C   UNL     1       5.551   2.951  -5.518  0.00  0.00    +0.042 A 
ATOM     32  C   UNL     1       6.695   3.516  -4.978  0.00  0.00    +0.124 A 
ATOM     33  C   UNL     1       6.666   4.055  -3.703  0.00  0.00    +0.042 A 
ATOM     34  C   UNL     1       5.496   4.035  -2.969  0.00  0.00    +0.049 A 
ATOM     35  F   UNL     1       7.839   3.541  -5.696  0.00  0.00    -0.205 F 
ENDBRANCH  28  29
ENDBRANCH   5  28
TORSDOF 13
