REMARK  Name = ZINC07920746
REMARK  3 active torsions:
REMARK  status: ('A' for Active; 'I' for Inactive)
REMARK    1  A    between atoms: C_9  and  S_11
REMARK    2  A    between atoms: S_11  and  C_12
REMARK    3  A    between atoms: C_12  and  C_13
REMARK                            x       y       z     vdW  Elec       q    Type
REMARK                         _______ _______ _______ _____ _____    ______ ____
ROOT
ATOM      1  C   UNL     1      -4.383  -0.864   0.039  0.00  0.00    +0.152 C 
ENDROOT
BRANCH   1   2
ATOM      2  C   UNL     1      -5.517  -1.856   0.044  0.00  0.00    +0.146 A 
ATOM      3  N   UNL     1      -6.000  -2.300   1.191  0.00  0.00    -0.199 NA
ATOM      4  C   UNL     1      -7.005  -3.172   1.200  0.00  0.00    +0.217 A 
ATOM      5  N   UNL     1      -7.517  -3.604   0.052  0.00  0.00    -0.181 NA
ATOM      6  C   UNL     1      -7.026  -3.159  -1.099  0.00  0.00    +0.217 A 
ATOM      7  N   UNL     1      -6.024  -2.283  -1.100  0.00  0.00    -0.199 NA
ATOM      8  N   UNL     1      -7.554  -3.606  -2.294  0.00  0.00    -0.327 N 
ATOM      9  N   UNL     1      -7.511  -3.632   2.398  0.00  0.00    -0.327 N 
ATOM     10  H   UNL     1      -7.195  -3.280  -3.134  0.00  0.00    +0.145 HD
ATOM     11  H   UNL     1      -8.284  -4.244  -2.293  0.00  0.00    +0.145 HD
ATOM     12  H   UNL     1      -8.241  -4.270   2.404  0.00  0.00    +0.145 HD
ATOM     13  H   UNL     1      -7.137  -3.316   3.236  0.00  0.00    +0.145 HD
ENDBRANCH   1   2
BRANCH   1  14
ATOM     14  S   UNL     1      -5.051   0.818   0.054  0.00  0.00    -0.098 S 
BRANCH  14  23
ATOM     15  C   UNL     1       1.159   3.168   0.008  0.00  0.00    +0.001 A 
ATOM     16  C   UNL     1       1.156   1.775   0.001  0.00  0.00    +0.002 A 
ATOM     17  C   UNL     1      -0.013   1.076   0.008  0.00  0.00    +0.028 A 
ATOM     18  C   UNL     1      -1.238   1.764   0.018  0.00  0.00    +0.072 A 
ATOM     19  C   UNL     1      -1.232   3.181   0.031  0.00  0.00    +0.000 A 
ATOM     20  C   UNL     1      -0.009   3.869   0.023  0.00  0.00    +0.010 A 
ATOM     21  C   UNL     1      -2.460   3.873   0.047  0.00  0.00    +0.012 A 
ATOM     22  C   UNL     1      -3.611   3.144   0.054  0.00  0.00    +0.035 A 
ATOM     23  C   UNL     1      -3.552   1.743   0.045  0.00  0.00    +0.098 A 
ATOM     24  N   UNL     1      -2.400   1.102   0.031  0.00  0.00    -0.240 NA
ENDBRANCH  14  23
ENDBRANCH   1  14
TORSDOF 3
