REMARK  Name = ZINC39676531
REMARK  6 active torsions:
REMARK  status: ('A' for Active; 'I' for Inactive)
REMARK    1  A    between atoms: C_1  and  N_2
REMARK    2  A    between atoms: C_6  and  C_7
REMARK    3  A    between atoms: C_11  and  C_20
REMARK    4  A    between atoms: N_22  and  C_23
REMARK    5  A    between atoms: C_23  and  C_24
REMARK    6  A    between atoms: C_24  and  C_25
REMARK                            x       y       z     vdW  Elec       q    Type
REMARK                         _______ _______ _______ _____ _____    ______ ____
ROOT
ATOM      1  C   UNL     1      -0.173  -0.417   2.461  0.00  0.00    +0.265 C 
ATOM      2  O   UNL     1      -0.108  -1.264   3.332  0.00  0.00    -0.268 OA
ATOM      3  N   UNL     1      -0.380   0.873   2.789  0.00  0.00    -0.295 N 
ATOM      4  C   UNL     1      -0.628   2.014   1.877  0.00  0.00    +0.121 C 
ATOM      5  C   UNL     1      -1.700   2.863   2.595  0.00  0.00    +0.100 C 
ATOM      6  C   UNL     1      -1.553   2.504   4.083  0.00  0.00    -0.004 C 
ATOM      7  C   UNL     1      -0.419   1.471   4.145  0.00  0.00    +0.115 C 
ATOM      8  C   UNL     1      -2.847   1.891   4.610  0.00  0.00    -0.010 C 
ATOM      9  C   UNL     1      -2.695   1.595   6.104  0.00  0.00    -0.082 C 
ATOM     10  N   UNL     1      -2.391   2.839   6.823  0.00  0.00    +0.379 N 
ATOM     11  C   UNL     1      -1.099   3.373   6.376  0.00  0.00    -0.082 C 
ATOM     12  C   UNL     1      -1.184   3.744   4.892  0.00  0.00    -0.010 C 
ATOM     13  H   UNL     1      -3.116   3.517   6.639  0.00  0.00    -0.086 HD
ATOM     14  H   UNL     1      -2.352   2.653   7.814  0.00  0.00    -0.086 HD
ENDROOT
BRANCH   1  20
ATOM     15  C   UNL     1      -0.023  -3.329   1.316  0.00  0.00    +0.150 C 
ATOM     16  N   UNL     1       0.042  -2.085   0.546  0.00  0.00    -0.330 N 
ATOM     17  C   UNL     1       0.171  -1.977  -0.788  0.00  0.00    +0.199 A 
ATOM     18  N   UNL     1       0.191  -0.710  -1.117  0.00  0.00    -0.243 NA
ATOM     19  C   UNL     1       0.077   0.040  -0.020  0.00  0.00    +0.143 A 
ATOM     20  C   UNL     1      -0.025  -0.801   1.052  0.00  0.00    +0.124 A 
ENDBRANCH   1  20
BRANCH   5  21
ATOM     21  C   UNL     1      -3.076   2.500   2.099  0.00  0.00    +0.218 C 
ATOM     22  O   UNL     1      -3.284   1.396   1.642  0.00  0.00    -0.275 OA
ATOM     23  N   UNL     1      -4.076   3.402   2.164  0.00  0.00    -0.315 N 
ATOM     24  H   UNL     1      -3.909   4.285   2.530  0.00  0.00    +0.149 HD
BRANCH  23  25
ATOM     25  C   UNL     1      -5.413   3.049   1.682  0.00  0.00    +0.109 C 
BRANCH  25  26
ATOM     26  C   UNL     1      -6.354   4.241   1.868  0.00  0.00    +0.056 C 
BRANCH  26  27
ATOM     27  C   UNL     1      -7.730   3.878   1.372  0.00  0.00    -0.021 A 
ATOM     28  C   UNL     1      -8.774   3.184   2.130  0.00  0.00    +0.004 A 
ATOM     29  C   UNL     1      -8.855   2.675   3.427  0.00  0.00    +0.030 A 
ATOM     30  C   UNL     1     -10.014   2.061   3.847  0.00  0.00    +0.042 A 
ATOM     31  C   UNL     1     -11.099   1.946   2.987  0.00  0.00    +0.022 A 
ATOM     32  C   UNL     1     -11.034   2.444   1.705  0.00  0.00    +0.027 A 
ATOM     33  C   UNL     1      -9.874   3.068   1.260  0.00  0.00    +0.047 A 
ATOM     34  N   UNL     1      -9.510   3.652   0.066  0.00  0.00    -0.360 N 
ATOM     35  C   UNL     1      -8.233   4.133   0.154  0.00  0.00    +0.087 A 
ATOM     36 CL   UNL     1     -10.119   1.426   5.459  0.00  0.00    -0.084 Cl
ATOM     37  H   UNL     1     -10.077   3.716  -0.718  0.00  0.00    +0.165 HD
ENDBRANCH  26  27
ENDBRANCH  25  26
ENDBRANCH  23  25
ENDBRANCH   5  21
TORSDOF 5
