REMARK  Name = ZINC58949036
REMARK  11 active torsions:
REMARK  status: ('A' for Active; 'I' for Inactive)
REMARK    1  A    between atoms: C_1  and  C_2
REMARK    2  A    between atoms: N_7  and  C_9
REMARK    3  A    between atoms: C_9  and  C_10
REMARK    4  A    between atoms: C_13  and  C_16
REMARK    5  A    between atoms: C_16  and  N_17
REMARK    6  A    between atoms: C_18  and  C_20
REMARK    7  A    between atoms: C_20  and  C_22
REMARK    8  A    between atoms: C_20  and  N_25
REMARK    9  A    between atoms: C_22  and  C_23
REMARK   10  A    between atoms: C_22  and  C_24
REMARK   11  A    between atoms: C_26  and  C_28
REMARK                            x       y       z     vdW  Elec       q    Type
REMARK                         _______ _______ _______ _____ _____    ______ ____
ROOT
ATOM      1  N   UNL     1       1.521  -8.972   1.077  0.00  0.00    -0.310 N 
ATOM      2  C   UNL     1       1.363 -10.242   0.655  0.00  0.00    +0.234 C 
ATOM      3  O   UNL     1       1.897 -11.151   1.254  0.00  0.00    -0.274 OA
ATOM      4  H   UNL     1       1.156  -8.239   0.557  0.00  0.00    +0.149 HD
ENDROOT
BRANCH   1   5
ATOM      5  C   UNL     1       2.245  -8.698   2.321  0.00  0.00    +0.139 C 
BRANCH   5   9
ATOM      6  C   UNL     1       2.348  -4.484   3.014  0.00  0.00    -0.064 A 
ATOM      7  C   UNL     1       1.306  -5.242   3.514  0.00  0.00    +0.002 A 
ATOM      8  C   UNL     1       1.272  -6.606   3.290  0.00  0.00    +0.005 A 
ATOM      9  C   UNL     1       2.281  -7.212   2.564  0.00  0.00    -0.030 A 
ATOM     10  C   UNL     1       3.323  -6.454   2.063  0.00  0.00    +0.005 A 
ATOM     11  C   UNL     1       3.354  -5.090   2.284  0.00  0.00    +0.002 A 
BRANCH   6  12
ATOM     12  C   UNL     1       2.384  -2.998   3.258  0.00  0.00    -0.043 C 
BRANCH  12  18
ATOM     13  C   UNL     1       1.308   1.381   1.352  0.00  0.00    +0.005 C 
ATOM     14  C   UNL     1       1.157  -0.131   1.171  0.00  0.00    -0.031 C 
ATOM     15  C   UNL     1      -0.330  -0.495   1.131  0.00  0.00    -0.001 C 
ATOM     16  C   UNL     1      -0.471  -2.016   1.029  0.00  0.00    -0.018 C 
ATOM     17  C   UNL     1       0.256  -2.671   2.206  0.00  0.00    -0.078 C 
ATOM     18  N   UNL     1       1.677  -2.306   2.173  0.00  0.00    +0.383 N 
ATOM     19  C   UNL     1       1.823  -0.855   2.342  0.00  0.00    -0.075 C 
ATOM     20  H   UNL     1       2.073  -2.581   1.286  0.00  0.00    -0.081 HD
ENDBRANCH  12  18
ENDBRANCH   6  12
ENDBRANCH   5   9
ENDBRANCH   1   5
BRANCH   2  21
ATOM     21  C   UNL     1       0.522 -10.533  -0.562  0.00  0.00    +0.162 C 
BRANCH  21  22
ATOM     22  N   UNL     1      -0.034 -11.884  -0.460  0.00  0.00    -0.300 N 
ATOM     23  C   UNL     1      -1.170 -12.197  -1.114  0.00  0.00    +0.246 C 
ATOM     24  O   UNL     1      -1.734 -11.357  -1.788  0.00  0.00    -0.270 OA
ATOM     25  H   UNL     1       0.416 -12.554   0.078  0.00  0.00    +0.150 HD
BRANCH  23  26
ATOM     26  C   UNL     1      -1.731 -13.560  -1.011  0.00  0.00    +0.055 A 
ATOM     27  C   UNL     1      -1.089 -14.525  -0.233  0.00  0.00    +0.014 A 
ATOM     28  C   UNL     1      -1.617 -15.796  -0.141  0.00  0.00    +0.001 A 
ATOM     29  C   UNL     1      -2.782 -16.116  -0.818  0.00  0.00    +0.001 A 
ATOM     30  C   UNL     1      -3.423 -15.166  -1.591  0.00  0.00    +0.021 A 
ATOM     31  C   UNL     1      -2.908 -13.887  -1.688  0.00  0.00    +0.053 A 
ATOM     32 CL   UNL     1      -3.719 -12.693  -2.652  0.00  0.00    -0.083 Cl
ENDBRANCH  23  26
ENDBRANCH  21  22
BRANCH  21  33
ATOM     33  C   UNL     1       1.390 -10.431  -1.817  0.00  0.00    +0.012 C 
ATOM     34  C   UNL     1       1.865  -8.988  -1.994  0.00  0.00    +0.009 C 
ATOM     35  C   UNL     1       2.603 -11.353  -1.675  0.00  0.00    +0.009 C 
ENDBRANCH  21  33
ENDBRANCH   2  21
TORSDOF 8
