REMARK  Name = ZINC20830158
REMARK  9 active torsions:
REMARK  status: ('A' for Active; 'I' for Inactive)
REMARK    1  A    between atoms: C_1  and  C_2
REMARK    2  A    between atoms: C_5  and  N_9
REMARK    3  A    between atoms: C_6  and  C_8
REMARK    4  A    between atoms: N_9  and  S_10
REMARK    5  A    between atoms: S_10  and  C_13
REMARK    6  A    between atoms: C_16  and  N_19
REMARK    7  A    between atoms: C_20  and  C_22
REMARK    8  A    between atoms: C_22  and  S_23
REMARK    9  A    between atoms: S_23  and  C_24
REMARK                            x       y       z     vdW  Elec       q    Type
REMARK                         _______ _______ _______ _____ _____    ______ ____
ROOT
ATOM      1  C   UNL     1      -0.789  10.758  -0.029  0.00  0.00    +0.109 A 
ATOM      2  C   UNL     1      -1.963  10.069   0.218  0.00  0.00    +0.030 A 
ATOM      3  C   UNL     1      -1.938   8.699   0.392  0.00  0.00    +0.025 A 
ATOM      4  C   UNL     1      -0.733   8.013   0.320  0.00  0.00    +0.034 A 
ATOM      5  C   UNL     1       0.445   8.709   0.077  0.00  0.00    +0.025 A 
ATOM      6  C   UNL     1       0.412  10.078  -0.102  0.00  0.00    +0.030 A 
ENDROOT
BRANCH   4   7
ATOM      7  N   UNL     1      -0.704   6.625   0.495  0.00  0.00    -0.285 N 
ATOM      8  C   UNL     1      -1.724   5.868   0.045  0.00  0.00    +0.227 C 
ATOM      9  O   UNL     1      -2.704   6.395  -0.437  0.00  0.00    -0.275 OA
ATOM     10  H   UNL     1       0.151   6.153   1.001  0.00  0.00    +0.155 HD
BRANCH   8  11
ATOM     11  C   UNL     1      -1.645   4.366   0.141  0.00  0.00    +0.172 C 
BRANCH  11  12
ATOM     12  S   UNL     1      -3.159   3.637  -0.543  0.00  0.00    -0.088 S 
BRANCH  12  13
ATOM     13  C   UNL     1      -2.917   1.901  -0.361  0.00  0.00    +0.160 A 
ATOM     14  N   UNL     1      -1.889   1.250   0.148  0.00  0.00    -0.133 NA
ATOM     15  N   UNL     1      -1.905  -0.125   0.194  0.00  0.00    -0.125 NA
ATOM     16  C   UNL     1      -2.948  -0.785  -0.271  0.00  0.00    +0.180 A 
ATOM     17  S   UNL     1      -3.997   0.554  -0.818  0.00  0.00    -0.025 S 
ATOM     18  N   UNL     1      -3.171  -2.156  -0.323  0.00  0.00    -0.336 N 
ATOM     19  H   UNL     1      -4.107  -2.545  -0.749  0.00  0.00    +0.144 HD
ATOM     20  H   UNL     1      -2.411  -2.852   0.062  0.00  0.00    +0.144 HD
ENDBRANCH  12  13
ENDBRANCH  11  12
ENDBRANCH   8  11
ENDBRANCH   4   7
BRANCH   1  21
ATOM     21  S   UNL     1      -0.826  12.505  -0.250  0.00  0.00    +0.072 S 
ATOM     22  O   UNL     1       0.328  12.842  -1.009  0.00  0.00    -0.150 OA
ATOM     23  O   UNL     1      -2.141  12.833  -0.677  0.00  0.00    -0.150 OA
BRANCH  21  24
ATOM     24  N   UNL     1      -0.627  13.193   1.243  0.00  0.00    -0.216 N 
ATOM     25  H   UNL     1      -1.407  13.851   1.654  0.00  0.00    +0.174 HD
BRANCH  24  30
ATOM     26  C   UNL     1       4.073  12.156   4.241  0.00  0.00    +0.044 C 
ATOM     27  C   UNL     1       2.824  12.431   3.445  0.00  0.00    -0.050 A 
ATOM     28  C   UNL     1       2.893  12.537   2.067  0.00  0.00    +0.005 A 
ATOM     29  C   UNL     1       1.751  12.790   1.334  0.00  0.00    +0.025 A 
ATOM     30  C   UNL     1       0.530  12.937   1.982  0.00  0.00    +0.051 A 
ATOM     31  C   UNL     1       0.465  12.834   3.365  0.00  0.00    -0.028 A 
ATOM     32  C   UNL     1       1.611  12.577   4.092  0.00  0.00    +0.008 A 
ATOM     33  C   UNL     1      -0.856  12.999   4.072  0.00  0.00    +0.046 C 
ENDBRANCH  24  30
ENDBRANCH  21  24
ENDBRANCH   1  21
TORSDOF 7
