REMARK  Name = ZINC64539536
REMARK  12 active torsions:
REMARK  status: ('A' for Active; 'I' for Inactive)
REMARK    1  A    between atoms: C_1  and  C_2
REMARK    2  A    between atoms: C_2  and  O_3
REMARK    3  A    between atoms: O_3  and  C_4
REMARK    4  A    between atoms: C_5  and  C_22
REMARK    5  A    between atoms: C_6  and  C_21
REMARK    6  A    between atoms: C_8  and  C_20
REMARK    7  A    between atoms: N_10  and  C_13
REMARK    8  A    between atoms: C_22  and  C_23
REMARK    9  A    between atoms: C_23  and  C_24
REMARK   10  A    between atoms: N_26  and  C_27
REMARK   11  A    between atoms: C_27  and  C_28
REMARK   12  A    between atoms: C_28  and  C_29
REMARK                            x       y       z     vdW  Elec       q    Type
REMARK                         _______ _______ _______ _____ _____    ______ ____
ROOT
ATOM      1  C   UNL     1       0.528  -1.843   1.451  0.00  0.00    +0.220 A 
ATOM      2  C   UNL     1       1.109  -2.363   2.607  0.00  0.00    +0.018 A 
ATOM      3  C   UNL     1       1.171  -3.718   2.782  0.00  0.00    -0.030 A 
ATOM      4  C   UNL     1       0.641  -4.541   1.779  0.00  0.00    +0.045 A 
ATOM      5  C   UNL     1       0.524  -5.985   1.605  0.00  0.00    +0.070 A 
ATOM      6  N   UNL     1      -0.065  -6.200   0.463  0.00  0.00    -0.169 NA
ATOM      7  N   UNL     1      -0.360  -4.985  -0.161  0.00  0.00    -0.214 N 
ATOM      8  C   UNL     1       0.068  -3.954   0.635  0.00  0.00    +0.167 A 
ATOM      9  N   UNL     1       0.029  -2.631   0.517  0.00  0.00    -0.193 NA
ATOM     10  C   UNL     1       0.998  -7.038   2.574  0.00  0.00    +0.068 C 
ATOM     11  C   UNL     1       1.794  -4.311   4.020  0.00  0.00    +0.045 C 
ENDROOT
BRANCH   7  12
ATOM     12  C   UNL     1      -0.992  -4.843  -1.403  0.00  0.00    +0.070 A 
ATOM     13  C   UNL     1      -1.854  -3.777  -1.627  0.00  0.00    +0.028 A 
ATOM     14  C   UNL     1      -2.475  -3.638  -2.853  0.00  0.00    +0.005 A 
ATOM     15  C   UNL     1      -2.241  -4.559  -3.857  0.00  0.00    +0.038 A 
ATOM     16  C   UNL     1      -1.382  -5.623  -3.638  0.00  0.00    +0.125 A 
ATOM     17  C   UNL     1      -0.753  -5.763  -2.414  0.00  0.00    +0.066 A 
ATOM     18  F   UNL     1      -1.155  -6.521  -4.621  0.00  0.00    -0.205 F 
ENDBRANCH   7  12
BRANCH   1  19
ATOM     19  O   UNL     1       0.470  -0.499   1.284  0.00  0.00    -0.476 OA
BRANCH  19  21
ATOM     20  C   UNL     1      -0.115   1.510   0.075  0.00  0.00    +0.048 C 
ATOM     21  C   UNL     1      -0.141  -0.019   0.085  0.00  0.00    +0.227 C 
ENDBRANCH  19  21
ENDBRANCH   1  19
BRANCH   2  22
ATOM     22  C   UNL     1       1.666  -1.437   3.658  0.00  0.00    +0.050 C 
BRANCH  22  23
ATOM     23  C   UNL     1       0.571  -1.098   4.670  0.00  0.00    +0.100 C 
BRANCH  23  24
ATOM     24  C   UNL     1       1.128  -0.172   5.721  0.00  0.00    +0.213 C 
ATOM     25  O   UNL     1       2.287   0.182   5.665  0.00  0.00    -0.276 OA
ATOM     26  N   UNL     1       0.338   0.264   6.723  0.00  0.00    -0.315 N 
ATOM     27  H   UNL     1      -0.589  -0.019   6.767  0.00  0.00    +0.149 HD
BRANCH  26  28
ATOM     28  C   UNL     1       0.879   1.164   7.744  0.00  0.00    +0.108 C 
BRANCH  28  29
ATOM     29  C   UNL     1      -0.216   1.504   8.757  0.00  0.00    +0.052 C 
BRANCH  29  30
ATOM     30  C   UNL     1       0.341   2.429   9.807  0.00  0.00    -0.040 C 
ATOM     31  C   UNL     1       0.265   3.780   9.824  0.00  0.00    -0.001 A 
ATOM     32  C   UNL     1      -0.335   4.753   8.903  0.00  0.00    +0.010 A 
ATOM     33  C   UNL     1      -0.247   6.071   9.194  0.00  0.00    +0.001 A 
ATOM     34  C   UNL     1       0.401   6.530  10.349  0.00  0.00    +0.002 A 
ATOM     35  C   UNL     1       0.975   5.696  11.242  0.00  0.00    +0.026 A 
ATOM     36  C   UNL     1       0.943   4.289  11.037  0.00  0.00    +0.043 A 
ATOM     37  N   UNL     1       1.419   3.293  11.743  0.00  0.00    -0.380 N 
ATOM     38  C   UNL     1       1.091   2.037  11.060  0.00  0.00    +0.144 C 
ATOM     39  H   UNL     1       1.903   3.373  12.580  0.00  0.00    +0.160 HD
ENDBRANCH  29  30
ENDBRANCH  28  29
ENDBRANCH  26  28
ENDBRANCH  23  24
ENDBRANCH  22  23
ENDBRANCH   2  22
TORSDOF 9
