REMARK  Name = ZINC15446456
REMARK  6 active torsions:
REMARK  status: ('A' for Active; 'I' for Inactive)
REMARK    1  A    between atoms: C_13  and  C_14
REMARK    2  A    between atoms: C_14  and  O_15
REMARK    3  A    between atoms: O_15  and  C_16
REMARK    4  A    between atoms: N_18  and  C_19
REMARK    5  A    between atoms: C_19  and  C_26
REMARK    6  A    between atoms: C_22  and  O_25
REMARK                            x       y       z     vdW  Elec       q    Type
REMARK                         _______ _______ _______ _____ _____    ______ ____
ROOT
ATOM      1  O   UNL     1      -1.193   3.215   4.216  0.00  0.00    -0.449 OA
ENDROOT
BRANCH   1   2
ATOM      2  C   UNL     1      -0.029   3.410   3.568  0.00  0.00    +0.401 C 
ATOM      3  O   UNL     1       0.966   3.731   4.188  0.00  0.00    -0.226 OA
ATOM      4  N   UNL     1       0.032   3.251   2.231  0.00  0.00    -0.265 N 
ATOM      5  H   UNL     1      -0.762   2.995   1.736  0.00  0.00    +0.153 HD
BRANCH   4   6
ATOM      6  C   UNL     1       1.298   3.464   1.525  0.00  0.00    +0.141 C 
ATOM      7  C   UNL     1       2.377   2.469   2.021  0.00  0.00    +0.040 C 
ATOM      8  C   UNL     1       2.061   1.161   1.266  0.00  0.00    +0.034 C 
ATOM      9  C   UNL     1       1.286   1.562  -0.002  0.00  0.00    +0.117 C 
ATOM     10  C   UNL     1       1.159   3.099   0.025  0.00  0.00    +0.068 C 
BRANCH   6  11
ATOM     11  C   UNL     1       1.767   4.887   1.691  0.00  0.00    +0.379 C 
ATOM     12  O   UNL     1       2.315   5.453   0.775  0.00  0.00    -0.244 OA
ATOM     13  O   UNL     1       1.575   5.525   2.856  0.00  0.00    -0.244 OA
ENDBRANCH   6  11
BRANCH   9  14
ATOM     14  O   UNL     1      -0.011   0.963   0.007  0.00  0.00    -0.392 OA
ATOM     15  H   UNL     1       0.002  -0.004   0.002  0.00  0.00    +0.210 HD
ENDBRANCH   9  14
ENDBRANCH   4   6
ENDBRANCH   1   2
BRANCH   1  16
ATOM     16  C   UNL     1      -1.185   3.404   5.656  0.00  0.00    +0.246 C 
BRANCH  16  29
ATOM     17  C   UNL     1      -5.346   6.295   5.491  0.00  0.00    +0.001 A 
ATOM     18  C   UNL     1      -4.854   5.654   4.368  0.00  0.00    +0.000 A 
ATOM     19  C   UNL     1      -3.951   4.615   4.501  0.00  0.00    +0.005 A 
ATOM     20  C   UNL     1      -3.538   4.216   5.755  0.00  0.00    -0.029 A 
ATOM     21  C   UNL     1      -4.028   4.854   6.892  0.00  0.00    -0.014 A 
ATOM     22  C   UNL     1      -4.940   5.901   6.749  0.00  0.00    +0.009 A 
ATOM     23  C   UNL     1      -3.430   4.236   8.101  0.00  0.00    -0.014 A 
ATOM     24  C   UNL     1      -3.601   4.517   9.458  0.00  0.00    +0.009 A 
ATOM     25  C   UNL     1      -2.918   3.784  10.405  0.00  0.00    +0.001 A 
ATOM     26  C   UNL     1      -2.062   2.768  10.017  0.00  0.00    +0.000 A 
ATOM     27  C   UNL     1      -1.888   2.484   8.674  0.00  0.00    +0.005 A 
ATOM     28  C   UNL     1      -2.567   3.212   7.720  0.00  0.00    -0.029 A 
ATOM     29  C   UNL     1      -2.585   3.139   6.213  0.00  0.00    +0.088 C 
ENDBRANCH  16  29
ENDBRANCH   1  16
TORSDOF 6
