REMARK  Name = ZINC11832219
REMARK  6 active torsions:
REMARK  status: ('A' for Active; 'I' for Inactive)
REMARK    1  A    between atoms: C_4  and  C_7
REMARK    2  A    between atoms: C_7  and  C_8
REMARK    3  A    between atoms: C_7  and  N_14
REMARK    4  A    between atoms: C_22  and  C_23
REMARK    5  A    between atoms: C_22  and  N_61
REMARK    6  A    between atoms: N_27  and  C_28
REMARK                            x       y       z     vdW  Elec       q    Type
REMARK                         _______ _______ _______ _____ _____    ______ ____
ROOT
ATOM      1  N   UNL     1       1.173  -1.332   3.140  0.00  0.00    -0.288 N 
ATOM      2  C   UNL     1      -0.021  -1.508   2.540  0.00  0.00    +0.303 C 
ATOM      3  O   UNL     1      -0.132  -1.330   1.342  0.00  0.00    -0.253 OA
ATOM      4  N   UNL     1      -1.092  -1.883   3.267  0.00  0.00    -0.289 N 
ATOM      5  C   UNL     1      -2.378  -2.183   2.618  0.00  0.00    +0.091 C 
ATOM      6  C   UNL     1      -2.859  -3.555   3.114  0.00  0.00    -0.059 C 
ATOM      7  C   UNL     1      -1.545  -3.371   5.144  0.00  0.00    -0.059 C 
ATOM      8  C   UNL     1      -1.008  -1.996   4.731  0.00  0.00    +0.091 C 
ATOM      9  H   UNL     1       1.245  -1.399   4.105  0.00  0.00    +0.151 HD
ATOM     10  N   UNL     1      -2.908  -3.534   4.592  0.00  0.00    +0.386 N 
ATOM     11  H   UNL     1      -3.486  -2.741   4.895  0.00  0.00    -0.081 HD
ENDROOT
BRANCH   1  12
ATOM     12  C   UNL     1       2.361  -1.039   2.335  0.00  0.00    +0.135 C 
BRANCH  12  16
ATOM     13  C   UNL     1       4.068  -4.696   0.933  0.00  0.00    +0.000 A 
ATOM     14  C   UNL     1       4.014  -3.594   0.100  0.00  0.00    +0.000 A 
ATOM     15  C   UNL     1       3.461  -2.411   0.553  0.00  0.00    +0.006 A 
ATOM     16  C   UNL     1       2.963  -2.329   1.840  0.00  0.00    -0.023 A 
ATOM     17  C   UNL     1       3.022  -3.429   2.675  0.00  0.00    +0.006 A 
ATOM     18  C   UNL     1       3.570  -4.614   2.220  0.00  0.00    +0.000 A 
ENDBRANCH  12  16
BRANCH  12  19
ATOM     19  C   UNL     1       3.371  -0.305   3.178  0.00  0.00    -0.023 A 
ATOM     20  C   UNL     1       3.568  -0.672   4.496  0.00  0.00    +0.006 A 
ATOM     21  C   UNL     1       4.498  -0.001   5.269  0.00  0.00    +0.000 A 
ATOM     22  C   UNL     1       5.223   1.043   4.726  0.00  0.00    +0.000 A 
ATOM     23  C   UNL     1       5.022   1.414   3.410  0.00  0.00    +0.000 A 
ATOM     24  C   UNL     1       4.096   0.740   2.636  0.00  0.00    +0.006 A 
ENDBRANCH  12  19
ENDBRANCH   1  12
BRANCH  10  25
ATOM     25  C   UNL     1      -3.509  -4.786   5.096  0.00  0.00    +0.001 C 
BRANCH  25  26
ATOM     26  C   UNL     1      -4.770  -5.074   4.322  0.00  0.00    +0.140 A 
ATOM     27  N   UNL     1      -4.863  -5.780   3.226  0.00  0.00    -0.115 NA
ATOM     28  N   UNL     1      -6.081  -5.832   2.823  0.00  0.00    -0.023 NA
ATOM     29  N   UNL     1      -6.844  -5.168   3.624  0.00  0.00    -0.039 NA
ATOM     30  N   UNL     1      -6.015  -4.654   4.636  0.00  0.00    -0.199 N 
BRANCH  30  31
ATOM     31  C   UNL     1      -6.398  -3.870   5.735  0.00  0.00    +0.072 A 
ATOM     32  C   UNL     1      -5.630  -2.776   6.109  0.00  0.00    +0.031 A 
ATOM     33  C   UNL     1      -6.008  -2.004   7.191  0.00  0.00    +0.043 A 
ATOM     34  C   UNL     1      -7.152  -2.321   7.903  0.00  0.00    +0.159 A 
ATOM     35  C   UNL     1      -7.921  -3.414   7.531  0.00  0.00    +0.160 A 
ATOM     36  C   UNL     1      -7.548  -4.184   6.445  0.00  0.00    +0.069 A 
ATOM     37  F   UNL     1      -9.037  -3.722   8.227  0.00  0.00    -0.202 F 
ATOM     38  F   UNL     1      -7.519  -1.566   8.961  0.00  0.00    -0.202 F 
ENDBRANCH  30  31
ENDBRANCH  25  26
ENDBRANCH  10  25
TORSDOF 6
