REMARK  Name = ZINC65314416
REMARK  7 active torsions:
REMARK  status: ('A' for Active; 'I' for Inactive)
REMARK    1  A    between atoms: C_4  and  C_7
REMARK    2  A    between atoms: C_7  and  N_8
REMARK    3  A    between atoms: C_11  and  N_14
REMARK    4  A    between atoms: C_15  and  C_17
REMARK    5  A    between atoms: C_17  and  C_18
REMARK    6  A    between atoms: C_18  and  C_19
REMARK    7  A    between atoms: C_19  and  N_21
REMARK                            x       y       z     vdW  Elec       q    Type
REMARK                         _______ _______ _______ _____ _____    ______ ____
ROOT
ATOM      1  N   UNL     1       5.449  -2.776   4.914  0.00  0.00    -0.313 N 
ATOM      2  C   UNL     1       6.370  -3.698   5.258  0.00  0.00    +0.214 C 
ATOM      3  O   UNL     1       6.842  -4.429   4.414  0.00  0.00    -0.276 OA
ATOM      4  H   UNL     1       5.071  -2.192   5.589  0.00  0.00    +0.149 HD
ENDROOT
BRANCH   1   8
ATOM      5  N   UNL     1       4.153  -0.953   1.342  0.00  0.00    +0.382 N 
ATOM      6  C   UNL     1       3.203  -1.854   2.005  0.00  0.00    -0.077 C 
ATOM      7  C   UNL     1       3.614  -2.050   3.466  0.00  0.00    +0.003 C 
ATOM      8  C   UNL     1       5.019  -2.657   3.518  0.00  0.00    +0.069 C 
ATOM      9  C   UNL     1       5.987  -1.746   2.760  0.00  0.00    +0.003 C 
ATOM     10  C   UNL     1       5.489  -1.562   1.325  0.00  0.00    -0.077 C 
ATOM     11  H   UNL     1       4.190  -0.078   1.843  0.00  0.00    -0.081 HD
BRANCH   5  12
ATOM     12  C   UNL     1       3.711  -0.707  -0.038  0.00  0.00    -0.043 C 
BRANCH  12  16
ATOM     13  C   UNL     1      -0.017   1.378   0.010  0.00  0.00    +0.000 A 
ATOM     14  C   UNL     1       1.171   2.086   0.002  0.00  0.00    +0.000 A 
ATOM     15  C   UNL     1       2.377   1.411  -0.013  0.00  0.00    +0.002 A 
ATOM     16  C   UNL     1       2.396   0.029  -0.020  0.00  0.00    -0.064 A 
ATOM     17  C   UNL     1       1.208  -0.679  -0.012  0.00  0.00    +0.002 A 
ATOM     18  C   UNL     1       0.002  -0.004   0.002  0.00  0.00    +0.000 A 
ENDBRANCH  12  16
ENDBRANCH   5  12
ENDBRANCH   1   8
BRANCH   2  19
ATOM     19  C   UNL     1       6.813  -3.821   6.694  0.00  0.00    +0.105 C 
BRANCH  19  20
ATOM     20  C   UNL     1       7.856  -4.934   6.812  0.00  0.00    +0.107 C 
BRANCH  20  21
ATOM     21  C   UNL     1       8.299  -5.056   8.248  0.00  0.00    +0.240 C 
ATOM     22  O   UNL     1       7.825  -4.323   9.095  0.00  0.00    -0.274 OA
BRANCH  21  23
ATOM     23  N   UNL     1       9.204  -5.963   8.587  0.00  0.00    -0.145 NA
ATOM     24  C   UNL     1       9.597  -6.072   9.860  0.00  0.00    +0.222 A 
ATOM     25  N   UNL     1       9.153  -5.332  10.894  0.00  0.00    -0.246 N 
ATOM     26  N   UNL     1       9.820  -5.769  12.047  0.00  0.00    -0.153 NA
ATOM     27  C   UNL     1      10.637  -6.739  11.704  0.00  0.00    +0.160 A 
ATOM     28  N   UNL     1      10.515  -6.954  10.346  0.00  0.00    -0.271 N 
ATOM     29  C   UNL     1      11.263  -7.928   9.734  0.00  0.00    +0.096 A 
ATOM     30  C   UNL     1      12.118  -8.686  10.445  0.00  0.00    +0.018 A 
ATOM     31  C   UNL     1      12.262  -8.492  11.834  0.00  0.00    +0.005 A 
ATOM     32  C   UNL     1      11.540  -7.530  12.459  0.00  0.00    +0.048 A 
ATOM     33  H   UNL     1       8.491  -4.625  10.850  0.00  0.00    +0.192 HD
ENDBRANCH  21  23
ENDBRANCH  20  21
ENDBRANCH  19  20
ENDBRANCH   2  19
TORSDOF 7
