REMARK  Name = ZINC39675325
REMARK  9 active torsions:
REMARK  status: ('A' for Active; 'I' for Inactive)
REMARK    1  A    between atoms: C_1  and  C_2
REMARK    2  A    between atoms: C_2  and  C_4
REMARK    3  A    between atoms: C_2  and  N_14
REMARK    4  A    between atoms: C_4  and  C_5
REMARK    5  A    between atoms: C_5  and  C_6
REMARK    6  A    between atoms: C_9  and  O_12
REMARK    7  A    between atoms: O_12  and  C_13
REMARK    8  A    between atoms: C_15  and  C_17
REMARK    9  A    between atoms: C_28  and  C_30
REMARK                            x       y       z     vdW  Elec       q    Type
REMARK                         _______ _______ _______ _____ _____    ______ ____
ROOT
ATOM      1  C   UNL     1       0.146  -1.011  -3.320  0.00  0.00    +0.100 C 
ATOM      2  C   UNL     1       0.980  -2.298  -3.133  0.00  0.00    +0.121 C 
ATOM      3  N   UNL     1       0.160  -3.369  -3.748  0.00  0.00    -0.296 N 
ATOM      4  C   UNL     1      -0.417  -2.740  -4.960  0.00  0.00    +0.115 C 
ATOM      5  C   UNL     1      -0.768  -1.304  -4.522  0.00  0.00    -0.004 C 
ATOM      6  C   UNL     1      -2.233  -1.224  -4.104  0.00  0.00    -0.010 C 
ATOM      7  C   UNL     1      -3.122  -1.462  -5.328  0.00  0.00    -0.082 C 
ATOM      8  N   UNL     1      -2.828  -0.453  -6.353  0.00  0.00    +0.379 N 
ATOM      9  C   UNL     1      -1.442  -0.598  -6.816  0.00  0.00    -0.082 C 
ATOM     10  C   UNL     1      -0.483  -0.323  -5.655  0.00  0.00    -0.010 C 
ATOM     11  C   UNL     1      -0.019  -4.629  -3.305  0.00  0.00    +0.248 C 
ATOM     12  O   UNL     1      -0.649  -5.424  -3.975  0.00  0.00    -0.270 OA
ATOM     13  H   UNL     1      -3.456  -0.575  -7.133  0.00  0.00    -0.086 HD
ATOM     14  H   UNL     1      -2.956   0.468  -5.962  0.00  0.00    -0.086 HD
ENDROOT
BRANCH  11  15
ATOM     15  C   UNL     1       0.549  -5.044  -2.006  0.00  0.00    +0.057 A 
ATOM     16  C   UNL     1       1.780  -4.536  -1.585  0.00  0.00    +0.014 A 
ATOM     17  C   UNL     1       2.305  -4.927  -0.371  0.00  0.00    +0.002 A 
ATOM     18  C   UNL     1       1.617  -5.821   0.431  0.00  0.00    +0.021 A 
ATOM     19  C   UNL     1       0.397  -6.329   0.021  0.00  0.00    +0.060 A 
ATOM     20  C   UNL     1      -0.145  -5.941  -1.190  0.00  0.00    +0.071 A 
ATOM     21 CL   UNL     1      -1.679  -6.572  -1.700  0.00  0.00    -0.081 Cl
ATOM     22 CL   UNL     1      -0.459  -7.450   1.034  0.00  0.00    -0.082 Cl
ENDBRANCH  11  15
BRANCH   1  24
ATOM     23  N   UNL     1      -1.031   0.528  -1.782  0.00  0.00    -0.312 N 
ATOM     24  C   UNL     1      -0.679  -0.737  -2.089  0.00  0.00    +0.218 C 
ATOM     25  O   UNL     1      -1.026  -1.653  -1.375  0.00  0.00    -0.275 OA
ATOM     26  H   UNL     1      -0.753   1.261  -2.353  0.00  0.00    +0.149 HD
BRANCH  23  28
ATOM     27  C   UNL     1      -3.316   0.618  -0.915  0.00  0.00    +0.028 C 
ATOM     28  C   UNL     1      -1.832   0.794  -0.585  0.00  0.00    +0.070 C 
BRANCH  28  29
ATOM     29  C   UNL     1      -1.582   2.228  -0.112  0.00  0.00    +0.026 C 
BRANCH  29  30
ATOM     30  C   UNL     1      -0.126   2.370   0.336  0.00  0.00    +0.037 C 
BRANCH  30  31
ATOM     31  C   UNL     1       0.121   3.783   0.801  0.00  0.00    -0.047 A 
ATOM     32  C   UNL     1       0.540   4.743  -0.101  0.00  0.00    +0.007 A 
ATOM     33  C   UNL     1       0.767   6.038   0.323  0.00  0.00    +0.046 A 
ATOM     34  C   UNL     1       0.574   6.375   1.655  0.00  0.00    +0.120 A 
ATOM     35  C   UNL     1       0.152   5.409   2.558  0.00  0.00    +0.046 A 
ATOM     36  C   UNL     1      -0.079   4.117   2.128  0.00  0.00    +0.007 A 
BRANCH  34  37
ATOM     37  O   UNL     1       0.797   7.648   2.075  0.00  0.00    -0.495 OA
ATOM     38  C   UNL     1       0.577   7.922   3.459  0.00  0.00    +0.277 C 
ENDBRANCH  34  37
ENDBRANCH  30  31
ENDBRANCH  29  30
ENDBRANCH  28  29
ENDBRANCH  23  28
ENDBRANCH   1  24
TORSDOF 7
