REMARK  Name = ZINC39920862
REMARK  4 active torsions:
REMARK  status: ('A' for Active; 'I' for Inactive)
REMARK    1  A    between atoms: C_4  and  C_7
REMARK    2  A    between atoms: C_7  and  N_8
REMARK    3  A    between atoms: N_8  and  C_9
REMARK    4  A    between atoms: C_10  and  C_23
REMARK                            x       y       z     vdW  Elec       q    Type
REMARK                         _______ _______ _______ _____ _____    ______ ____
ROOT
ATOM      1  C   UNL     1       5.342  -1.618   1.575  0.00  0.00    +0.196 A 
ATOM      2  C   UNL     1       5.855  -1.910   2.816  0.00  0.00    +0.058 A 
ATOM      3  C   UNL     1       7.105  -2.606   2.564  0.00  0.00    +0.115 A 
ATOM      4  C   UNL     1       7.236  -2.670   1.163  0.00  0.00    +0.155 A 
ATOM      5  O   UNL     1       6.176  -2.086   0.624  0.00  0.00    -0.440 OA
ATOM      6  C   UNL     1       8.429  -3.324   0.614  0.00  0.00    +0.060 A 
ATOM      7  C   UNL     1       8.758  -3.264  -0.737  0.00  0.00    +0.015 A 
ATOM      8  C   UNL     1       9.902  -3.887  -1.188  0.00  0.00    +0.001 A 
ATOM      9  C   UNL     1      10.719  -4.568  -0.299  0.00  0.00    +0.004 A 
ATOM     10  C   UNL     1      10.401  -4.640   1.041  0.00  0.00    +0.047 A 
ATOM     11  C   UNL     1       9.250  -4.026   1.521  0.00  0.00    +0.143 A 
ATOM     12  O   UNL     1       8.925  -4.134   2.832  0.00  0.00    -0.422 OA
ATOM     13  C   UNL     1       8.139  -3.191   3.416  0.00  0.00    +0.349 A 
ATOM     14  O   UNL     1       8.286  -2.855   4.576  0.00  0.00    -0.244 OA
ENDROOT
BRANCH   2  15
ATOM     15  C   UNL     1       5.262  -1.585   4.129  0.00  0.00    -0.004 A 
ATOM     16  C   UNL     1       4.402  -2.478   4.750  0.00  0.00    +0.009 A 
ATOM     17  C   UNL     1       3.840  -2.178   5.985  0.00  0.00    +0.001 A 
ATOM     18  C   UNL     1       4.116  -1.004   6.619  0.00  0.00    +0.008 A 
ATOM     19  C   UNL     1       4.982  -0.069   6.026  0.00  0.00    -0.017 A 
ATOM     20  C   UNL     1       5.569  -0.360   4.771  0.00  0.00    -0.010 A 
ATOM     21  C   UNL     1       6.437   0.571   4.183  0.00  0.00    +0.009 A 
ATOM     22  C   UNL     1       6.711   1.740   4.828  0.00  0.00    +0.001 A 
ATOM     23  C   UNL     1       6.139   2.025   6.066  0.00  0.00    +0.001 A 
ATOM     24  C   UNL     1       5.282   1.150   6.660  0.00  0.00    +0.008 A 
ENDBRANCH   2  15
BRANCH   1  25
ATOM     25  N   UNL     1       4.152  -0.952   1.338  0.00  0.00    -0.311 N 
ATOM     26  H   UNL     1       3.610  -0.648   2.082  0.00  0.00    +0.149 HD
BRANCH  25  27
ATOM     27  C   UNL     1       3.711  -0.707  -0.038  0.00  0.00    +0.139 C 
BRANCH  27  31
ATOM     28  C   UNL     1      -0.017   1.378   0.010  0.00  0.00    +0.000 A 
ATOM     29  C   UNL     1       1.171   2.086   0.002  0.00  0.00    +0.000 A 
ATOM     30  C   UNL     1       2.377   1.411  -0.013  0.00  0.00    +0.005 A 
ATOM     31  C   UNL     1       2.396   0.029  -0.020  0.00  0.00    -0.030 A 
ATOM     32  C   UNL     1       1.208  -0.679  -0.012  0.00  0.00    +0.005 A 
ATOM     33  C   UNL     1       0.002  -0.004   0.002  0.00  0.00    +0.000 A 
ENDBRANCH  27  31
ENDBRANCH  25  27
ENDBRANCH   1  25
TORSDOF 4
