REMARK  Name = ZINC01849437
REMARK  6 active torsions:
REMARK  status: ('A' for Active; 'I' for Inactive)
REMARK    1  A    between atoms: C_1  and  O_2
REMARK    2  A    between atoms: O_2  and  C_3
REMARK    3  A    between atoms: C_6  and  N_34
REMARK    4  A    between atoms: C_8  and  N_9
REMARK    5  A    between atoms: C_14  and  C_30
REMARK    6  A    between atoms: C_30  and  C_31
REMARK                            x       y       z     vdW  Elec       q    Type
REMARK                         _______ _______ _______ _____ _____    ______ ____
ROOT
ATOM      1  N   UNL     1       4.707   2.487   1.289  0.00  0.00    -0.206 N 
ATOM      2  C   UNL     1       5.388   1.456   0.776  0.00  0.00    +0.229 C 
ATOM      3  O   UNL     1       6.555   1.479   0.449  0.00  0.00    -0.275 OA
ATOM      4  C   UNL     1       4.474   0.256   0.666  0.00  0.00    +0.074 C 
ATOM      5  C   UNL     1       4.217  -0.056  -0.823  0.00  0.00    -0.049 C 
ATOM      6  C   UNL     1       2.183   0.758  -0.014  0.00  0.00    +0.050 C 
ATOM      7  C   UNL     1       3.116   0.789   1.203  0.00  0.00    +0.088 C 
ATOM      8  C   UNL     1       3.426   2.224   1.568  0.00  0.00    +0.229 C 
ATOM      9  O   UNL     1       2.636   3.012   2.041  0.00  0.00    -0.275 OA
ATOM     10  C   UNL     1       1.314  -0.468  -0.012  0.00  0.00    -0.028 A 
ATOM     11  C   UNL     1       1.581  -1.819  -0.022  0.00  0.00    +0.004 A 
ATOM     12  C   UNL     1       0.540  -2.730  -0.017  0.00  0.00    +0.000 A 
ATOM     13  C   UNL     1      -0.768  -2.281  -0.003  0.00  0.00    +0.002 A 
ATOM     14  C   UNL     1      -1.040  -0.929   0.006  0.00  0.00    +0.023 A 
ATOM     15  C   UNL     1       0.002  -0.004   0.002  0.00  0.00    +0.036 A 
ATOM     16  N   UNL     1      -0.017   1.392   0.010  0.00  0.00    -0.286 N 
ATOM     17  C   UNL     1       1.224   1.917   0.001  0.00  0.00    +0.211 C 
ATOM     18  O   UNL     1       1.512   3.095   0.004  0.00  0.00    -0.277 OA
ATOM     19  H   UNL     1      -0.829   1.923   0.017  0.00  0.00    +0.155 HD
ATOM     20  N   UNL     1       3.065   0.781  -1.167  0.00  0.00    +0.394 N 
ATOM     21  H   UNL     1       2.584   0.401  -1.990  0.00  0.00    -0.083 HD
ATOM     22  H   UNL     1       3.370   1.742  -1.362  0.00  0.00    -0.083 HD
ENDROOT
BRANCH   1  28
ATOM     23  C   UNL     1       5.894   4.023   2.738  0.00  0.00    +0.142 A 
ATOM     24  C   UNL     1       6.468   5.266   2.956  0.00  0.00    +0.050 A 
ATOM     25  C   UNL     1       6.442   6.224   1.960  0.00  0.00    +0.036 A 
ATOM     26  C   UNL     1       5.843   5.946   0.744  0.00  0.00    +0.128 A 
ATOM     27  C   UNL     1       5.272   4.708   0.518  0.00  0.00    +0.060 A 
ATOM     28  C   UNL     1       5.291   3.744   1.514  0.00  0.00    +0.088 A 
BRANCH  26  29
ATOM     29  N   UNL     1       5.817   6.976  -0.318  0.00  0.00    +0.056 N 
ATOM     30  O   UNL     1       6.323   8.067  -0.122  0.00  0.00    -0.126 OA
ATOM     31  O   UNL     1       5.290   6.734  -1.389  0.00  0.00    -0.126 OA
ENDBRANCH  26  29
BRANCH  23  33
ATOM     32  C   UNL     1       6.555   3.437   4.946  0.00  0.00    +0.277 C 
ATOM     33  O   UNL     1       5.919   3.080   3.717  0.00  0.00    -0.493 OA
ENDBRANCH  23  33
ENDBRANCH   1  28
BRANCH   5  34
ATOM     34  C   UNL     1       5.442   0.308  -1.665  0.00  0.00    +0.080 C 
BRANCH  34  35
ATOM     35  C   UNL     1       5.186  -0.049  -3.106  0.00  0.00    +0.209 C 
ATOM     36  O   UNL     1       4.128  -0.546  -3.429  0.00  0.00    -0.276 OA
ATOM     37  N   UNL     1       6.133   0.183  -4.037  0.00  0.00    -0.329 N 
ATOM     38  H   UNL     1       6.979   0.581  -3.779  0.00  0.00    +0.145 HD
ATOM     39  H   UNL     1       5.968  -0.047  -4.964  0.00  0.00    +0.145 HD
ENDBRANCH  34  35
ENDBRANCH   5  34
TORSDOF 5
