REMARK  Name = ZINC01404483
REMARK  6 active torsions:
REMARK  status: ('A' for Active; 'I' for Inactive)
REMARK    1  A    between atoms: C_1  and  N_2
REMARK    2  A    between atoms: C_6  and  C_8
REMARK    3  A    between atoms: C_11  and  C_14
REMARK    4  A    between atoms: C_14  and  N_15
REMARK    5  A    between atoms: N_15  and  C_16
REMARK    6  A    between atoms: C_19  and  C_21
REMARK                            x       y       z     vdW  Elec       q    Type
REMARK                         _______ _______ _______ _____ _____    ______ ____
ROOT
ATOM      1  C   UNL     1      -1.148  -0.562  -0.838  0.00  0.00    +0.150 C 
ENDROOT
BRANCH   1   5
ATOM      2  C   UNL     1       2.156   0.965  -0.373  0.00  0.00    +0.118 C 
ATOM      3  N   UNL     1       1.324   1.884  -0.001  0.00  0.00    -0.086 NA
ATOM      4  O   UNL     1      -0.018   1.438   0.010  0.00  0.00    -0.388 OA
ATOM      5  C   UNL     1       0.002  -0.004   0.002  0.00  0.00    +0.227 C 
ATOM      6  C   UNL     1       1.367  -0.298  -0.664  0.00  0.00    +0.110 C 
BRANCH   2  12
ATOM      7  C   UNL     1       8.577   1.478  -0.951  0.00  0.00    +0.127 C 
ATOM      8  N   UNL     1       7.436   2.313  -0.568  0.00  0.00    -0.325 N 
ATOM      9  C   UNL     1       6.157   1.786  -0.581  0.00  0.00    +0.182 A 
ATOM     10  N   UNL     1       5.751   0.565  -0.904  0.00  0.00    -0.126 NA
ATOM     11  N   UNL     1       4.533   0.236  -0.865  0.00  0.00    -0.138 NA
ATOM     12  C   UNL     1       3.611   1.118  -0.493  0.00  0.00    +0.151 A 
ATOM     13  S   UNL     1       4.644   2.546  -0.187  0.00  0.00    -0.030 S 
ATOM     14  H   UNL     1       7.577   3.236  -0.304  0.00  0.00    +0.148 HD
ENDBRANCH   2  12
ENDBRANCH   1   5
BRANCH   1  15
ATOM     15  N   UNL     1      -2.426  -0.141  -0.258  0.00  0.00    -0.326 N 
ATOM     16  H   UNL     1      -2.438   0.409   0.541  0.00  0.00    +0.148 HD
BRANCH  15  17
ATOM     17  C   UNL     1      -3.622  -0.530  -0.852  0.00  0.00    +0.115 A 
ATOM     18  C   UNL     1      -4.832  -0.131  -0.292  0.00  0.00    +0.079 A 
ATOM     19  C   UNL     1      -6.014  -0.521  -0.897  0.00  0.00    +0.037 A 
ATOM     20  C   UNL     1      -5.945  -1.308  -2.040  0.00  0.00    +0.072 A 
ATOM     21  C   UNL     1      -4.710  -1.671  -2.537  0.00  0.00    +0.096 A 
ATOM     22 CL   UNL     1      -4.859   0.847   1.142  0.00  0.00    -0.080 Cl
ATOM     23  N   UNL     1      -3.529  -1.303  -1.972  0.00  0.00    -0.348 N 
ATOM     24  H   UNL     1      -2.624  -1.588  -2.365  0.00  0.00    +0.167 HD
BRANCH  20  25
ATOM     25  C   UNL     1      -7.206  -1.761  -2.729  0.00  0.00    +0.419 C 
ATOM     26  F   UNL     1      -6.875  -2.535  -3.846  0.00  0.00    -0.166 F 
ATOM     27  F   UNL     1      -7.974  -2.525  -1.843  0.00  0.00    -0.166 F 
ATOM     28  F   UNL     1      -7.941  -0.642  -3.138  0.00  0.00    -0.166 F 
ENDBRANCH  20  25
ENDBRANCH  15  17
ENDBRANCH   1  15
TORSDOF 5
