REMARK  Name = ZINC13551003
REMARK  13 active torsions:
REMARK  status: ('A' for Active; 'I' for Inactive)
REMARK    1  A    between atoms: C_1  and  C_2
REMARK    2  A    between atoms: C_2  and  C_3
REMARK    3  A    between atoms: C_2  and  C_4
REMARK    4  A    between atoms: C_4  and  C_6
REMARK    5  A    between atoms: C_4  and  N_21
REMARK    6  A    between atoms: N_8  and  C_9
REMARK    7  A    between atoms: C_9  and  C_10
REMARK    8  A    between atoms: C_10  and  C_11
REMARK    9  A    between atoms: C_14  and  S_17
REMARK   10  A    between atoms: S_17  and  N_20
REMARK   11  A    between atoms: C_22  and  C_24
REMARK   12  A    between atoms: C_24  and  C_25
REMARK   13  A    between atoms: C_32  and  O_35
REMARK                            x       y       z     vdW  Elec       q    Type
REMARK                         _______ _______ _______ _____ _____    ______ ____
ROOT
ATOM      1  C   UNL     1       0.115   1.064   2.435  0.00  0.00    +0.161 C 
ENDROOT
BRANCH   1   2
ATOM      2  C   UNL     1       0.231  -0.436   2.347  0.00  0.00    +0.234 C 
ATOM      3  O   UNL     1      -0.263  -1.134   3.208  0.00  0.00    -0.274 OA
ATOM      4  N   UNL     1       0.882  -1.002   1.312  0.00  0.00    -0.313 N 
ATOM      5  H   UNL     1       1.213  -0.450   0.587  0.00  0.00    +0.149 HD
BRANCH   4   6
ATOM      6  C   UNL     1       1.091  -2.452   1.282  0.00  0.00    +0.109 C 
BRANCH   6   7
ATOM      7  C   UNL     1       1.850  -2.832   0.010  0.00  0.00    +0.054 C 
BRANCH   7   8
ATOM      8  C   UNL     1       2.064  -4.323  -0.021  0.00  0.00    -0.046 A 
ATOM      9  C   UNL     1       3.204  -4.870   0.539  0.00  0.00    +0.005 A 
ATOM     10  C   UNL     1       3.399  -6.238   0.515  0.00  0.00    +0.029 A 
ATOM     11  C   UNL     1       2.458  -7.059  -0.077  0.00  0.00    +0.105 A 
ATOM     12  C   UNL     1       1.320  -6.513  -0.642  0.00  0.00    +0.029 A 
ATOM     13  C   UNL     1       1.124  -5.145  -0.614  0.00  0.00    +0.005 A 
BRANCH  11  14
ATOM     14  S   UNL     1       2.708  -8.803  -0.112  0.00  0.00    +0.056 S 
ATOM     15  O   UNL     1       3.584  -9.109   0.963  0.00  0.00    -0.153 OA
ATOM     16  O   UNL     1       1.422  -9.395  -0.239  0.00  0.00    -0.153 OA
BRANCH  14  17
ATOM     17  N   UNL     1       3.529  -9.152  -1.507  0.00  0.00    -0.204 NA
ATOM     18  H   UNL     1       3.774  -8.439  -2.117  0.00  0.00    +0.144 HD
ATOM     19  H   UNL     1       3.766 -10.070  -1.714  0.00  0.00    +0.144 HD
ENDBRANCH  14  17
ENDBRANCH  11  14
ENDBRANCH   7   8
ENDBRANCH   6   7
ENDBRANCH   4   6
ENDBRANCH   1   2
BRANCH   1  20
ATOM     20  N   UNL     1      -0.163   1.452   3.820  0.00  0.00    -0.303 N 
ATOM     21  C   UNL     1       0.178   2.680   4.257  0.00  0.00    +0.220 C 
ATOM     22  O   UNL     1       0.715   3.465   3.504  0.00  0.00    -0.275 OA
ATOM     23  H   UNL     1      -0.593   0.825   4.423  0.00  0.00    +0.149 HD
BRANCH  21  24
ATOM     24  C   UNL     1      -0.108   3.079   5.682  0.00  0.00    +0.153 C 
BRANCH  24  25
ATOM     25  C   UNL     1       0.368   4.491   5.913  0.00  0.00    +0.080 A 
ATOM     26  C   UNL     1      -0.493   5.580   5.687  0.00  0.00    +0.011 A 
ATOM     27  C   UNL     1      -1.813   5.424   5.243  0.00  0.00    +0.010 A 
ATOM     28  C   UNL     1      -2.587   6.528   5.045  0.00  0.00    +0.001 A 
ATOM     29  C   UNL     1      -2.088   7.808   5.278  0.00  0.00    +0.001 A 
ATOM     30  C   UNL     1      -0.809   7.995   5.711  0.00  0.00    +0.014 A 
ATOM     31  C   UNL     1       0.015   6.884   5.924  0.00  0.00    +0.047 A 
ATOM     32  C   UNL     1       1.349   6.996   6.370  0.00  0.00    +0.240 A 
ATOM     33  N   UNL     1       2.055   5.895   6.545  0.00  0.00    -0.111 NA
ATOM     34  N   UNL     1       1.590   4.721   6.334  0.00  0.00    -0.150 NA
BRANCH  32  35
ATOM     35  O   UNL     1       1.895   8.212   6.616  0.00  0.00    -0.491 OA
ATOM     36  H   UNL     1       1.777   8.520   7.525  0.00  0.00    +0.294 HD
ENDBRANCH  32  35
ENDBRANCH  24  25
ENDBRANCH  21  24
ENDBRANCH   1  20
BRANCH   1  38
ATOM     37  C   UNL     1      -1.054   3.071   1.513  0.00  0.00    +0.009 C 
ATOM     38  C   UNL     1      -1.026   1.541   1.533  0.00  0.00    +0.012 C 
ATOM     39  C   UNL     1      -2.357   1.013   2.072  0.00  0.00    +0.009 C 
ENDBRANCH   1  38
TORSDOF 11
