REMARK  Name = ZINC56045594
REMARK  6 active torsions:
REMARK  status: ('A' for Active; 'I' for Inactive)
REMARK    1  A    between atoms: C_1  and  C_2
REMARK    2  A    between atoms: C_5  and  C_7
REMARK    3  A    between atoms: C_10  and  C_15
REMARK    4  A    between atoms: C_15  and  O_17
REMARK    5  A    between atoms: O_17  and  C_18
REMARK    6  A    between atoms: C_19  and  C_21
REMARK                            x       y       z     vdW  Elec       q    Type
REMARK                         _______ _______ _______ _____ _____    ______ ____
ROOT
ATOM      1  C   UNL     1       1.096  -3.632   0.019  0.00  0.00    +0.181 C 
ATOM      2  C   UNL     1       1.435  -4.278   1.350  0.00  0.00    +0.062 C 
ATOM      3  C   UNL     1       2.794  -4.543   1.596  0.00  0.00    +0.160 C 
ATOM      4  N   UNL     1       3.706  -4.232   0.692  0.00  0.00    -0.214 NA
ATOM      5  C   UNL     1       3.438  -3.664  -0.486  0.00  0.00    +0.196 C 
ATOM      6  S   UNL     1       4.783  -3.320  -1.571  0.00  0.00    -0.010 SA
ATOM      7  N   UNL     1       2.230  -3.349  -0.877  0.00  0.00    -0.246 NA
ATOM      8  C   UNL     1       0.454  -4.591   2.277  0.00  0.00    +0.200 C 
ATOM      9  O   UNL     1       0.803  -5.032   3.507  0.00  0.00    -0.286 OA
ENDROOT
BRANCH   1  14
ATOM     10  C   UNL     1      -2.398   0.754   0.824  0.00  0.00    +0.051 C 
ATOM     11  C   UNL     1      -1.279  -0.245   0.680  0.00  0.00    -0.013 A 
ATOM     12  C   UNL     1       0.049  -0.075   0.892  0.00  0.00    +0.011 A 
ATOM     13  C   UNL     1       0.902  -1.145   0.696  0.00  0.00    +0.014 A 
ATOM     14  C   UNL     1       0.385  -2.333   0.297  0.00  0.00    +0.019 A 
ATOM     15  S   UNL     1      -1.359  -1.961   0.194  0.00  0.00    -0.096 S 
ENDBRANCH   1  14
BRANCH   8  16
ATOM     16  C   UNL     1      -0.914  -4.448   1.937  0.00  0.00    +0.059 A 
ATOM     17  C   UNL     1      -1.586  -4.891   0.801  0.00  0.00    +0.019 A 
ATOM     18  C   UNL     1      -2.927  -4.599   0.754  0.00  0.00    +0.008 A 
ATOM     19  C   UNL     1      -3.493  -3.920   1.784  0.00  0.00    +0.046 A 
ATOM     20  S   UNL     1      -2.224  -3.661   2.854  0.00  0.00    -0.093 S 
ENDBRANCH   8  16
BRANCH   3  21
ATOM     21  C   UNL     1       3.206  -5.173   2.876  0.00  0.00    +0.358 C 
ATOM     22  O   UNL     1       3.422  -4.482   3.850  0.00  0.00    -0.243 OA
BRANCH  21  23
ATOM     23  O   UNL     1       3.338  -6.510   2.956  0.00  0.00    -0.463 OA
ATOM     24  C   UNL     1       3.737  -7.048   4.218  0.00  0.00    +0.280 C 
ENDBRANCH  21  23
ENDBRANCH   3  21
TORSDOF 4
