REMARK  Name = ZINC03011882
REMARK  4 active torsions:
REMARK  status: ('A' for Active; 'I' for Inactive)
REMARK    1  A    between atoms: C_3  and  N_9
REMARK    2  A    between atoms: C_10  and  C_12
REMARK    3  A    between atoms: C_17  and  C_30
REMARK    4  A    between atoms: C_20  and  C_23
REMARK                            x       y       z     vdW  Elec       q    Type
REMARK                         _______ _______ _______ _____ _____    ______ ____
ROOT
ATOM      1  C   UNL     1       4.834   4.219  -0.236  0.00  0.00    +0.149 A 
ATOM      2  C   UNL     1       4.963   5.623  -0.337  0.00  0.00    +0.078 A 
ATOM      3  C   UNL     1       6.277   5.906  -0.427  0.00  0.00    +0.119 A 
ATOM      4  N   UNL     1       6.970   4.729  -0.389  0.00  0.00    -0.238 N 
ATOM      5  N   UNL     1       6.046   3.692  -0.262  0.00  0.00    -0.164 NA
ATOM      6  C   UNL     1       8.430   4.643  -0.468  0.00  0.00    +0.215 C 
ATOM      7  C   UNL     1       8.973   5.944  -1.068  0.00  0.00    +0.063 C 
ATOM      8  C   UNL     1       8.373   7.148  -0.333  0.00  0.00    +0.104 C 
ATOM      9  N   UNL     1       6.912   7.146  -0.542  0.00  0.00    -0.322 N 
ATOM     10  H   UNL     1       6.422   7.957  -0.748  0.00  0.00    +0.148 HD
ENDROOT
BRANCH   8  11
ATOM     11  C   UNL     1       8.678   7.044   1.139  0.00  0.00    -0.027 A 
ATOM     12  C   UNL     1       7.920   6.215   1.945  0.00  0.00    +0.007 A 
ATOM     13  C   UNL     1       8.199   6.119   3.295  0.00  0.00    +0.020 A 
ATOM     14  C   UNL     1       9.236   6.854   3.841  0.00  0.00    +0.041 A 
ATOM     15  C   UNL     1       9.994   7.685   3.034  0.00  0.00    +0.020 A 
ATOM     16  C   UNL     1       9.718   7.775   1.683  0.00  0.00    +0.007 A 
ATOM     17 CL   UNL     1       9.586   6.735   5.537  0.00  0.00    -0.084 Cl
ENDBRANCH   8  11
BRANCH   1  19
ATOM     18  N   UNL     1       3.583   2.127  -0.021  0.00  0.00    -0.279 N 
ATOM     19  C   UNL     1       3.566   3.471  -0.116  0.00  0.00    +0.268 C 
ATOM     20  O   UNL     1       2.507   4.068  -0.103  0.00  0.00    -0.268 OA
ATOM     21  H   UNL     1       4.429   1.657   0.049  0.00  0.00    +0.155 HD
BRANCH  18  24
ATOM     22  C   UNL     1       0.065   1.242  -0.621  0.00  0.00    +0.003 A 
ATOM     23  C   UNL     1       1.250   1.952  -0.619  0.00  0.00    +0.025 A 
ATOM     24  C   UNL     1       2.382   1.410  -0.024  0.00  0.00    +0.054 A 
ATOM     25  C   UNL     1       2.319   0.154   0.568  0.00  0.00    +0.080 A 
ATOM     26  C   UNL     1       1.129  -0.551   0.562  0.00  0.00    +0.061 A 
ATOM     27  C   UNL     1       0.004  -0.007  -0.032  0.00  0.00    +0.021 A 
ATOM     28 CL   UNL     1       1.048  -2.120   1.300  0.00  0.00    -0.082 Cl
ATOM     29 CL   UNL     1       3.731  -0.528   1.312  0.00  0.00    -0.080 Cl
ENDBRANCH  18  24
ENDBRANCH   1  19
BRANCH   6  30
ATOM     30  C   UNL     1       8.826   3.461  -1.356  0.00  0.00    +0.412 C 
ATOM     31  F   UNL     1       8.301   3.647  -2.640  0.00  0.00    -0.168 F 
ATOM     32  F   UNL     1      10.221   3.381  -1.430  0.00  0.00    -0.168 F 
ATOM     33  F   UNL     1       8.319   2.277  -0.811  0.00  0.00    -0.168 F 
ENDBRANCH   6  30
TORSDOF 4
