REMARK  Name = ZINC36514537
REMARK  17 active torsions:
REMARK  status: ('A' for Active; 'I' for Inactive)
REMARK    1  A    between atoms: C_1  and  C_2
REMARK    2  A    between atoms: C_2  and  C_3
REMARK    3  A    between atoms: C_3  and  C_4
REMARK    4  A    between atoms: C_4  and  C_5
REMARK    5  A    between atoms: C_5  and  C_6
REMARK    6  A    between atoms: C_6  and  N_7
REMARK    7  A    between atoms: N_7  and  C_8
REMARK    8  A    between atoms: C_8  and  C_10
REMARK    9  A    between atoms: C_8  and  C_17
REMARK   10  A    between atoms: C_15  and  O_16
REMARK   11  A    between atoms: N_19  and  C_20
REMARK   12  A    between atoms: C_20  and  C_21
REMARK   13  A    between atoms: C_20  and  C_22
REMARK   14  A    between atoms: C_20  and  C_23
REMARK   15  A    between atoms: C_24  and  C_26
REMARK   16  A    between atoms: C_27  and  O_33
REMARK   17  A    between atoms: C_31  and  O_32
REMARK                            x       y       z     vdW  Elec       q    Type
REMARK                         _______ _______ _______ _____ _____    ______ ____
ROOT
ATOM      1  N   UNL     1       2.344  -4.604   3.576  0.00  0.00    -0.282 N 
ATOM      2  C   UNL     1       3.673  -4.444   3.414  0.00  0.00    +0.255 C 
ATOM      3  O   UNL     1       4.414  -4.498   4.377  0.00  0.00    -0.270 OA
ENDROOT
BRANCH   2   4
ATOM      4  C   UNL     1       4.227  -4.205   2.071  0.00  0.00    +0.119 A 
ATOM      5  C   UNL     1       4.374  -2.895   1.592  0.00  0.00    +0.133 A 
ATOM      6  C   UNL     1       4.897  -2.681   0.327  0.00  0.00    +0.046 A 
ATOM      7  C   UNL     1       5.273  -3.752  -0.462  0.00  0.00    +0.007 A 
ATOM      8  C   UNL     1       5.132  -5.047   0.001  0.00  0.00    +0.046 A 
ATOM      9  C   UNL     1       4.617  -5.284   1.265  0.00  0.00    +0.133 A 
BRANCH   9  10
ATOM     10  O   UNL     1       4.485  -6.555   1.720  0.00  0.00    -0.506 OA
ATOM     11  H   UNL     1       3.633  -6.962   1.509  0.00  0.00    +0.292 HD
ENDBRANCH   9  10
BRANCH   5  12
ATOM     12  O   UNL     1       4.005  -1.842   2.363  0.00  0.00    -0.506 OA
ATOM     13  H   UNL     1       4.712  -1.502   2.929  0.00  0.00    +0.292 HD
ENDBRANCH   5  12
ENDBRANCH   2   4
BRANCH   1  14
ATOM     14  C   UNL     1       1.442  -4.440   2.434  0.00  0.00    +0.109 C 
BRANCH  14  15
ATOM     15  C   UNL     1       1.033  -2.970   2.315  0.00  0.00    +0.019 C 
BRANCH  15  16
ATOM     16  C   UNL     1       0.204  -2.773   1.044  0.00  0.00    +0.002 C 
BRANCH  16  17
ATOM     17  C   UNL     1      -0.205  -1.304   0.925  0.00  0.00    -0.000 C 
BRANCH  17  19
ATOM     18  C   UNL     1      -1.443   0.363  -0.465  0.00  0.00    +0.004 C 
ATOM     19  C   UNL     1      -1.034  -1.106  -0.346  0.00  0.00    -0.003 C 
ENDBRANCH  17  19
ENDBRANCH  16  17
ENDBRANCH  15  16
ENDBRANCH  14  15
ENDBRANCH   1  14
BRANCH   1  20
ATOM     20  C   UNL     1       1.803  -4.943   4.895  0.00  0.00    +0.196 C 
BRANCH  20  21
ATOM     21  C   UNL     1       2.291  -3.942   5.910  0.00  0.00    +0.023 A 
ATOM     22  C   UNL     1       3.391  -4.234   6.695  0.00  0.00    +0.009 A 
ATOM     23  C   UNL     1       3.839  -3.317   7.627  0.00  0.00    +0.001 A 
ATOM     24  C   UNL     1       3.189  -2.105   7.777  0.00  0.00    +0.004 A 
ATOM     25  C   UNL     1       2.089  -1.809   6.995  0.00  0.00    +0.046 A 
ATOM     26  C   UNL     1       1.641  -2.726   6.055  0.00  0.00    +0.122 A 
BRANCH  26  27
ATOM     27  O   UNL     1       0.563  -2.434   5.280  0.00  0.00    -0.506 OA
ATOM     28  H   UNL     1      -0.287  -2.637   5.696  0.00  0.00    +0.292 HD
ENDBRANCH  26  27
ENDBRANCH  20  21
BRANCH  20  29
ATOM     29  C   UNL     1       2.263  -6.323   5.288  0.00  0.00    +0.239 C 
ATOM     30  O   UNL     1       3.073  -6.910   4.602  0.00  0.00    -0.273 OA
ATOM     31  N   UNL     1       1.775  -6.905   6.401  0.00  0.00    -0.309 N 
ATOM     32  H   UNL     1       1.075  -6.466   6.910  0.00  0.00    +0.149 HD
BRANCH  31  33
ATOM     33  C   UNL     1       2.300  -8.199   6.842  0.00  0.00    +0.026 C 
ATOM     34  C   UNL     1       3.800  -8.074   7.118  0.00  0.00    +0.031 C 
ATOM     35  C   UNL     1       1.581  -8.633   8.121  0.00  0.00    +0.031 C 
ATOM     36  C   UNL     1       2.069  -9.243   5.747  0.00  0.00    +0.031 C 
ENDBRANCH  31  33
ENDBRANCH  20  29
ENDBRANCH   1  20
TORSDOF 13
