REMARK  Name = ZINC06859185
REMARK  8 active torsions:
REMARK  status: ('A' for Active; 'I' for Inactive)
REMARK    1  A    between atoms: C_1  and  C_2
REMARK    2  A    between atoms: C_2  and  C_28
REMARK    3  A    between atoms: C_6  and  C_16
REMARK    4  A    between atoms: C_8  and  N_15
REMARK    5  A    between atoms: C_9  and  C_13
REMARK    6  A    between atoms: C_19  and  N_22
REMARK    7  A    between atoms: N_22  and  C_23
REMARK    8  A    between atoms: N_22  and  C_24
REMARK                            x       y       z     vdW  Elec       q    Type
REMARK                         _______ _______ _______ _____ _____    ______ ____
ROOT
ATOM      1  C   UNL     1       3.033   0.080  -1.394  0.00  0.00    +0.011 C 
ATOM      2  C   UNL     1       2.259   0.864  -0.332  0.00  0.00    -0.022 C 
ATOM      3  C   UNL     1       2.869   0.598   1.041  0.00  0.00    +0.063 C 
ATOM      4  C   UNL     1       2.694  -0.841   1.446  0.00  0.00    +0.054 A 
ATOM      5  C   UNL     1       1.683  -1.638   0.895  0.00  0.00    +0.047 A 
ATOM      6  C   UNL     1       1.529  -2.974   1.308  0.00  0.00    +0.006 A 
ATOM      7  C   UNL     1       2.428  -3.494   2.283  0.00  0.00    +0.037 A 
ATOM      8  C   UNL     1       2.470  -4.828   2.857  0.00  0.00    +0.056 A 
ATOM      9  C   UNL     1       3.443  -5.106   3.795  0.00  0.00    +0.123 A 
ATOM     10  S   UNL     1       4.335  -3.570   3.932  0.00  0.00    -0.060 S 
ATOM     11  C   UNL     1       3.414  -2.601   2.761  0.00  0.00    +0.112 A 
ATOM     12  N   UNL     1       3.513  -1.354   2.345  0.00  0.00    -0.244 NA
ATOM     13  C   UNL     1       0.775  -1.083  -0.118  0.00  0.00    +0.166 C 
ATOM     14  O   UNL     1       0.037  -1.801  -0.760  0.00  0.00    -0.292 OA
ATOM     15  C   UNL     1       0.792   0.416  -0.333  0.00  0.00    +0.086 C 
ATOM     16  C   UNL     1       2.337   2.360  -0.645  0.00  0.00    +0.011 C 
ENDROOT
BRANCH   6  17
ATOM     17  C   UNL     1       0.460  -3.820   0.741  0.00  0.00    -0.016 A 
ATOM     18  C   UNL     1      -0.864  -3.643   1.152  0.00  0.00    +0.010 A 
ATOM     19  C   UNL     1      -1.860  -4.430   0.618  0.00  0.00    +0.024 A 
ATOM     20  C   UNL     1      -1.547  -5.408  -0.321  0.00  0.00    +0.029 A 
ATOM     21  C   UNL     1      -0.229  -5.590  -0.728  0.00  0.00    +0.024 A 
ATOM     22  C   UNL     1       0.770  -4.803  -0.202  0.00  0.00    +0.010 A 
BRANCH  20  23
ATOM     23  N   UNL     1      -2.556  -6.206  -0.855  0.00  0.00    -0.336 N 
ATOM     24  C   UNL     1      -2.216  -7.313  -1.753  0.00  0.00    +0.129 C 
ATOM     25  C   UNL     1      -3.957  -5.938  -0.519  0.00  0.00    +0.129 C 
ENDBRANCH  20  23
ENDBRANCH   6  17
BRANCH   9  26
ATOM     26  C   UNL     1       3.675  -6.319   4.484  0.00  0.00    +0.395 C 
ATOM     27  O   UNL     1       2.966  -7.285   4.272  0.00  0.00    -0.240 OA
ATOM     28  O   UNL     1       4.685  -6.406   5.376  0.00  0.00    -0.240 OA
ENDBRANCH   9  26
BRANCH   8  29
ATOM     29  N   UNL     1       1.555  -5.796   2.473  0.00  0.00    -0.356 N 
ATOM     30  H   UNL     1       0.805  -5.557   1.906  0.00  0.00    +0.142 HD
ATOM     31  H   UNL     1       1.665  -6.713   2.770  0.00  0.00    +0.142 HD
ENDBRANCH   8  29
TORSDOF 4
