REMARK  Name = ZINC03190393
REMARK  4 active torsions:
REMARK  status: ('A' for Active; 'I' for Inactive)
REMARK    1  A    between atoms: C_8  and  N_9
REMARK    2  A    between atoms: N_9  and  N_10
REMARK    3  A    between atoms: N_23  and  C_26
REMARK    4  A    between atoms: C_31  and  C_32
REMARK                            x       y       z     vdW  Elec       q    Type
REMARK                         _______ _______ _______ _____ _____    ______ ____
ROOT
ATOM      1  C   UNL     1       1.364   3.704  -0.587  0.00  0.00    +0.001 A 
ATOM      2  C   UNL     1       1.523   2.357  -0.879  0.00  0.00    +0.001 A 
ATOM      3  C   UNL     1       0.430   1.522  -0.969  0.00  0.00    +0.014 A 
ATOM      4  C   UNL     1      -0.851   2.037  -0.770  0.00  0.00    +0.046 A 
ATOM      5  C   UNL     1      -1.009   3.406  -0.468  0.00  0.00    +0.000 A 
ATOM      6  C   UNL     1       0.105   4.232  -0.382  0.00  0.00    +0.009 A 
ATOM      7  C   UNL     1      -2.378   3.921  -0.257  0.00  0.00    +0.061 C 
ATOM      8  C   UNL     1      -2.597   5.237   0.033  0.00  0.00    +0.105 C 
ATOM      9  C   UNL     1      -3.496   2.974  -0.367  0.00  0.00    +0.259 C 
ATOM     10  O   UNL     1      -4.636   3.365  -0.199  0.00  0.00    -0.269 OA
ATOM     11  N   UNL     1      -3.272   1.681  -0.652  0.00  0.00    -0.202 N 
ATOM     12  C   UNL     1      -2.041   1.180  -0.850  0.00  0.00    +0.258 C 
ATOM     13  O   UNL     1      -1.911  -0.002  -1.104  0.00  0.00    -0.269 OA
ENDROOT
BRANCH  11  14
ATOM     14  C   UNL     1      -4.370   0.815  -0.747  0.00  0.00    +0.056 A 
ATOM     15  C   UNL     1      -5.005   0.629  -1.968  0.00  0.00    +0.024 A 
ATOM     16  C   UNL     1      -6.087  -0.225  -2.058  0.00  0.00    +0.002 A 
ATOM     17  C   UNL     1      -6.537  -0.894  -0.935  0.00  0.00    +0.001 A 
ATOM     18  C   UNL     1      -5.907  -0.710   0.282  0.00  0.00    +0.014 A 
ATOM     19  C   UNL     1      -4.821   0.139   0.378  0.00  0.00    +0.077 A 
BRANCH  19  20
ATOM     20  C   UNL     1      -4.131   0.334   1.703  0.00  0.00    +0.419 C 
ATOM     21  F   UNL     1      -4.762  -0.448   2.677  0.00  0.00    -0.166 F 
ATOM     22  F   UNL     1      -2.791  -0.052   1.592  0.00  0.00    -0.166 F 
ATOM     23  F   UNL     1      -4.200   1.682   2.070  0.00  0.00    -0.166 F 
ENDBRANCH  19  20
ENDBRANCH  11  14
BRANCH   8  24
ATOM     24  N   UNL     1      -1.634   5.966   0.667  0.00  0.00    -0.244 N 
ATOM     25  H   UNL     1      -0.735   5.467   1.057  0.00  0.00    +0.174 HD
BRANCH  24  26
ATOM     26  N   UNL     1      -1.791   7.349   0.823  0.00  0.00    -0.177 NA
ATOM     27  C   UNL     1      -0.840   8.059   1.383  0.00  0.00    +0.152 C 
ATOM     28  C   UNL     1       0.379   7.558   2.060  0.00  0.00    +0.028 A 
ATOM     29  C   UNL     1       0.883   6.283   2.295  0.00  0.00    +0.012 A 
ATOM     30  C   UNL     1       2.080   6.133   2.964  0.00  0.00    +0.001 A 
ATOM     31  C   UNL     1       2.779   7.248   3.396  0.00  0.00    +0.002 A 
ATOM     32  C   UNL     1       2.290   8.517   3.164  0.00  0.00    +0.024 A 
ATOM     33  C   UNL     1       1.085   8.689   2.490  0.00  0.00    +0.043 A 
ATOM     34  N   UNL     1       0.382   9.834   2.133  0.00  0.00    -0.280 N 
ATOM     35  C   UNL     1      -0.754   9.529   1.482  0.00  0.00    +0.269 C 
ATOM     36  O   UNL     1      -1.568  10.324   1.051  0.00  0.00    -0.268 OA
ATOM     37  H   UNL     1       0.779  10.826   2.391  0.00  0.00    +0.155 HD
ENDBRANCH  24  26
ENDBRANCH   8  24
TORSDOF 4
