REMARK  Name = ZINC39683965
REMARK  9 active torsions:
REMARK  status: ('A' for Active; 'I' for Inactive)
REMARK    1  A    between atoms: C_1  and  C_2
REMARK    2  A    between atoms: C_2  and  N_3
REMARK    3  A    between atoms: C_4  and  C_10
REMARK    4  A    between atoms: C_6  and  C_8
REMARK    5  A    between atoms: C_14  and  C_23
REMARK    6  A    between atoms: N_25  and  C_26
REMARK    7  A    between atoms: C_26  and  C_28
REMARK    8  A    between atoms: C_26  and  C_29
REMARK    9  A    between atoms: N_31  and  C_32
REMARK                            x       y       z     vdW  Elec       q    Type
REMARK                         _______ _______ _______ _____ _____    ______ ____
ROOT
ATOM      1  C   UNL     1      -1.787  -0.488   2.701  0.00  0.00    +0.266 C 
ATOM      2  O   UNL     1      -2.573  -0.829   3.564  0.00  0.00    -0.268 OA
ATOM      3  N   UNL     1      -0.618   0.089   3.043  0.00  0.00    -0.295 N 
ATOM      4  C   UNL     1       0.499   0.475   2.150  0.00  0.00    +0.121 C 
ATOM      5  C   UNL     1       0.999   1.825   2.712  0.00  0.00    +0.100 C 
ATOM      6  C   UNL     1       0.565   1.821   4.187  0.00  0.00    -0.004 C 
ATOM      7  C   UNL     1      -0.163   0.485   4.397  0.00  0.00    +0.115 C 
ATOM      8  C   UNL     1      -0.387   2.982   4.461  0.00  0.00    -0.010 C 
ATOM      9  C   UNL     1      -0.760   2.990   5.947  0.00  0.00    -0.082 C 
ATOM     10  N   UNL     1       0.457   3.126   6.757  0.00  0.00    +0.379 N 
ATOM     11  C   UNL     1       1.325   1.960   6.558  0.00  0.00    -0.082 C 
ATOM     12  C   UNL     1       1.786   1.908   5.098  0.00  0.00    -0.010 C 
ATOM     13  H   UNL     1       0.950   3.962   6.482  0.00  0.00    -0.086 HD
ATOM     14  H   UNL     1       0.204   3.193   7.732  0.00  0.00    -0.086 HD
ENDROOT
BRANCH   1  16
ATOM     15  N   UNL     1      -2.616   0.217   0.407  0.00  0.00    -0.258 N 
ATOM     16  C   UNL     1      -2.113  -0.704   1.283  0.00  0.00    +0.138 A 
ATOM     17  C   UNL     1      -1.972  -1.881   0.567  0.00  0.00    +0.071 A 
ATOM     18  C   UNL     1      -2.411  -1.583  -0.726  0.00  0.00    +0.075 A 
ATOM     19  N   UNL     1      -2.780  -0.328  -0.745  0.00  0.00    -0.175 NA
ATOM     20  C   UNL     1      -2.456  -2.538  -1.890  0.00  0.00    +0.069 C 
ATOM     21 BR   UNL     1      -1.323  -3.539   1.204  0.00  0.00    -0.046 Br
BRANCH  15  23
ATOM     22  C   UNL     1      -4.335   1.695   1.325  0.00  0.00    +0.029 C 
ATOM     23  C   UNL     1      -2.927   1.611   0.733  0.00  0.00    +0.141 C 
ENDBRANCH  15  23
ENDBRANCH   1  16
BRANCH   5  24
ATOM     24  C   UNL     1       2.499   1.916   2.604  0.00  0.00    +0.219 C 
ATOM     25  O   UNL     1       3.168   0.904   2.591  0.00  0.00    -0.275 OA
ATOM     26  N   UNL     1       3.098   3.121   2.523  0.00  0.00    -0.304 N 
ATOM     27  H   UNL     1       2.571   3.931   2.609  0.00  0.00    +0.149 HD
BRANCH  26  28
ATOM     28  C   UNL     1       4.544   3.207   2.303  0.00  0.00    +0.156 C 
ATOM     29  C   UNL     1       4.838   3.123   0.804  0.00  0.00    +0.038 C 
BRANCH  28  30
ATOM     30  C   UNL     1       5.056   4.517   2.842  0.00  0.00    +0.233 C 
ATOM     31  O   UNL     1       4.289   5.302   3.359  0.00  0.00    -0.274 OA
ATOM     32  N   UNL     1       6.367   4.818   2.750  0.00  0.00    -0.317 N 
ATOM     33  C   UNL     1       6.865   6.091   3.275  0.00  0.00    +0.128 C 
ATOM     34  H   UNL     1       6.980   4.190   2.337  0.00  0.00    +0.148 HD
ENDBRANCH  28  30
ENDBRANCH  26  28
ENDBRANCH   5  24
TORSDOF 5
