REMARK  Name = ZINC20572187
REMARK  12 active torsions:
REMARK  status: ('A' for Active; 'I' for Inactive)
REMARK    1  A    between atoms: C_1  and  C_2
REMARK    2  A    between atoms: C_9  and  N_13
REMARK    3  A    between atoms: C_10  and  C_11
REMARK    4  A    between atoms: C_14  and  C_16
REMARK    5  A    between atoms: C_16  and  C_17
REMARK    6  A    between atoms: C_17  and  S_18
REMARK    7  A    between atoms: S_18  and  C_19
REMARK    8  A    between atoms: C_19  and  C_20
REMARK    9  A    between atoms: C_20  and  C_21
REMARK   10  A    between atoms: N_23  and  C_24
REMARK   11  A    between atoms: C_25  and  C_35
REMARK   12  A    between atoms: C_30  and  C_34
REMARK                            x       y       z     vdW  Elec       q    Type
REMARK                         _______ _______ _______ _____ _____    ______ ____
ROOT
ATOM      1  S   UNL     1       4.802   7.453  -0.003  0.00  0.00    -0.160 S 
ENDROOT
BRANCH   1   2
ATOM      2  C   UNL     1       4.485   5.667  -0.010  0.00  0.00    +0.078 C 
BRANCH   2   3
ATOM      3  C   UNL     1       2.976   5.417   0.004  0.00  0.00    +0.107 C 
BRANCH   3   5
ATOM      4  N   UNL     1       1.446   3.473   0.007  0.00  0.00    -0.279 N 
ATOM      5  C   UNL     1       2.712   3.933  -0.002  0.00  0.00    +0.218 C 
ATOM      6  O   UNL     1       3.641   3.152  -0.016  0.00  0.00    -0.275 OA
ATOM      7  H   UNL     1       0.604   4.181   0.020  0.00  0.00    +0.155 HD
BRANCH   4  15
ATOM      8  C   UNL     1       0.500  -4.293  -0.121  0.00  0.00    +0.008 C 
ATOM      9  C   UNL     1       0.290  -2.802  -0.395  0.00  0.00    -0.009 C 
ATOM     10  C   UNL     1      -0.872  -2.283   0.456  0.00  0.00    +0.008 C 
ATOM     11  C   UNL     1      -1.252  -0.869   0.010  0.00  0.00    +0.037 C 
ATOM     12  C   UNL     1       0.002  -0.004   0.002  0.00  0.00    -0.018 A 
ATOM     13  C   UNL     1       1.233  -0.563  -0.013  0.00  0.00    -0.004 A 
ATOM     14  S   UNL     1       2.352   0.809  -0.016  0.00  0.00    -0.077 S 
ATOM     15  C   UNL     1       1.203   2.107   0.002  0.00  0.00    +0.090 A 
ATOM     16  C   UNL     1      -0.018   1.448   0.010  0.00  0.00    +0.084 A 
ATOM     17  C   UNL     1       1.561  -2.023  -0.025  0.00  0.00    +0.046 C 
BRANCH  16  18
ATOM     18  C   UNL     1      -1.252   2.174   0.020  0.00  0.00    +0.102 C 
ATOM     19  N   UNL     1      -2.232   2.749   0.028  0.00  0.00    -0.191 NA
ENDBRANCH  16  18
ENDBRANCH   4  15
ENDBRANCH   3   5
ENDBRANCH   2   3
ENDBRANCH   1   2
BRANCH   1  20
ATOM     20  C   UNL     1       6.612   7.577  -0.019  0.00  0.00    +0.078 C 
BRANCH  20  21
ATOM     21  C   UNL     1       7.022   9.051  -0.015  0.00  0.00    +0.107 C 
BRANCH  21  22
ATOM     22  C   UNL     1       8.525   9.155  -0.029  0.00  0.00    +0.218 C 
ATOM     23  O   UNL     1       9.202   8.148  -0.041  0.00  0.00    -0.275 OA
ATOM     24  N   UNL     1       9.117  10.365  -0.028  0.00  0.00    -0.279 N 
ATOM     25  H   UNL     1       8.504  11.278  -0.017  0.00  0.00    +0.155 HD
BRANCH  24  26
ATOM     26  C   UNL     1      10.502  10.461  -0.041  0.00  0.00    +0.090 A 
ATOM     27  C   UNL     1      11.287  11.604  -0.042  0.00  0.00    +0.084 A 
ATOM     28  C   UNL     1      12.729  11.429  -0.057  0.00  0.00    -0.018 A 
ATOM     29  C   UNL     1      13.153  10.146  -0.067  0.00  0.00    -0.004 A 
ATOM     30  S   UNL     1      11.669   9.180  -0.052  0.00  0.00    -0.077 S 
ATOM     31  C   UNL     1      14.570   9.663  -0.083  0.00  0.00    +0.046 C 
ATOM     32  C   UNL     1      15.486  10.838   0.292  0.00  0.00    -0.009 C 
ATOM     33  C   UNL     1      15.081  12.062  -0.534  0.00  0.00    +0.008 C 
ATOM     34  C   UNL     1      13.723  12.584  -0.061  0.00  0.00    +0.037 C 
ATOM     35  C   UNL     1      16.941  10.474  -0.008  0.00  0.00    +0.008 C 
BRANCH  27  36
ATOM     36  C   UNL     1      10.698  12.909  -0.029  0.00  0.00    +0.102 C 
ATOM     37  N   UNL     1      10.230  13.944  -0.020  0.00  0.00    -0.191 NA
ENDBRANCH  27  36
ENDBRANCH  24  26
ENDBRANCH  21  22
ENDBRANCH  20  21
ENDBRANCH   1  20
TORSDOF 10
