REMARK  Name = ZINC39546050
REMARK  11 active torsions:
REMARK  status: ('A' for Active; 'I' for Inactive)
REMARK    1  A    between atoms: C_1  and  C_2
REMARK    2  A    between atoms: C_2  and  C_3
REMARK    3  A    between atoms: C_2  and  S_4
REMARK    4  A    between atoms: S_4  and  N_7
REMARK    5  A    between atoms: N_7  and  S_31
REMARK    6  A    between atoms: C_8  and  C_10
REMARK    7  A    between atoms: C_13  and  C_24
REMARK    8  A    between atoms: C_24  and  C_25
REMARK    9  A    between atoms: S_31  and  C_34
REMARK   10  A    between atoms: C_34  and  C_35
REMARK   11  A    between atoms: C_34  and  C_36
REMARK                            x       y       z     vdW  Elec       q    Type
REMARK                         _______ _______ _______ _____ _____    ______ ____
ROOT
ATOM      1  C   UNL     1      -2.575  -0.798  -3.213  0.00  0.00    +0.152 C 
ATOM      2  C   UNL     1      -1.508   0.161  -3.776  0.00  0.00    +0.064 C 
ATOM      3  C   UNL     1      -0.822  -0.644  -4.856  0.00  0.00    -0.029 C 
ATOM      4  C   UNL     1      -1.359  -1.835  -4.919  0.00  0.00    +0.074 C 
ATOM      5  N   UNL     1      -1.010  -2.853  -5.826  0.00  0.00    -0.304 N 
ATOM      6  C   UNL     1      -2.087  -3.633  -6.281  0.00  0.00    +0.037 A 
ATOM      7  C   UNL     1      -1.879  -4.589  -7.265  0.00  0.00    +0.023 A 
ATOM      8  C   UNL     1      -2.936  -5.362  -7.705  0.00  0.00    +0.002 A 
ATOM      9  C   UNL     1      -4.195  -5.178  -7.164  0.00  0.00    +0.000 A 
ATOM     10  C   UNL     1      -4.404  -4.223  -6.188  0.00  0.00    +0.007 A 
ATOM     11  C   UNL     1      -3.352  -3.439  -5.743  0.00  0.00    -0.010 A 
ATOM     12  C   UNL     1      -3.615  -2.389  -4.696  0.00  0.00    +0.124 C 
ATOM     13  N   UNL     1      -2.385  -2.039  -3.982  0.00  0.00    -0.370 NA
ATOM     14  H   UNL     1      -0.097  -3.005  -6.115  0.00  0.00    +0.153 HD
ATOM     15  H   UNL     1      -2.133  -2.790  -3.358  0.00  0.00    +0.128 HD
ENDROOT
BRANCH   1  17
ATOM     16  N   UNL     1      -2.974  -0.291  -0.825  0.00  0.00    -0.041 N 
ATOM     17  C   UNL     1      -2.341  -1.046  -1.745  0.00  0.00    +0.274 C 
ATOM     18  O   UNL     1      -1.583  -1.924  -1.391  0.00  0.00    -0.270 OA
BRANCH  16  19
ATOM     19  S   UNL     1      -2.835  -0.657   0.784  0.00  0.00    +0.068 S 
ATOM     20  O   UNL     1      -2.506  -2.039   0.814  0.00  0.00    -0.153 OA
ATOM     21  O   UNL     1      -4.042  -0.187   1.368  0.00  0.00    -0.153 OA
BRANCH  19  23
ATOM     22  C   UNL     1      -1.738   1.819   1.170  0.00  0.00    +0.033 C 
ATOM     23  C   UNL     1      -1.431   0.333   1.367  0.00  0.00    +0.147 C 
ATOM     24  C   UNL     1      -1.193   0.054   2.853  0.00  0.00    +0.033 C 
ENDBRANCH  19  23
ENDBRANCH  16  19
BRANCH  16  25
ATOM     25  S   UNL     1      -3.891   1.002  -1.304  0.00  0.00    +0.068 S 
ATOM     26  O   UNL     1      -4.031   1.800  -0.136  0.00  0.00    -0.153 OA
ATOM     27  O   UNL     1      -3.229   1.511  -2.454  0.00  0.00    -0.153 OA
BRANCH  25  28
ATOM     28  C   UNL     1      -5.493   0.290  -1.770  0.00  0.00    +0.147 C 
ATOM     29  C   UNL     1      -6.076  -0.476  -0.581  0.00  0.00    +0.033 C 
ATOM     30  C   UNL     1      -6.452   1.413  -2.173  0.00  0.00    +0.033 C 
ENDBRANCH  25  28
ENDBRANCH  16  25
ENDBRANCH   1  17
BRANCH   3  31
ATOM     31  C   UNL     1       0.305  -0.150  -5.726  0.00  0.00    +0.069 C 
BRANCH  31  32
ATOM     32  C   UNL     1      -0.262   0.597  -6.906  0.00  0.00    -0.043 A 
ATOM     33  C   UNL     1      -0.565  -0.080  -8.073  0.00  0.00    +0.004 A 
ATOM     34  C   UNL     1      -1.084   0.605  -9.155  0.00  0.00    +0.000 A 
ATOM     35  C   UNL     1      -1.302   1.967  -9.071  0.00  0.00    +0.000 A 
ATOM     36  C   UNL     1      -1.000   2.645  -7.904  0.00  0.00    +0.000 A 
ATOM     37  C   UNL     1      -0.484   1.959  -6.820  0.00  0.00    +0.004 A 
ENDBRANCH  31  32
ENDBRANCH   3  31
TORSDOF 7
