REMARK  Name = ZINC39361520
REMARK  8 active torsions:
REMARK  status: ('A' for Active; 'I' for Inactive)
REMARK    1  A    between atoms: C_1  and  C_2
REMARK    2  A    between atoms: C_7  and  N_8
REMARK    3  A    between atoms: C_9  and  C_11
REMARK    4  A    between atoms: C_11  and  S_12
REMARK    5  A    between atoms: S_12  and  C_13
REMARK    6  A    between atoms: C_16  and  C_25
REMARK    7  A    between atoms: N_18  and  C_19
REMARK    8  A    between atoms: C_25  and  C_26
REMARK                            x       y       z     vdW  Elec       q    Type
REMARK                         _______ _______ _______ _____ _____    ______ ____
ROOT
ATOM      1  C   UNL     1      -0.371  -0.118   7.688  0.00  0.00    +0.180 C 
ATOM      2  N   UNL     1      -0.395   1.172   7.661  0.00  0.00    -0.162 NA
ATOM      3  N   UNL     1      -0.518   1.710   8.948  0.00  0.00    -0.246 N 
ATOM      4  C   UNL     1      -0.574   0.561   9.869  0.00  0.00    +0.187 C 
ATOM      5  N   UNL     1      -0.478  -0.610   8.981  0.00  0.00    -0.258 N 
ATOM      6  H   UNL     1      -0.558   2.649   9.185  0.00  0.00    +0.170 HD
ENDROOT
BRANCH   5   7
ATOM      7  C   UNL     1      -0.490  -1.953   9.366  0.00  0.00    +0.037 A 
ATOM      8  C   UNL     1       0.427  -2.418  10.299  0.00  0.00    +0.023 A 
ATOM      9  C   UNL     1       0.412  -3.747  10.677  0.00  0.00    +0.002 A 
ATOM     10  C   UNL     1      -0.515  -4.613  10.128  0.00  0.00    +0.000 A 
ATOM     11  C   UNL     1      -1.431  -4.153   9.199  0.00  0.00    +0.002 A 
ATOM     12  C   UNL     1      -1.424  -2.825   8.820  0.00  0.00    +0.023 A 
ENDBRANCH   5   7
BRANCH   1  13
ATOM     13  S   UNL     1      -0.227  -1.133   6.255  0.00  0.00    -0.079 S 
BRANCH  13  14
ATOM     14  C   UNL     1      -0.124   0.053   4.886  0.00  0.00    +0.173 C 
BRANCH  14  16
ATOM     15  N   UNL     1       0.096  -0.014   2.423  0.00  0.00    -0.285 N 
ATOM     16  C   UNL     1       0.004  -0.694   3.583  0.00  0.00    +0.227 C 
ATOM     17  O   UNL     1       0.024  -1.906   3.578  0.00  0.00    -0.275 OA
ATOM     18  H   UNL     1       0.142   0.955   2.431  0.00  0.00    +0.155 HD
BRANCH  15  25
ATOM     19  C   UNL     1      -1.165   1.178   0.168  0.00  0.00    +0.045 C 
ATOM     20  C   UNL     1      -0.477  -0.160   0.082  0.00  0.00    -0.029 A 
ATOM     21  C   UNL     1      -0.442  -0.843  -1.119  0.00  0.00    +0.005 A 
ATOM     22  C   UNL     1       0.189  -2.071  -1.199  0.00  0.00    +0.000 A 
ATOM     23  C   UNL     1       0.787  -2.619  -0.078  0.00  0.00    +0.002 A 
ATOM     24  C   UNL     1       0.755  -1.941   1.124  0.00  0.00    +0.023 A 
ATOM     25  C   UNL     1       0.126  -0.705   1.207  0.00  0.00    +0.036 A 
ENDBRANCH  15  25
ENDBRANCH  14  16
ENDBRANCH  13  14
ENDBRANCH   1  13
BRANCH   4  26
ATOM     26  C   UNL     1      -1.900   0.548  10.631  0.00  0.00    +0.097 C 
BRANCH  26  27
ATOM     27  C   UNL     1      -2.019   1.805  11.455  0.00  0.00    +0.029 A 
ATOM     28  N   UNL     1      -1.451   1.867  12.698  0.00  0.00    -0.311 N 
ATOM     29  C   UNL     1      -1.550   2.984  13.442  0.00  0.00    +0.327 A 
ATOM     30  O   UNL     1      -1.039   3.018  14.544  0.00  0.00    -0.247 OA
ATOM     31  N   UNL     1      -2.208   4.065  12.982  0.00  0.00    -0.275 N 
ATOM     32  C   UNL     1      -2.781   4.043  11.762  0.00  0.00    +0.254 A 
ATOM     33  O   UNL     1      -3.377   5.021  11.345  0.00  0.00    -0.268 OA
ATOM     34  C   UNL     1      -2.680   2.876  10.967  0.00  0.00    +0.091 A 
ATOM     35  H   UNL     1      -2.271   4.862  13.531  0.00  0.00    +0.173 HD
ATOM     36  H   UNL     1      -0.973   1.099  13.047  0.00  0.00    +0.170 HD
ENDBRANCH  26  27
ENDBRANCH   4  26
TORSDOF 7
