REMARK  Name = ZINC59060621
REMARK  6 active torsions:
REMARK  status: ('A' for Active; 'I' for Inactive)
REMARK    1  A    between atoms: C_6  and  N_7
REMARK    2  A    between atoms: C_8  and  C_10
REMARK    3  A    between atoms: C_10  and  S_11
REMARK    4  A    between atoms: S_11  and  C_12
REMARK    5  A    between atoms: C_17  and  N_26
REMARK    6  A    between atoms: N_18  and  C_19
REMARK                            x       y       z     vdW  Elec       q    Type
REMARK                         _______ _______ _______ _____ _____    ______ ____
ROOT
ATOM      1  C   UNL     1      -3.754  -5.319  -0.782  0.00  0.00    +0.179 A 
ATOM      2  N   UNL     1      -4.849  -4.590  -0.741  0.00  0.00    -0.185 NA
ATOM      3  C   UNL     1      -6.045  -5.152  -0.505  0.00  0.00    +0.276 A 
ATOM      4  O   UNL     1      -7.052  -4.460  -0.471  0.00  0.00    -0.266 OA
ATOM      5  C   UNL     1      -6.135  -6.543  -0.297  0.00  0.00    +0.114 A 
ATOM      6  C   UNL     1      -4.995  -7.292  -0.341  0.00  0.00    +0.108 A 
ATOM      7  N   UNL     1      -3.798  -6.669  -0.592  0.00  0.00    -0.277 N 
ENDROOT
BRANCH   7   8
ATOM      8  C   UNL     1      -2.617  -7.422  -0.646  0.00  0.00    +0.050 A 
ATOM      9  C   UNL     1      -1.670  -7.304   0.362  0.00  0.00    +0.028 A 
ATOM     10  C   UNL     1      -0.507  -8.046   0.306  0.00  0.00    +0.022 A 
ATOM     11  C   UNL     1      -0.284  -8.907  -0.754  0.00  0.00    +0.041 A 
ATOM     12  C   UNL     1      -1.226  -9.026  -1.761  0.00  0.00    +0.022 A 
ATOM     13  C   UNL     1      -2.394  -8.290  -1.706  0.00  0.00    +0.028 A 
ATOM     14 CL   UNL     1       1.180  -9.838  -0.823  0.00  0.00    -0.084 Cl
ENDBRANCH   7   8
BRANCH   6  15
ATOM     15  N   UNL     1      -5.046  -8.653  -0.142  0.00  0.00    -0.344 N 
ATOM     16  H   UNL     1      -5.903  -9.099  -0.060  0.00  0.00    +0.144 HD
ATOM     17  H   UNL     1      -4.224  -9.165  -0.084  0.00  0.00    +0.144 HD
ENDBRANCH   6  15
BRANCH   1  18
ATOM     18  S   UNL     1      -2.206  -4.538  -1.095  0.00  0.00    -0.078 S 
BRANCH  18  19
ATOM     19  C   UNL     1      -2.628  -2.784  -1.279  0.00  0.00    +0.173 C 
BRANCH  19  21
ATOM     20  N   UNL     1      -1.446  -0.657  -1.728  0.00  0.00    -0.285 N 
ATOM     21  C   UNL     1      -1.375  -1.992  -1.554  0.00  0.00    +0.227 C 
ATOM     22  O   UNL     1      -0.304  -2.556  -1.620  0.00  0.00    -0.275 OA
ATOM     23  H   UNL     1      -2.292  -0.197  -1.607  0.00  0.00    +0.155 HD
BRANCH  20  29
ATOM     24  C   UNL     1       0.667  -0.518  -2.889  0.00  0.00    +0.025 A 
ATOM     25  C   UNL     1       1.797   0.196  -3.236  0.00  0.00    +0.022 A 
ATOM     26  C   UNL     1       1.965   1.492  -2.780  0.00  0.00    +0.041 A 
ATOM     27  C   UNL     1       1.002   2.075  -1.975  0.00  0.00    +0.022 A 
ATOM     28  C   UNL     1      -0.129   1.365  -1.624  0.00  0.00    +0.025 A 
ATOM     29  C   UNL     1      -0.300   0.065  -2.081  0.00  0.00    +0.033 A 
ATOM     30 CL   UNL     1       3.386   2.387  -3.218  0.00  0.00    -0.084 Cl
ENDBRANCH  20  29
ENDBRANCH  19  21
ENDBRANCH  18  19
ENDBRANCH   1  18
TORSDOF 6
