REMARK  Name = ZINC09777245
REMARK  13 active torsions:
REMARK  status: ('A' for Active; 'I' for Inactive)
REMARK    1  A    between atoms: C_1  and  C_2
REMARK    2  A    between atoms: C_7  and  N_12
REMARK    3  A    between atoms: C_9  and  C_11
REMARK    4  A    between atoms: C_13  and  C_15
REMARK    5  A    between atoms: C_23  and  C_35
REMARK    6  A    between atoms: N_29  and  C_30
REMARK    7  A    between atoms: C_30  and  C_31
REMARK    8  A    between atoms: C_31  and  C_32
REMARK    9  A    between atoms: C_32  and  C_33
REMARK   10  A    between atoms: C_32  and  C_34
REMARK   11  A    between atoms: N_37  and  C_38
REMARK   12  A    between atoms: C_42  and  S_44
REMARK   13  A    between atoms: S_44  and  C_45
REMARK                            x       y       z     vdW  Elec       q    Type
REMARK                         _______ _______ _______ _____ _____    ______ ____
ROOT
ATOM      1  C   UNL     1      -6.375   0.765   1.845  0.00  0.00    +0.198 C 
ATOM      2  C   UNL     1      -5.151  -0.097   1.864  0.00  0.00    +0.127 C 
ATOM      3  C   UNL     1      -4.013   0.512   2.663  0.00  0.00    +0.009 C 
ATOM      4  C   UNL     1      -3.018  -0.360   2.594  0.00  0.00    +0.004 C 
ATOM      5  C   UNL     1      -3.538  -1.485   1.690  0.00  0.00    +0.155 C 
ATOM      6  O   UNL     1      -4.987  -1.486   2.030  0.00  0.00    -0.358 OA
ATOM      7  C   UNL     1      -3.532  -0.799   0.269  0.00  0.00    +0.123 C 
ATOM      8  C   UNL     1      -4.802   0.012   0.324  0.00  0.00    +0.128 C 
ATOM      9  C   UNL     1      -4.937   1.466   0.127  0.00  0.00    +0.223 C 
ATOM     10  O   UNL     1      -4.282   2.156  -0.625  0.00  0.00    -0.275 OA
ATOM     11  N   UNL     1      -5.945   1.892   0.958  0.00  0.00    -0.287 N 
ENDROOT
BRANCH   1  13
ATOM     12  N   UNL     1      -7.501   0.538   4.035  0.00  0.00    -0.311 N 
ATOM     13  C   UNL     1      -6.703   1.265   3.228  0.00  0.00    +0.237 C 
ATOM     14  O   UNL     1      -6.249   2.321   3.616  0.00  0.00    -0.274 OA
ATOM     15  H   UNL     1      -7.864  -0.306   3.726  0.00  0.00    +0.149 HD
BRANCH  12  21
ATOM     16  C   UNL     1      -8.860  -0.841   8.585  0.00  0.00    +0.008 C 
ATOM     17  C   UNL     1      -8.507   0.345   7.685  0.00  0.00    -0.009 C 
ATOM     18  C   UNL     1      -9.698   1.302   7.612  0.00  0.00    +0.003 C 
ATOM     19  C   UNL     1      -9.345   2.488   6.712  0.00  0.00    +0.002 C 
ATOM     20  C   UNL     1      -9.012   1.981   5.308  0.00  0.00    +0.022 C 
ATOM     21  C   UNL     1      -7.821   1.024   5.380  0.00  0.00    +0.076 C 
ATOM     22  C   UNL     1      -8.173  -0.162   6.280  0.00  0.00    +0.009 C 
ATOM     23  C   UNL     1      -9.384  -0.898   5.703  0.00  0.00    +0.009 C 
ENDBRANCH  12  21
ENDBRANCH   1  13
BRANCH   7  24
ATOM     24  C   UNL     1      -2.328   0.092   0.103  0.00  0.00    +0.224 C 
ATOM     25  O   UNL     1      -2.333   1.211   0.570  0.00  0.00    -0.275 OA
ATOM     26  N   UNL     1      -1.246  -0.355  -0.564  0.00  0.00    -0.285 N 
ATOM     27  H   UNL     1      -1.269  -1.220  -1.001  0.00  0.00    +0.155 HD
BRANCH  26  28
ATOM     28  C   UNL     1      -0.089   0.429  -0.625  0.00  0.00    +0.034 A 
ATOM     29  C   UNL     1       0.717   0.392  -1.756  0.00  0.00    +0.023 A 
ATOM     30  C   UNL     1       1.860   1.165  -1.818  0.00  0.00    +0.003 A 
ATOM     31  C   UNL     1       2.207   1.978  -0.756  0.00  0.00    +0.015 A 
ATOM     32  C   UNL     1       1.405   2.020   0.379  0.00  0.00    +0.009 A 
ATOM     33  C   UNL     1       0.255   1.243   0.444  0.00  0.00    +0.038 A 
BRANCH  32  34
ATOM     34  S   UNL     1       1.847   3.057   1.733  0.00  0.00    -0.129 S 
ATOM     35  C   UNL     1       3.385   3.852   1.194  0.00  0.00    +0.090 C 
ENDBRANCH  32  34
ENDBRANCH  26  28
ENDBRANCH   7  24
BRANCH  11  36
ATOM     36  C   UNL     1      -6.514   3.242   0.972  0.00  0.00    +0.109 C 
BRANCH  36  37
ATOM     37  C   UNL     1      -7.752   3.283   0.074  0.00  0.00    +0.022 C 
BRANCH  37  38
ATOM     38  C   UNL     1      -8.278   4.718  -0.003  0.00  0.00    -0.016 C 
ATOM     39  C   UNL     1      -9.439   4.783  -0.998  0.00  0.00    +0.007 C 
ATOM     40  C   UNL     1      -8.766   5.157   1.379  0.00  0.00    +0.007 C 
ENDBRANCH  37  38
ENDBRANCH  36  37
ENDBRANCH  11  36
TORSDOF 8
