REMARK  Name = ZINC25546345
REMARK  9 active torsions:
REMARK  status: ('A' for Active; 'I' for Inactive)
REMARK    1  A    between atoms: C_1  and  C_2
REMARK    2  A    between atoms: N_5  and  C_8
REMARK    3  A    between atoms: C_8  and  C_10
REMARK    4  A    between atoms: C_8  and  C_11
REMARK    5  A    between atoms: N_13  and  C_14
REMARK    6  A    between atoms: C_14  and  C_16
REMARK    7  A    between atoms: C_14  and  C_17
REMARK    8  A    between atoms: C_20  and  S_23
REMARK    9  A    between atoms: S_23  and  N_26
REMARK                            x       y       z     vdW  Elec       q    Type
REMARK                         _______ _______ _______ _____ _____    ______ ____
ROOT
ATOM      1  C   UNL     1       2.157   1.908   1.145  0.00  0.00    +0.200 C 
ATOM      2  O   UNL     1       1.419   1.958   2.106  0.00  0.00    -0.278 OA
ATOM      3  N   UNL     1       1.824   1.157   0.076  0.00  0.00    -0.310 N 
ATOM      4  H   UNL     1       2.494   1.113  -0.795  0.00  0.00    +0.149 HD
ENDROOT
BRANCH   1   5
ATOM      5  C   UNL     1       3.448   2.686   1.146  0.00  0.00    +0.016 C 
ATOM      6  C   UNL     1       3.214   4.063   0.522  0.00  0.00    -0.004 C 
BRANCH   5  11
ATOM      7  C   UNL     1       4.441   2.951   6.769  0.00  0.00    +0.007 C 
ATOM      8  C   UNL     1       3.783   2.710   5.409  0.00  0.00    -0.018 C 
ATOM      9  C   UNL     1       4.640   1.740   4.591  0.00  0.00    -0.015 C 
ATOM     10  C   UNL     1       4.009   1.550   3.209  0.00  0.00    -0.078 C 
ATOM     11  N   UNL     1       3.921   2.848   2.528  0.00  0.00    +0.387 N 
ATOM     12  C   UNL     1       3.064   3.781   3.271  0.00  0.00    -0.078 C 
ATOM     13  C   UNL     1       3.667   4.037   4.654  0.00  0.00    -0.015 C 
ATOM     14  H   UNL     1       4.933   3.278   2.492  0.00  0.00    -0.081 HD
ENDBRANCH   5  11
ENDBRANCH   1   5
BRANCH   3  15
ATOM     15  C   UNL     1       0.569   0.401   0.075  0.00  0.00    +0.100 C 
ATOM     16  C   UNL     1       0.784  -0.945   0.769  0.00  0.00    +0.033 C 
BRANCH  15  17
ATOM     17  C   UNL     1       0.125   0.168  -1.346  0.00  0.00    -0.027 A 
ATOM     18  C   UNL     1       1.056  -0.140  -2.320  0.00  0.00    +0.007 A 
ATOM     19  C   UNL     1       0.648  -0.359  -3.622  0.00  0.00    +0.029 A 
ATOM     20  C   UNL     1      -0.691  -0.259  -3.953  0.00  0.00    +0.105 A 
ATOM     21  C   UNL     1      -1.621   0.055  -2.980  0.00  0.00    +0.029 A 
ATOM     22  C   UNL     1      -1.214   0.268  -1.677  0.00  0.00    +0.007 A 
BRANCH  20  23
ATOM     23  S   UNL     1      -1.210  -0.530  -5.614  0.00  0.00    +0.056 S 
ATOM     24  O   UNL     1      -0.217  -1.344  -6.223  0.00  0.00    -0.153 OA
ATOM     25  O   UNL     1      -2.577  -0.913  -5.555  0.00  0.00    -0.153 OA
BRANCH  23  26
ATOM     26  N   UNL     1      -1.162   0.933  -6.388  0.00  0.00    -0.204 NA
ATOM     27  H   UNL     1      -1.481   0.807  -7.433  0.00  0.00    +0.144 HD
ATOM     28  H   UNL     1      -0.136   1.328  -6.363  0.00  0.00    +0.144 HD
ENDBRANCH  23  26
ENDBRANCH  20  23
ENDBRANCH  15  17
ENDBRANCH   3  15
TORSDOF 6
