REMARK  Name = ZINC12347395
REMARK  2 active torsions:
REMARK  status: ('A' for Active; 'I' for Inactive)
REMARK    1  A    between atoms: C_3  and  C_6
REMARK    2  A    between atoms: C_13  and  O_14
REMARK                            x       y       z     vdW  Elec       q    Type
REMARK                         _______ _______ _______ _____ _____    ______ ____
ROOT
ATOM      1  C   UNL     1      -2.355   4.080   0.047  0.00  0.00    +0.099 C 
ATOM      2  C   UNL     1      -2.274   4.937   1.278  0.00  0.00    +0.067 A 
ATOM      3  C   UNL     1      -1.900   6.254   1.233  0.00  0.00    +0.126 A 
ATOM      4  N   UNL     1      -1.924   6.732   2.491  0.00  0.00    -0.260 N 
ATOM      5  H   UNL     1      -1.695   7.664   2.772  0.00  0.00    +0.190 HD
ATOM      6  N   UNL     1      -2.327   5.687   3.338  0.00  0.00    -0.134 NA
ATOM      7  C   UNL     1      -2.536   4.614   2.607  0.00  0.00    +0.237 A 
ATOM      8  N   UNL     1      -1.580   6.874   0.031  0.00  0.00    -0.303 N 
ATOM      9  C   UNL     1      -1.935   6.253  -1.141  0.00  0.00    +0.017 C 
ATOM     10  C   UNL     1      -2.301   4.954  -1.188  0.00  0.00    +0.024 C 
ATOM     11  C   UNL     1      -2.653   4.347  -2.406  0.00  0.00    +0.162 C 
ATOM     12  O   UNL     1      -2.986   3.178  -2.414  0.00  0.00    -0.292 OA
ATOM     13  C   UNL     1      -2.628   5.111  -3.701  0.00  0.00    +0.080 C 
ATOM     14  C   UNL     1      -1.572   6.217  -3.601  0.00  0.00    +0.014 C 
ATOM     15  C   UNL     1      -1.908   7.095  -2.395  0.00  0.00    +0.051 C 
ATOM     16  H   UNL     1      -1.117   7.726   0.020  0.00  0.00    +0.153 HD
ENDROOT
BRANCH   1  19
ATOM     17  C   UNL     1      -0.013   1.076   0.008  0.00  0.00    +0.008 A 
ATOM     18  C   UNL     1      -1.213   1.761   0.017  0.00  0.00    +0.012 A 
ATOM     19  C   UNL     1      -1.196   3.116   0.030  0.00  0.00    +0.002 A 
ATOM     20  S   UNL     1       0.555   3.464   0.015  0.00  0.00    -0.101 S 
ATOM     21  C   UNL     1       1.146   1.780   0.001  0.00  0.00    +0.045 A 
ENDBRANCH   1  19
BRANCH   7  22
ATOM     22  O   UNL     1      -2.938   3.400   3.068  0.00  0.00    -0.491 OA
ATOM     23  H   UNL     1      -3.054   3.443   4.061  0.00  0.00    +0.294 HD
ENDBRANCH   7  22
TORSDOF 2
