REMARK  Name = ZINC33821881
REMARK  5 active torsions:
REMARK  status: ('A' for Active; 'I' for Inactive)
REMARK    1  A    between atoms: C_6  and  C_7
REMARK    2  A    between atoms: C_7  and  C_9
REMARK    3  A    between atoms: C_11  and  C_31
REMARK    4  A    between atoms: C_13  and  C_26
REMARK    5  A    between atoms: C_13  and  C_28
REMARK                            x       y       z     vdW  Elec       q    Type
REMARK                         _______ _______ _______ _____ _____    ______ ____
ROOT
ATOM      1  C   UNL     1       0.069   4.719   1.228  0.00  0.00    +0.155 C 
ATOM      2  C   UNL     1       1.526   5.220   1.058  0.00  0.00    +0.078 C 
ATOM      3  C   UNL     1       2.308   3.998   0.500  0.00  0.00    +0.163 C 
ATOM      4  C   UNL     1       1.182   3.155  -0.122  0.00  0.00    +0.127 C 
ATOM      5  N   UNL     1       0.076   3.300   0.861  0.00  0.00    -0.310 N 
ATOM      6  C   UNL     1      -1.061   2.698   0.379  0.00  0.00    +0.038 A 
ATOM      7  C   UNL     1      -2.320   3.261   0.462  0.00  0.00    +0.026 A 
ATOM      8  C   UNL     1      -3.413   2.589  -0.072  0.00  0.00    +0.040 A 
ATOM      9  C   UNL     1      -3.252   1.352  -0.676  0.00  0.00    +0.124 A 
ATOM     10  C   UNL     1      -1.999   0.772  -0.760  0.00  0.00    +0.048 A 
ATOM     11  C   UNL     1      -0.898   1.435  -0.236  0.00  0.00    -0.001 A 
ATOM     12  C   UNL     1       0.463   0.852  -0.296  0.00  0.00    +0.007 C 
ATOM     13  C   UNL     1       1.508   1.696  -0.244  0.00  0.00    -0.002 C 
ATOM     14  F   UNL     1      -4.326   0.709  -1.185  0.00  0.00    -0.205 F 
ENDROOT
BRANCH   2  15
ATOM     15  C   UNL     1       2.095   5.643   2.388  0.00  0.00    -0.037 A 
ATOM     16  C   UNL     1       2.096   4.774   3.468  0.00  0.00    +0.024 A 
ATOM     17  C   UNL     1       2.630   5.196   4.671  0.00  0.00    +0.111 A 
ATOM     18  N   UNL     1       3.125   6.411   4.800  0.00  0.00    -0.263 NA
ATOM     19  C   UNL     1       3.136   7.266   3.796  0.00  0.00    +0.111 A 
ATOM     20  C   UNL     1       2.624   6.913   2.562  0.00  0.00    +0.024 A 
ENDBRANCH   2  15
BRANCH   3  21
ATOM     21  C   UNL     1       2.995   3.245   1.610  0.00  0.00    +0.233 C 
ATOM     22  O   UNL     1       2.534   2.196   2.006  0.00  0.00    -0.274 OA
ATOM     23  N   UNL     1       4.121   3.738   2.162  0.00  0.00    -0.328 N 
ATOM     24  H   UNL     1       4.623   3.188   2.972  0.00  0.00    +0.145 HD
ATOM     25  H   UNL     1       4.539   4.690   1.802  0.00  0.00    +0.145 HD
ENDBRANCH   3  21
BRANCH   1  26
ATOM     26  C   UNL     1      -0.378   4.896   2.656  0.00  0.00    +0.184 C 
ATOM     27  O   UNL     1      -0.369   3.950   3.415  0.00  0.00    -0.290 OA
BRANCH  26  33
ATOM     28  C   UNL     1      -0.832   7.309   2.257  0.00  0.00    +0.013 A 
ATOM     29  C   UNL     1      -1.258   8.541   2.706  0.00  0.00    +0.020 A 
ATOM     30  C   UNL     1      -1.668   8.699   4.020  0.00  0.00    +0.041 A 
ATOM     31  C   UNL     1      -1.660   7.621   4.890  0.00  0.00    +0.020 A 
ATOM     32  C   UNL     1      -1.242   6.382   4.454  0.00  0.00    +0.013 A 
ATOM     33  C   UNL     1      -0.826   6.215   3.129  0.00  0.00    +0.019 A 
ATOM     34 CL   UNL     1      -2.195  10.256   4.578  0.00  0.00    -0.084 Cl
ENDBRANCH  26  33
ENDBRANCH   1  26
BRANCH   3  35
ATOM     35  C   UNL     1       3.277   4.419  -0.525  0.00  0.00    +0.082 C 
ATOM     36  N   UNL     1       4.025   4.743  -1.317  0.00  0.00    -0.195 NA
ENDBRANCH   3  35
TORSDOF 5
