REMARK  Name = ZINC62551988
REMARK  3 active torsions:
REMARK  status: ('A' for Active; 'I' for Inactive)
REMARK    1  A    between atoms: C_8  and  O_26
REMARK    2  A    between atoms: N_12  and  S_13
REMARK    3  A    between atoms: S_13  and  C_16
REMARK                            x       y       z     vdW  Elec       q    Type
REMARK                         _______ _______ _______ _____ _____    ______ ____
ROOT
ATOM      1  C   UNL     1      -0.017   1.379   0.002  0.00  0.00    +0.040 A 
ATOM      2  C   UNL     1       1.171   2.083  -0.003  0.00  0.00    +0.028 A 
ATOM      3  C   UNL     1       2.384   1.404  -0.015  0.00  0.00    +0.057 A 
ATOM      4  C   UNL     1       2.404   0.018  -0.019  0.00  0.00    +0.006 A 
ATOM      5  C   UNL     1       1.209  -0.683  -0.016  0.00  0.00    +0.046 A 
ATOM      6  C   UNL     1       0.003  -0.005  -0.005  0.00  0.00    +0.124 A 
ATOM      7  F   UNL     1      -1.158  -0.696  -0.002  0.00  0.00    -0.205 F 
ATOM      8  C   UNL     1       3.699  -0.750  -0.021  0.00  0.00    +0.148 C 
ATOM      9  C   UNL     1       4.843   0.130  -0.525  0.00  0.00    +0.057 C 
ATOM     10  C   UNL     1       4.840   1.446   0.264  0.00  0.00    +0.134 C 
ATOM     11  N   UNL     1       3.576   2.139  -0.025  0.00  0.00    -0.203 N 
ENDROOT
BRANCH  11  12
ATOM     12  S   UNL     1       3.562   3.762  -0.356  0.00  0.00    +0.075 S 
ATOM     13  O   UNL     1       4.889   4.112  -0.727  0.00  0.00    -0.150 OA
ATOM     14  O   UNL     1       2.447   3.993  -1.205  0.00  0.00    -0.150 OA
BRANCH  12  15
ATOM     15  C   UNL     1       3.225   4.599   1.158  0.00  0.00    +0.109 A 
ATOM     16  C   UNL     1       1.920   4.867   1.526  0.00  0.00    +0.029 A 
ATOM     17  C   UNL     1       1.665   5.525   2.711  0.00  0.00    +0.006 A 
ATOM     18  C   UNL     1       2.708   5.921   3.538  0.00  0.00    -0.044 A 
ATOM     19  C   UNL     1       4.008   5.650   3.174  0.00  0.00    -0.042 A 
ATOM     20  C   UNL     1       4.263   4.984   1.981  0.00  0.00    +0.032 A 
ATOM     21  C   UNL     1       5.186   6.034   4.029  0.00  0.00    +0.035 C 
ATOM     22  C   UNL     1       4.786   7.098   5.049  0.00  0.00    +0.005 C 
ATOM     23  C   UNL     1       3.533   6.613   5.788  0.00  0.00    +0.005 C 
ATOM     24  C   UNL     1       2.358   6.643   4.813  0.00  0.00    +0.035 C 
ENDBRANCH  12  15
ENDBRANCH  11  12
BRANCH   8  25
ATOM     25  O   UNL     1       3.570  -1.889  -0.875  0.00  0.00    -0.387 OA
ATOM     26  H   UNL     1       2.872  -2.503  -0.609  0.00  0.00    +0.210 HD
ENDBRANCH   8  25
TORSDOF 3
