REMARK  Name = ZINC45512709
REMARK  7 active torsions:
REMARK  status: ('A' for Active; 'I' for Inactive)
REMARK    1  A    between atoms: C_4  and  C_7
REMARK    2  A    between atoms: C_7  and  C_8
REMARK    3  A    between atoms: C_8  and  C_10
REMARK    4  A    between atoms: C_8  and  N_16
REMARK    5  A    between atoms: C_17  and  C_19
REMARK    6  A    between atoms: C_19  and  N_20
REMARK    7  A    between atoms: C_23  and  N_26
REMARK                            x       y       z     vdW  Elec       q    Type
REMARK                         _______ _______ _______ _____ _____    ______ ____
ROOT
ATOM      1  C   UNL     1       4.666   1.727   4.077  0.00  0.00    +0.019 C 
ENDROOT
BRANCH   1   2
ATOM      2  N   UNL     1       4.519   1.572   5.530  0.00  0.00    +0.386 N 
ATOM      3  C   UNL     1       5.538   0.639   6.026  0.00  0.00    -0.076 C 
ATOM      4  C   UNL     1       5.340   0.410   7.526  0.00  0.00    +0.006 C 
ATOM      5  C   UNL     1       5.468   1.747   8.262  0.00  0.00    +0.089 C 
ATOM      6  C   UNL     1       4.451   2.736   7.686  0.00  0.00    +0.006 C 
ATOM      7  C   UNL     1       4.682   2.878   6.180  0.00  0.00    -0.076 C 
ATOM      8  H   UNL     1       3.602   1.206   5.738  0.00  0.00    -0.081 HD
BRANCH   5   9
ATOM      9  N   UNL     1       5.204   1.549   9.689  0.00  0.00    -0.289 N 
ATOM     10  C   UNL     1       6.092   1.819  10.728  0.00  0.00    +0.070 A 
ATOM     11  C   UNL     1       7.387   2.313  10.768  0.00  0.00    +0.028 A 
ATOM     12  C   UNL     1       8.023   2.475  11.983  0.00  0.00    +0.002 A 
ATOM     13  C   UNL     1       7.374   2.145  13.161  0.00  0.00    +0.002 A 
ATOM     14  C   UNL     1       6.085   1.651  13.130  0.00  0.00    +0.028 A 
ATOM     15  C   UNL     1       5.437   1.486  11.915  0.00  0.00    +0.067 A 
ATOM     16  N   UNL     1       4.172   1.024  11.561  0.00  0.00    -0.306 N 
ATOM     17  H   UNL     1       3.486   0.719  12.176  0.00  0.00    +0.170 HD
ATOM     18  C   UNL     1       4.060   1.079  10.221  0.00  0.00    +0.328 A 
ATOM     19  O   UNL     1       3.075   0.751   9.586  0.00  0.00    -0.247 OA
ENDBRANCH   5   9
ENDBRANCH   1   2
BRANCH   1  21
ATOM     20  N   UNL     1       4.451   0.315   2.057  0.00  0.00    -0.310 N 
ATOM     21  C   UNL     1       4.378   0.412   3.400  0.00  0.00    +0.197 C 
ATOM     22  O   UNL     1       4.080  -0.559   4.062  0.00  0.00    -0.278 OA
ATOM     23  H   UNL     1       4.689   1.092   1.527  0.00  0.00    +0.149 HD
BRANCH  20  24
ATOM     24  C   UNL     1       4.171  -0.963   1.399  0.00  0.00    +0.107 C 
BRANCH  24  25
ATOM     25  C   UNL     1       5.422  -1.804   1.383  0.00  0.00    -0.027 A 
ATOM     26  C   UNL     1       6.648  -1.216   1.138  0.00  0.00    +0.005 A 
ATOM     27  C   UNL     1       7.795  -1.987   1.124  0.00  0.00    +0.000 A 
ATOM     28  C   UNL     1       7.715  -3.348   1.355  0.00  0.00    +0.000 A 
ATOM     29  C   UNL     1       6.489  -3.937   1.602  0.00  0.00    +0.000 A 
ATOM     30  C   UNL     1       5.343  -3.164   1.620  0.00  0.00    +0.005 A 
ENDBRANCH  24  25
BRANCH  24  31
ATOM     31  C   UNL     1       3.711  -0.707  -0.038  0.00  0.00    +0.062 C 
BRANCH  31  35
ATOM     32  C   UNL     1      -0.017   1.378   0.010  0.00  0.00    +0.000 A 
ATOM     33  C   UNL     1       1.171   2.086   0.002  0.00  0.00    +0.000 A 
ATOM     34  C   UNL     1       2.377   1.411  -0.013  0.00  0.00    +0.004 A 
ATOM     35  C   UNL     1       2.396   0.029  -0.020  0.00  0.00    -0.045 A 
ATOM     36  C   UNL     1       1.208  -0.679  -0.012  0.00  0.00    +0.004 A 
ATOM     37  C   UNL     1       0.002  -0.004   0.002  0.00  0.00    +0.000 A 
ENDBRANCH  31  35
ENDBRANCH  24  31
ENDBRANCH  20  24
ENDBRANCH   1  21
TORSDOF 7
