REMARK  Name = ZINC39666641
REMARK  9 active torsions:
REMARK  status: ('A' for Active; 'I' for Inactive)
REMARK    1  A    between atoms: C_1  and  C_2
REMARK    2  A    between atoms: C_5  and  C_8
REMARK    3  A    between atoms: C_8  and  C_9
REMARK    4  A    between atoms: C_13  and  C_22
REMARK    5  A    between atoms: N_24  and  C_25
REMARK    6  A    between atoms: C_25  and  C_26
REMARK    7  A    between atoms: C_26  and  C_28
REMARK    8  A    between atoms: C_26  and  O_29
REMARK    9  A    between atoms: O_29  and  C_30
REMARK                            x       y       z     vdW  Elec       q    Type
REMARK                         _______ _______ _______ _____ _____    ______ ____
ROOT
ATOM      1  C   UNL     1       1.431  -4.742  -0.023  0.00  0.00    +0.220 C 
ATOM      2  O   UNL     1       2.336  -3.935  -0.032  0.00  0.00    -0.275 OA
ATOM      3  N   UNL     1       1.704  -6.061  -0.038  0.00  0.00    -0.300 N 
ATOM      4  C   UNL     1       0.741  -7.188  -0.038  0.00  0.00    +0.121 C 
ATOM      5  C   UNL     1       1.356  -8.227  -1.002  0.00  0.00    +0.100 C 
ATOM      6  C   UNL     1       2.861  -7.912  -1.010  0.00  0.00    -0.004 C 
ATOM      7  C   UNL     1       3.035  -6.714  -0.066  0.00  0.00    +0.115 C 
ATOM      8  C   UNL     1       3.314  -7.537  -2.418  0.00  0.00    -0.010 C 
ATOM      9  C   UNL     1       4.824  -7.284  -2.412  0.00  0.00    -0.082 C 
ATOM     10  N   UNL     1       5.523  -8.492  -1.957  0.00  0.00    +0.379 N 
ATOM     11  C   UNL     1       5.152  -8.793  -0.570  0.00  0.00    -0.082 C 
ATOM     12  C   UNL     1       3.655  -9.110  -0.497  0.00  0.00    -0.010 C 
ATOM     13  H   UNL     1       5.269  -9.269  -2.548  0.00  0.00    -0.086 HD
ATOM     14  H   UNL     1       6.520  -8.343  -2.012  0.00  0.00    -0.086 HD
ENDROOT
BRANCH   5  15
ATOM     15  C   UNL     1       1.113  -9.625  -0.491  0.00  0.00    +0.218 C 
ATOM     16  O   UNL     1       1.107  -9.842   0.702  0.00  0.00    -0.275 OA
ATOM     17  N   UNL     1       0.903 -10.633  -1.361  0.00  0.00    -0.312 N 
ATOM     18  H   UNL     1       0.908 -10.459  -2.315  0.00  0.00    +0.149 HD
BRANCH  17  19
ATOM     19  C   UNL     1       0.667 -11.991  -0.865  0.00  0.00    +0.148 C 
BRANCH  19  20
ATOM     20  C   UNL     1       0.459 -12.937  -2.049  0.00  0.00    +0.187 C 
ATOM     21  C   UNL     1       0.213 -14.355  -1.531  0.00  0.00    +0.053 C 
BRANCH  20  22
ATOM     22  O   UNL     1      -0.669 -12.505  -2.812  0.00  0.00    -0.486 OA
BRANCH  22  23
ATOM     23  C   UNL     1      -0.703 -12.865  -4.122  0.00  0.00    +0.139 A 
ATOM     24  C   UNL     1       0.268 -13.713  -4.635  0.00  0.00    +0.047 A 
ATOM     25  C   UNL     1       0.231 -14.078  -5.967  0.00  0.00    +0.004 A 
ATOM     26  C   UNL     1      -0.771 -13.598  -6.790  0.00  0.00    +0.002 A 
ATOM     27  C   UNL     1      -1.740 -12.752  -6.282  0.00  0.00    +0.023 A 
ATOM     28  C   UNL     1      -1.712 -12.389  -4.948  0.00  0.00    +0.083 A 
ATOM     29 CL   UNL     1      -2.932 -11.332  -4.310  0.00  0.00    -0.080 Cl
ENDBRANCH  22  23
ENDBRANCH  20  22
ENDBRANCH  19  20
ENDBRANCH  17  19
ENDBRANCH   5  15
BRANCH   1  30
ATOM     30  C   UNL     1       0.000  -4.269   0.005  0.00  0.00    +0.131 C 
BRANCH  30  35
ATOM     31  C   UNL     1      -0.120   1.509   0.055  0.00  0.00    +0.044 C 
ATOM     32  C   UNL     1      -0.088   0.002   0.042  0.00  0.00    -0.050 A 
ATOM     33  C   UNL     1      -0.093  -0.679  -1.161  0.00  0.00    +0.003 A 
ATOM     34  C   UNL     1      -0.064  -2.061  -1.173  0.00  0.00    +0.004 A 
ATOM     35  C   UNL     1      -0.030  -2.762   0.018  0.00  0.00    -0.039 A 
ATOM     36  C   UNL     1      -0.024  -2.081   1.221  0.00  0.00    +0.004 A 
ATOM     37  C   UNL     1      -0.049  -0.699   1.233  0.00  0.00    +0.003 A 
ENDBRANCH  30  35
ENDBRANCH   1  30
TORSDOF 7
