REMARK  Name = ZINC15672787
REMARK  12 active torsions:
REMARK  status: ('A' for Active; 'I' for Inactive)
REMARK    1  A    between atoms: C_1  and  C_2
REMARK    2  A    between atoms: C_2  and  C_3
REMARK    3  A    between atoms: C_2  and  C_4
REMARK    4  A    between atoms: C_2  and  C_5
REMARK    5  A    between atoms: C_8  and  C_11
REMARK    6  A    between atoms: C_13  and  C_16
REMARK    7  A    between atoms: C_16  and  C_17
REMARK    8  A    between atoms: C_22  and  C_24
REMARK    9  A    between atoms: C_24  and  C_25
REMARK   10  A    between atoms: N_27  and  C_28
REMARK   11  A    between atoms: N_27  and  C_29
REMARK   12  A    between atoms: C_29  and  C_30
REMARK                            x       y       z     vdW  Elec       q    Type
REMARK                         _______ _______ _______ _____ _____    ______ ____
ROOT
ATOM      1  C   UNL     1       3.778  -3.114   9.040  0.00  0.00    -0.019 C 
ATOM      2  C   UNL     1       5.121  -2.380   9.023  0.00  0.00    -0.079 C 
ATOM      3  C   UNL     1       6.196  -4.199  10.209  0.00  0.00    -0.082 C 
ATOM      4  C   UNL     1       4.885  -4.988  10.261  0.00  0.00    -0.015 C 
ATOM      5  C   UNL     1       3.707  -4.010  10.280  0.00  0.00    -0.002 C 
ATOM      6  N   UNL     1       6.223  -3.360   8.996  0.00  0.00    +0.379 N 
ATOM      7  H   UNL     1       7.119  -2.860   8.950  0.00  0.00    -0.086 HD
ATOM      8  H   UNL     1       6.123  -3.959   8.168  0.00  0.00    -0.086 HD
ENDROOT
BRANCH   1   9
ATOM      9  C   UNL     1       2.638  -2.094   9.081  0.00  0.00    +0.061 C 
BRANCH   9  12
ATOM     10  C   UNL     1       2.055  -0.328   5.928  0.00  0.00    +0.167 A 
ATOM     11  C   UNL     1       1.551  -1.130   6.916  0.00  0.00    +0.076 A 
ATOM     12  C   UNL     1       2.634  -1.294   7.804  0.00  0.00    +0.084 A 
ATOM     13  N   UNL     1       3.630  -0.620   7.304  0.00  0.00    -0.083 NA
ATOM     14  O   UNL     1       3.334  -0.081   6.263  0.00  0.00    -0.354 OA
BRANCH  10  18
ATOM     15  C   UNL     1       0.000   1.080   2.488  0.00  0.00    -0.042 A 
ATOM     16  C   UNL     1      -0.657   0.275   3.401  0.00  0.00    +0.005 A 
ATOM     17  C   UNL     1       0.006  -0.190   4.518  0.00  0.00    +0.012 A 
ATOM     18  C   UNL     1       1.339   0.162   4.731  0.00  0.00    +0.020 A 
ATOM     19  C   UNL     1       1.995   0.979   3.808  0.00  0.00    +0.012 A 
ATOM     20  C   UNL     1       1.322   1.433   2.693  0.00  0.00    +0.005 A 
BRANCH  15  22
ATOM     21  C   UNL     1      -0.013   1.086   0.008  0.00  0.00    +0.015 C 
ATOM     22  C   UNL     1      -0.729   1.579   1.267  0.00  0.00    -0.013 C 
ATOM     23  C   UNL     1      -0.750   3.109   1.275  0.00  0.00    +0.015 C 
ATOM     24  C   UNL     1      -2.164   1.050   1.278  0.00  0.00    +0.015 C 
ENDBRANCH  15  22
ENDBRANCH  10  18
ENDBRANCH   9  12
ENDBRANCH   1   9
BRANCH   5  25
ATOM     25  C   UNL     1       3.779  -3.146  11.540  0.00  0.00    +0.099 C 
BRANCH  25  26
ATOM     26  C   UNL     1       3.586  -4.014  12.756  0.00  0.00    +0.216 C 
ATOM     27  O   UNL     1       3.409  -5.207  12.628  0.00  0.00    -0.276 OA
ATOM     28  N   UNL     1       3.610  -3.465  13.987  0.00  0.00    -0.296 N 
ATOM     29  C   UNL     1       3.824  -2.024  14.142  0.00  0.00    +0.132 C 
BRANCH  28  30
ATOM     30  C   UNL     1       3.423  -4.309  15.169  0.00  0.00    +0.202 C 
BRANCH  30  31
ATOM     31  C   UNL     1       4.761  -4.814  15.643  0.00  0.00    +0.228 C 
ATOM     32  O   UNL     1       5.772  -4.499  15.052  0.00  0.00    -0.274 OA
ATOM     33  N   UNL     1       4.835  -5.614  16.725  0.00  0.00    -0.328 N 
ATOM     34  H   UNL     1       4.026  -5.866  17.198  0.00  0.00    +0.145 HD
ATOM     35  H   UNL     1       5.696  -5.939  17.030  0.00  0.00    +0.145 HD
ENDBRANCH  30  31
ENDBRANCH  28  30
ENDBRANCH  25  26
ENDBRANCH   5  25
TORSDOF 8
