REMARK  Name = ZINC37314318
REMARK  9 active torsions:
REMARK  status: ('A' for Active; 'I' for Inactive)
REMARK    1  A    between atoms: C_1  and  C_2
REMARK    2  A    between atoms: C_2  and  C_4
REMARK    3  A    between atoms: C_2  and  N_10
REMARK    4  A    between atoms: N_10  and  C_11
REMARK    5  A    between atoms: C_11  and  C_13
REMARK    6  A    between atoms: C_11  and  C_20
REMARK    7  A    between atoms: C_20  and  C_21
REMARK    8  A    between atoms: C_20  and  C_22
REMARK    9  A    between atoms: C_20  and  C_23
REMARK                            x       y       z     vdW  Elec       q    Type
REMARK                         _______ _______ _______ _____ _____    ______ ____
ROOT
ATOM      1  C   UNL     1      -0.190  -0.207  -2.491  0.00  0.00    -0.035 C 
ENDROOT
BRANCH   1   2
ATOM      2  C   UNL     1       0.285  -0.989  -3.688  0.00  0.00    -0.061 A 
ATOM      3  C   UNL     1       1.639  -1.138  -3.923  0.00  0.00    +0.005 A 
ATOM      4  C   UNL     1       2.076  -1.855  -5.020  0.00  0.00    +0.038 A 
ATOM      5  C   UNL     1       1.157  -2.424  -5.885  0.00  0.00    +0.123 A 
ATOM      6  C   UNL     1      -0.199  -2.275  -5.649  0.00  0.00    +0.038 A 
ATOM      7  C   UNL     1      -0.633  -1.562  -4.548  0.00  0.00    +0.005 A 
ATOM      8  F   UNL     1       1.584  -3.125  -6.959  0.00  0.00    -0.205 F 
ENDBRANCH   1   2
BRANCH   1   9
ATOM      9  C   UNL     1      -0.124   1.290  -2.800  0.00  0.00    -0.046 C 
ATOM     10  C   UNL     1       1.336   1.708  -2.983  0.00  0.00    +0.009 C 
ATOM     11  C   UNL     1      -0.903   1.580  -4.085  0.00  0.00    +0.009 C 
ATOM     12  C   UNL     1      -0.739   2.077  -1.641  0.00  0.00    +0.009 C 
ENDBRANCH   1   9
BRANCH   1  13
ATOM     13  N   UNL     1       0.669  -0.508  -1.337  0.00  0.00    +0.389 N 
ATOM     14  H   UNL     1       0.411   0.085  -0.563  0.00  0.00    -0.084 HD
ATOM     15  H   UNL     1       1.633  -0.340  -1.583  0.00  0.00    -0.084 HD
BRANCH  13  17
ATOM     16  C   UNL     1      -0.924  -2.136  -0.439  0.00  0.00    -0.008 C 
ATOM     17  C   UNL     1       0.499  -1.916  -0.954  0.00  0.00    -0.035 C 
BRANCH  17  18
ATOM     18  C   UNL     1       1.486  -2.263   0.131  0.00  0.00    -0.010 A 
ATOM     19  C   UNL     1       2.283  -3.354   0.243  0.00  0.00    +0.026 A 
ATOM     20  C   UNL     1       3.120  -3.463   1.338  0.00  0.00    +0.023 A 
ATOM     21  C   UNL     1       3.119  -2.476   2.267  0.00  0.00    +0.046 A 
ATOM     22  S   UNL     1       1.914  -1.341   1.598  0.00  0.00    -0.102 S 
ATOM     23 BR   UNL     1       2.249  -4.707  -1.078  0.00  0.00    -0.050 Br
ENDBRANCH  17  18
ENDBRANCH  13  17
ENDBRANCH   1  13
TORSDOF 5
