REMARK  Name = ZINC32536209
REMARK  4 active torsions:
REMARK  status: ('A' for Active; 'I' for Inactive)
REMARK    1  A    between atoms: C_6  and  S_7
REMARK    2  A    between atoms: S_7  and  C_10
REMARK    3  A    between atoms: C_17  and  N_19
REMARK    4  A    between atoms: N_19  and  C_20
REMARK                            x       y       z     vdW  Elec       q    Type
REMARK                         _______ _______ _______ _____ _____    ______ ____
ROOT
ATOM      1  C   UNL     1       0.945   3.564   3.877  0.00  0.00    +0.144 C 
ATOM      2  C   UNL     1       0.998   3.430   5.416  0.00  0.00    +0.190 C 
ATOM      3  S   UNL     1      -0.014   1.909   5.680  0.00  0.00    -0.031 S 
ATOM      4  O   UNL     1       0.795   0.762   5.458  0.00  0.00    -0.174 OA
ATOM      5  O   UNL     1      -0.744   2.034   6.893  0.00  0.00    -0.174 OA
ATOM      6  C   UNL     1      -1.159   2.135   4.251  0.00  0.00    +0.152 C 
ATOM      7  C   UNL     1      -0.239   2.854   3.238  0.00  0.00    -0.024 C 
ENDROOT
BRANCH   1   8
ATOM      8  S   UNL     1       0.861   5.325   3.452  0.00  0.00    -0.000 S 
ATOM      9  O   UNL     1       1.090   5.505   2.061  0.00  0.00    -0.169 OA
ATOM     10  O   UNL     1      -0.258   5.929   4.085  0.00  0.00    -0.169 OA
BRANCH   8  16
ATOM     11  C   UNL     1       2.162   6.543   5.522  0.00  0.00    +0.027 A 
ATOM     12  C   UNL     1       3.266   7.104   6.130  0.00  0.00    +0.006 A 
ATOM     13  C   UNL     1       4.478   7.186   5.455  0.00  0.00    -0.044 A 
ATOM     14  C   UNL     1       4.579   6.693   4.174  0.00  0.00    -0.042 A 
ATOM     15  C   UNL     1       3.468   6.126   3.565  0.00  0.00    +0.030 A 
ATOM     16  C   UNL     1       2.264   6.048   4.235  0.00  0.00    +0.089 A 
ATOM     17  C   UNL     1       5.865   6.733   3.389  0.00  0.00    +0.035 C 
ATOM     18  C   UNL     1       6.836   7.741   4.001  0.00  0.00    +0.005 C 
ATOM     19  C   UNL     1       6.957   7.448   5.501  0.00  0.00    +0.005 C 
ATOM     20  C   UNL     1       5.638   7.824   6.173  0.00  0.00    +0.035 C 
ENDBRANCH   8  16
ENDBRANCH   1   8
BRANCH   7  21
ATOM     21  N   UNL     1       0.271   1.861   2.282  0.00  0.00    +0.385 N 
ATOM     22  H   UNL     1       1.182   2.249   1.802  0.00  0.00    -0.085 HD
ATOM     23  H   UNL     1       0.504   0.927   2.813  0.00  0.00    -0.085 HD
BRANCH  21  24
ATOM     24  C   UNL     1      -0.725   1.575   1.240  0.00  0.00    -0.071 C 
ATOM     25  C   UNL     1      -0.013   1.086   0.008  0.00  0.00    -0.016 C 
ATOM     26  C   UNL     1      -0.766   1.601  -1.235  0.00  0.00    -0.002 C 
ATOM     27  C   UNL     1      -1.940   0.798  -1.544  0.00  0.00    -0.000 C 
ATOM     28  C   UNL     1      -2.985   0.823  -0.409  0.00  0.00    -0.000 C 
ATOM     29  C   UNL     1      -2.550  -0.140   0.662  0.00  0.00    -0.002 C 
ATOM     30  C   UNL     1      -1.741   0.547   1.779  0.00  0.00    -0.016 C 
ENDBRANCH  21  24
ENDBRANCH   7  21
TORSDOF 4
