REMARK  Name = ZINC47948920
REMARK  7 active torsions:
REMARK  status: ('A' for Active; 'I' for Inactive)
REMARK    1  A    between atoms: C_4  and  C_7
REMARK    2  A    between atoms: C_7  and  C_9
REMARK    3  A    between atoms: C_7  and  N_26
REMARK    4  A    between atoms: C_9  and  N_10
REMARK    5  A    between atoms: N_13  and  C_14
REMARK    6  A    between atoms: C_14  and  C_15
REMARK    7  A    between atoms: C_20  and  N_21
REMARK                            x       y       z     vdW  Elec       q    Type
REMARK                         _______ _______ _______ _____ _____    ______ ____
ROOT
ATOM      1  N   UNL     1       5.278  -2.024  -1.392  0.00  0.00    -0.301 N 
ATOM      2  C   UNL     1       5.787  -2.554  -2.522  0.00  0.00    +0.300 C 
ATOM      3  O   UNL     1       5.184  -2.443  -3.571  0.00  0.00    -0.253 OA
ATOM      4  N   UNL     1       6.966  -3.207  -2.488  0.00  0.00    -0.295 N 
ATOM      5  H   UNL     1       5.760  -2.112  -0.554  0.00  0.00    +0.150 HD
ATOM      6  H   UNL     1       7.448  -3.295  -1.651  0.00  0.00    +0.151 HD
ENDROOT
BRANCH   1   7
ATOM      7  C   UNL     1       3.997  -1.314  -1.428  0.00  0.00    +0.095 C 
BRANCH   7   8
ATOM      8  C   UNL     1       3.715  -0.701  -0.055  0.00  0.00    -0.020 C 
BRANCH   8  12
ATOM      9  C   UNL     1       6.625   2.312   0.781  0.00  0.00    +0.000 A 
ATOM     10  C   UNL     1       6.756   1.052   1.334  0.00  0.00    +0.000 A 
ATOM     11  C   UNL     1       5.814   0.077   1.064  0.00  0.00    +0.002 A 
ATOM     12  C   UNL     1       4.741   0.362   0.240  0.00  0.00    -0.059 A 
ATOM     13  C   UNL     1       4.610   1.623  -0.312  0.00  0.00    +0.002 A 
ATOM     14  C   UNL     1       5.552   2.597  -0.043  0.00  0.00    +0.000 A 
ENDBRANCH   8  12
BRANCH   8  15
ATOM     15  N   UNL     1       2.374  -0.101  -0.053  0.00  0.00    +0.385 N 
ATOM     16  C   UNL     1       1.344  -1.149  -0.267  0.00  0.00    -0.078 C 
ATOM     17  C   UNL     1       0.058  -0.505   0.310  0.00  0.00    -0.020 C 
ATOM     18  C   UNL     1       0.581   0.268   1.542  0.00  0.00    -0.020 C 
ATOM     19  C   UNL     1       2.081   0.489   1.271  0.00  0.00    -0.078 C 
ATOM     20  H   UNL     1       2.307   0.605  -0.771  0.00  0.00    -0.081 HD
ENDBRANCH   8  15
ENDBRANCH   7   8
ENDBRANCH   1   7
BRANCH   4  21
ATOM     21  C   UNL     1       7.519  -3.783  -3.716  0.00  0.00    +0.144 C 
BRANCH  21  22
ATOM     22  C   UNL     1       8.834  -4.452  -3.409  0.00  0.00    +0.014 A 
ATOM     23  C   UNL     1      10.030  -3.808  -3.678  0.00  0.00    +0.010 A 
ATOM     24  C   UNL     1      11.216  -4.462  -3.379  0.00  0.00    +0.020 A 
ATOM     25  C   UNL     1      11.169  -5.727  -2.825  0.00  0.00    +0.113 A 
ATOM     26  N   UNL     1      10.015  -6.316  -2.580  0.00  0.00    -0.236 NA
ATOM     27  C   UNL     1       8.863  -5.722  -2.846  0.00  0.00    +0.160 A 
BRANCH  27  28
ATOM     28  N   UNL     1       7.662  -6.382  -2.564  0.00  0.00    -0.202 N 
ATOM     29  C   UNL     1       7.474  -7.713  -2.469  0.00  0.00    +0.226 A 
ATOM     30  N   UNL     1       6.214  -7.925  -2.192  0.00  0.00    -0.222 NA
ATOM     31  C   UNL     1       5.568  -6.763  -2.102  0.00  0.00    +0.245 A 
ATOM     32  N   UNL     1       6.413  -5.789  -2.317  0.00  0.00    -0.152 NA
ENDBRANCH  27  28
ENDBRANCH  21  22
ENDBRANCH   4  21
TORSDOF 7
