REMARK  Name = ZINC39890568
REMARK  7 active torsions:
REMARK  status: ('A' for Active; 'I' for Inactive)
REMARK    1  A    between atoms: C_1  and  C_2
REMARK    2  A    between atoms: N_15  and  C_34
REMARK    3  A    between atoms: N_23  and  C_26
REMARK    4  A    between atoms: C_26  and  C_27
REMARK    5  A    between atoms: C_34  and  C_35
REMARK    6  A    between atoms: C_35  and  C_36
REMARK    7  A    between atoms: C_36  and  O_37
REMARK                            x       y       z     vdW  Elec       q    Type
REMARK                         _______ _______ _______ _____ _____    ______ ____
ROOT
ATOM      1  C   UNL     1      -0.018   1.503   0.010  0.00  0.00    +0.044 C 
ATOM      2  C   UNL     1       0.002  -0.004   0.002  0.00  0.00    -0.050 A 
ATOM      3  C   UNL     1       0.006  -0.689  -1.205  0.00  0.00    +0.007 A 
ATOM      4  C   UNL     1       0.021  -2.065  -1.235  0.00  0.00    +0.047 A 
ATOM      5  C   UNL     1       0.035  -2.790  -0.043  0.00  0.00    +0.139 A 
ATOM      6  C   UNL     1       0.037  -2.086   1.172  0.00  0.00    +0.065 A 
ATOM      7  C   UNL     1       0.023  -0.692   1.184  0.00  0.00    +0.018 A 
ATOM      8  C   UNL     1       0.067  -2.848   2.446  0.00  0.00    +0.199 A 
ATOM      9  O   UNL     1      -0.093  -2.330   3.537  0.00  0.00    -0.287 OA
ATOM     10  C   UNL     1       0.306  -4.284   2.267  0.00  0.00    +0.084 A 
ATOM     11  C   UNL     1       0.285  -4.851   1.023  0.00  0.00    +0.200 A 
ATOM     12  O   UNL     1       0.042  -4.141  -0.096  0.00  0.00    -0.450 OA
ATOM     13  C   UNL     1       0.561  -6.292   1.166  0.00  0.00    +0.284 C 
ATOM     14  O   UNL     1       0.616  -7.085   0.248  0.00  0.00    -0.267 OA
ATOM     15  N   UNL     1       0.743  -6.601   2.468  0.00  0.00    -0.273 N 
ATOM     16  C   UNL     1       0.598  -5.367   3.247  0.00  0.00    +0.174 C 
ATOM     17  C   UNL     1       1.819  -5.089   4.063  0.00  0.00    +0.011 A 
ATOM     18  C   UNL     1       3.130  -4.865   3.701  0.00  0.00    +0.008 A 
ATOM     19  C   UNL     1       4.038  -4.635   4.729  0.00  0.00    +0.000 A 
ATOM     20  C   UNL     1       3.642  -4.632   6.051  0.00  0.00    +0.002 A 
ATOM     21  C   UNL     1       2.325  -4.856   6.423  0.00  0.00    +0.024 A 
ATOM     22  C   UNL     1       1.403  -5.088   5.400  0.00  0.00    +0.043 A 
ATOM     23  N   UNL     1       0.044  -5.336   5.482  0.00  0.00    -0.264 N 
ATOM     24  C   UNL     1      -0.512  -5.511   4.265  0.00  0.00    +0.253 C 
ATOM     25  O   UNL     1      -1.680  -5.741   4.031  0.00  0.00    -0.272 OA
ENDROOT
BRANCH  23  26
ATOM     26  C   UNL     1      -0.702  -5.401   6.741  0.00  0.00    +0.150 C 
BRANCH  26  27
ATOM     27  C   UNL     1      -1.218  -4.029   7.090  0.00  0.00    -0.011 A 
ATOM     28  C   UNL     1      -0.547  -3.254   8.018  0.00  0.00    +0.006 A 
ATOM     29  C   UNL     1      -1.020  -1.995   8.339  0.00  0.00    +0.000 A 
ATOM     30  C   UNL     1      -2.163  -1.510   7.732  0.00  0.00    +0.001 A 
ATOM     31  C   UNL     1      -2.835  -2.284   6.804  0.00  0.00    +0.020 A 
ATOM     32  C   UNL     1      -2.359  -3.542   6.479  0.00  0.00    +0.046 A 
ATOM     33 CL   UNL     1      -3.198  -4.512   5.309  0.00  0.00    -0.083 Cl
ENDBRANCH  26  27
ENDBRANCH  23  26
BRANCH  15  34
ATOM     34  C   UNL     1       1.034  -7.933   3.007  0.00  0.00    +0.112 C 
BRANCH  34  35
ATOM     35  C   UNL     1       2.548  -8.143   3.057  0.00  0.00    +0.047 C 
BRANCH  35  36
ATOM     36  C   UNL     1       2.852  -9.533   3.619  0.00  0.00    +0.157 C 
BRANCH  36  37
ATOM     37  O   UNL     1       4.267  -9.729   3.667  0.00  0.00    -0.395 OA
ATOM     38  H   UNL     1       4.533 -10.591   4.014  0.00  0.00    +0.209 HD
ENDBRANCH  36  37
ENDBRANCH  35  36
ENDBRANCH  34  35
ENDBRANCH  15  34
TORSDOF 6
