REMARK  Name = ZINC67150168
REMARK  8 active torsions:
REMARK  status: ('A' for Active; 'I' for Inactive)
REMARK    1  A    between atoms: C_1  and  N_2
REMARK    2  A    between atoms: N_2  and  C_3
REMARK    3  A    between atoms: C_3  and  C_4
REMARK    4  A    between atoms: N_12  and  C_13
REMARK    5  A    between atoms: C_13  and  C_14
REMARK    6  A    between atoms: C_14  and  C_15
REMARK    7  A    between atoms: N_17  and  N_18
REMARK    8  A    between atoms: C_19  and  C_21
REMARK                            x       y       z     vdW  Elec       q    Type
REMARK                         _______ _______ _______ _____ _____    ______ ____
ROOT
ATOM      1  C   UNL     1      -0.049  -0.463  -6.072  0.00  0.00    +0.231 C 
ATOM      2  O   UNL     1      -0.033  -1.676  -6.078  0.00  0.00    -0.274 OA
ATOM      3  N   UNL     1      -0.070   0.217  -7.235  0.00  0.00    -0.234 N 
ATOM      4  H   UNL     1      -0.083   1.187  -7.230  0.00  0.00    +0.173 HD
ENDROOT
BRANCH   3   5
ATOM      5  N   UNL     1      -0.072  -0.477  -8.452  0.00  0.00    -0.231 N 
ATOM      6  C   UNL     1      -0.092   0.203  -9.615  0.00  0.00    +0.270 C 
ATOM      7  O   UNL     1      -0.108   1.416  -9.609  0.00  0.00    -0.270 OA
ATOM      8  H   UNL     1      -0.058  -1.447  -8.457  0.00  0.00    +0.173 HD
BRANCH   6   9
ATOM      9  C   UNL     1      -0.094  -0.543 -10.925  0.00  0.00    +0.264 C 
ATOM     10  C   UNL     1      -1.422  -1.314 -11.114  0.00  0.00    +0.093 C 
ATOM     11  C   UNL     1      -2.255  -0.315 -11.895  0.00  0.00    -0.002 A 
ATOM     12  C   UNL     1      -3.606  -0.240 -12.155  0.00  0.00    +0.007 A 
ATOM     13  C   UNL     1      -4.108   0.807 -12.906  0.00  0.00    +0.000 A 
ATOM     14  C   UNL     1      -3.250   1.775 -13.394  0.00  0.00    +0.004 A 
ATOM     15  C   UNL     1      -1.897   1.700 -13.138  0.00  0.00    +0.046 A 
ATOM     16  C   UNL     1      -1.382   0.648 -12.385  0.00  0.00    +0.125 A 
ATOM     17  O   UNL     1      -0.092   0.372 -12.033  0.00  0.00    -0.479 OA
ENDBRANCH   6   9
ENDBRANCH   3   5
BRANCH   1  18
ATOM     18  C   UNL     1      -0.047   0.283  -4.762  0.00  0.00    +0.116 C 
BRANCH  18  19
ATOM     19  C   UNL     1      -0.022  -0.717  -3.605  0.00  0.00    +0.115 C 
BRANCH  19  24
ATOM     20  C   UNL     1      -0.018   1.461   0.010  0.00  0.00    +0.134 C 
ATOM     21  N   UNL     1       0.002  -0.004   0.002  0.00  0.00    -0.284 N 
ATOM     22  C   UNL     1       0.000  -0.672  -1.169  0.00  0.00    +0.302 C 
ATOM     23  O   UNL     1       0.017  -1.887  -1.175  0.00  0.00    -0.253 OA
ATOM     24  N   UNL     1      -0.020   0.009  -2.332  0.00  0.00    -0.299 N 
ATOM     25  H   UNL     1      -0.033   0.978  -2.327  0.00  0.00    +0.150 HD
BRANCH  21  26
ATOM     26  C   UNL     1       0.024  -0.743   1.267  0.00  0.00    +0.144 C 
BRANCH  26  27
ATOM     27  C   UNL     1      -1.389  -1.016   1.714  0.00  0.00    -0.030 A 
ATOM     28  C   UNL     1      -2.047  -0.105   2.518  0.00  0.00    +0.005 A 
ATOM     29  C   UNL     1      -3.344  -0.355   2.929  0.00  0.00    +0.000 A 
ATOM     30  C   UNL     1      -3.981  -1.516   2.534  0.00  0.00    +0.000 A 
ATOM     31  C   UNL     1      -3.323  -2.427   1.728  0.00  0.00    +0.000 A 
ATOM     32  C   UNL     1      -2.029  -2.175   1.315  0.00  0.00    +0.005 A 
ENDBRANCH  26  27
ENDBRANCH  21  26
ENDBRANCH  19  24
ENDBRANCH  18  19
ENDBRANCH   1  18
TORSDOF 7
