REMARK  Name = ZINC14476169
REMARK  7 active torsions:
REMARK  status: ('A' for Active; 'I' for Inactive)
REMARK    1  A    between atoms: C_3  and  O_37
REMARK    2  A    between atoms: C_4  and  C_10
REMARK    3  A    between atoms: C_6  and  N_7
REMARK    4  A    between atoms: C_21  and  S_26
REMARK    5  A    between atoms: S_26  and  N_29
REMARK    6  A    between atoms: N_29  and  C_30
REMARK    7  A    between atoms: C_30  and  C_31
REMARK                            x       y       z     vdW  Elec       q    Type
REMARK                         _______ _______ _______ _____ _____    ______ ____
ROOT
ATOM      1  C   UNL     1       3.710  -0.717  -0.038  0.00  0.00    +0.108 C 
ATOM      2  C   UNL     1       4.219  -0.913   1.379  0.00  0.00    +0.029 C 
ATOM      3  C   UNL     1       4.361   0.340   2.252  0.00  0.00    +0.033 C 
ATOM      4  C   UNL     1       4.136  -0.233   3.653  0.00  0.00    -0.030 C 
ATOM      5  C   UNL     1       3.398  -1.334   3.579  0.00  0.00    -0.023 C 
ATOM      6  C   UNL     1       3.052  -1.599   2.149  0.00  0.00    +0.049 C 
ATOM      7  C   UNL     1       2.886  -2.962   1.600  0.00  0.00    -0.018 A 
ATOM      8  C   UNL     1       2.521  -4.036   2.383  0.00  0.00    +0.034 A 
ATOM      9  C   UNL     1       2.365  -5.290   1.819  0.00  0.00    +0.106 A 
ATOM     10  C   UNL     1       2.575  -5.469   0.464  0.00  0.00    +0.030 A 
ATOM     11  C   UNL     1       2.946  -4.401  -0.327  0.00  0.00    +0.025 A 
ATOM     12  C   UNL     1       3.112  -3.139   0.230  0.00  0.00    +0.031 A 
ATOM     13  N   UNL     1       3.524  -2.077  -0.589  0.00  0.00    -0.336 N 
ATOM     14  H   UNL     1       3.690  -2.236  -1.531  0.00  0.00    +0.147 HD
ENDROOT
BRANCH   1  18
ATOM     15  C   UNL     1      -0.017   1.378   0.010  0.00  0.00    +0.036 A 
ATOM     16  C   UNL     1       1.170   2.086   0.002  0.00  0.00    +0.048 A 
ATOM     17  C   UNL     1       2.380   1.409  -0.013  0.00  0.00    +0.122 A 
ATOM     18  C   UNL     1       2.396   0.022  -0.021  0.00  0.00    +0.017 A 
ATOM     19  C   UNL     1       1.208  -0.681  -0.013  0.00  0.00    +0.041 A 
ATOM     20  C   UNL     1       0.002  -0.004   0.002  0.00  0.00    +0.127 A 
BRANCH  20  21
ATOM     21  N   UNL     1      -1.270  -0.760   0.011  0.00  0.00    +0.056 N 
ATOM     22  O   UNL     1      -2.325  -0.169   0.024  0.00  0.00    -0.126 OA
ATOM     23  O   UNL     1      -1.255  -1.969   0.004  0.00  0.00    -0.126 OA
ENDBRANCH  20  21
BRANCH  17  24
ATOM     24  O   UNL     1       3.548   2.104  -0.021  0.00  0.00    -0.506 OA
ATOM     25  H   UNL     1       3.895   2.300   0.860  0.00  0.00    +0.292 HD
ENDBRANCH  17  24
ENDBRANCH   1  18
BRANCH   9  26
ATOM     26  S   UNL     1       1.901  -6.658   2.828  0.00  0.00    +0.058 S 
ATOM     27  O   UNL     1       2.353  -7.827   2.159  0.00  0.00    -0.153 OA
ATOM     28  O   UNL     1       2.297  -6.337   4.154  0.00  0.00    -0.153 OA
BRANCH  26  29
ATOM     29  N   UNL     1       0.246  -6.724   2.831  0.00  0.00    -0.187 NA
ATOM     30  H   UNL     1      -0.244  -6.572   3.654  0.00  0.00    +0.148 HD
BRANCH  29  31
ATOM     31  C   UNL     1      -0.478  -7.012   1.590  0.00  0.00    +0.137 C 
BRANCH  31  32
ATOM     32  C   UNL     1      -1.925  -7.384   1.918  0.00  0.00    +0.134 C 
ATOM     33  C   UNL     1      -2.663  -7.806   0.629  0.00  0.00    +0.035 C 
ATOM     34  C   UNL     1      -4.068  -7.175   0.832  0.00  0.00    +0.031 C 
ATOM     35  C   UNL     1      -3.700  -5.878   1.597  0.00  0.00    +0.160 C 
ATOM     36  O   UNL     1      -2.609  -6.246   2.458  0.00  0.00    -0.375 OA
ENDBRANCH  31  32
ENDBRANCH  29  31
ENDBRANCH  26  29
ENDBRANCH   9  26
TORSDOF 7
