REMARK  Name = ZINC35585928
REMARK  9 active torsions:
REMARK  status: ('A' for Active; 'I' for Inactive)
REMARK    1  A    between atoms: C_1  and  C_2
REMARK    2  A    between atoms: C_2  and  C_3
REMARK    3  A    between atoms: C_3  and  N_4
REMARK    4  A    between atoms: N_4  and  C_5
REMARK    5  A    between atoms: C_5  and  C_7
REMARK    6  A    between atoms: C_5  and  C_14
REMARK    7  A    between atoms: C_15  and  C_22
REMARK    8  A    between atoms: C_17  and  C_21
REMARK    9  A    between atoms: C_19  and  C_20
REMARK                            x       y       z     vdW  Elec       q    Type
REMARK                         _______ _______ _______ _____ _____    ______ ____
ROOT
ATOM      1  C   UNL     1      -3.196  -2.431  -0.420  0.00  0.00    -0.008 C 
ENDROOT
BRANCH   1   2
ATOM      2  C   UNL     1      -2.232  -3.561  -0.168  0.00  0.00    -0.051 A 
ATOM      3  C   UNL     1      -1.497  -4.089  -1.213  0.00  0.00    -0.048 A 
ATOM      4  C   UNL     1      -0.613  -5.126  -0.982  0.00  0.00    +0.007 A 
ATOM      5  C   UNL     1      -0.463  -5.635   0.294  0.00  0.00    -0.050 A 
ATOM      6  C   UNL     1      -1.197  -5.107   1.340  0.00  0.00    +0.007 A 
ATOM      7  C   UNL     1      -2.078  -4.067   1.110  0.00  0.00    -0.048 A 
ATOM      8  C   UNL     1      -2.875  -3.488   2.250  0.00  0.00    +0.044 C 
ATOM      9  C   UNL     1       0.500  -6.766   0.546  0.00  0.00    +0.044 C 
ATOM     10  C   UNL     1      -1.661  -3.534  -2.604  0.00  0.00    +0.044 C 
ENDBRANCH   1   2
BRANCH   1  11
ATOM     11  C   UNL     1      -3.244  -1.532   0.789  0.00  0.00    -0.035 A 
ATOM     12  C   UNL     1      -2.167  -0.726   1.108  0.00  0.00    +0.026 A 
ATOM     13  C   UNL     1      -2.243   0.070   2.203  0.00  0.00    +0.056 A 
ATOM     14  S   UNL     1      -3.873  -0.309   2.823  0.00  0.00    -0.074 S 
ATOM     15  C   UNL     1      -4.346  -1.498   1.579  0.00  0.00    +0.058 A 
ATOM     16 BR   UNL     1      -5.964  -2.463   1.407  0.00  0.00    -0.042 Br
ATOM     17 BR   UNL     1      -0.955   1.270   2.894  0.00  0.00    -0.043 Br
ENDBRANCH   1  11
BRANCH   1  18
ATOM     18  N   UNL     1      -2.750  -1.658  -1.587  0.00  0.00    +0.386 N 
ATOM     19  H   UNL     1      -2.908  -2.195  -2.426  0.00  0.00    -0.085 HD
ATOM     20  H   UNL     1      -1.766  -1.453  -1.498  0.00  0.00    -0.085 HD
BRANCH  18  21
ATOM     21  C   UNL     1      -3.508  -0.402  -1.661  0.00  0.00    -0.082 C 
BRANCH  21  23
ATOM     22  C   UNL     1      -3.833   1.712  -2.953  0.00  0.00    +0.002 C 
ATOM     23  C   UNL     1      -3.044   0.403  -2.876  0.00  0.00    -0.022 C 
ENDBRANCH  21  23
ENDBRANCH  18  21
ENDBRANCH   1  18
TORSDOF 5
