REMARK  Name = ZINC64057958
REMARK  11 active torsions:
REMARK  status: ('A' for Active; 'I' for Inactive)
REMARK    1  A    between atoms: C_1  and  C_2
REMARK    2  A    between atoms: C_4  and  C_13
REMARK    3  A    between atoms: C_13  and  C_14
REMARK    4  A    between atoms: C_14  and  N_15
REMARK    5  A    between atoms: C_16  and  C_18
REMARK    6  A    between atoms: C_18  and  C_19
REMARK    7  A    between atoms: C_19  and  C_20
REMARK    8  A    between atoms: C_20  and  C_26
REMARK    9  A    between atoms: C_26  and  C_27
REMARK   10  A    between atoms: C_29  and  O_34
REMARK   11  A    between atoms: O_34  and  C_35
REMARK                            x       y       z     vdW  Elec       q    Type
REMARK                         _______ _______ _______ _____ _____    ______ ____
ROOT
ATOM      1  C   UNL     1      -7.112  -1.171  -2.358  0.00  0.00    +0.098 C 
ENDROOT
BRANCH   1   3
ATOM      2  N   UNL     1      -4.800  -0.884  -1.526  0.00  0.00    -0.315 N 
ATOM      3  C   UNL     1      -6.063  -1.284  -1.281  0.00  0.00    +0.213 C 
ATOM      4  O   UNL     1      -6.356  -1.735  -0.194  0.00  0.00    -0.276 OA
ATOM      5  H   UNL     1      -4.566  -0.523  -2.396  0.00  0.00    +0.149 HD
BRANCH   2   6
ATOM      6  C   UNL     1      -3.781  -0.994  -0.480  0.00  0.00    +0.108 C 
BRANCH   6   7
ATOM      7  C   UNL     1      -2.444  -0.475  -1.014  0.00  0.00    +0.052 C 
BRANCH   7  10
ATOM      8  C   UNL     1       0.177   1.308  -0.335  0.00  0.00    +0.035 C 
ATOM      9  C   UNL     1       0.060  -0.189  -0.040  0.00  0.00    +0.103 C 
ATOM     10  C   UNL     1      -1.395  -0.588   0.063  0.00  0.00    -0.037 C 
ATOM     11  C   UNL     1      -1.565  -1.066   1.317  0.00  0.00    +0.001 A 
ATOM     12  C   UNL     1      -2.733  -1.603   2.026  0.00  0.00    +0.030 A 
ATOM     13  C   UNL     1      -2.590  -2.013   3.308  0.00  0.00    +0.042 A 
ATOM     14  C   UNL     1      -1.358  -1.937   3.973  0.00  0.00    +0.022 A 
ATOM     15  C   UNL     1      -0.242  -1.455   3.388  0.00  0.00    +0.027 A 
ATOM     16  C   UNL     1      -0.277  -0.996   2.042  0.00  0.00    +0.043 A 
ATOM     17  N   UNL     1       0.656  -0.495   1.266  0.00  0.00    -0.378 N 
ATOM     18 CL   UNL     1      -3.969  -2.649   4.150  0.00  0.00    -0.084 Cl
ATOM     19  H   UNL     1       1.582  -0.350   1.513  0.00  0.00    +0.160 HD
ENDBRANCH   7  10
ENDBRANCH   6   7
ENDBRANCH   2   6
ENDBRANCH   1   3
BRANCH   1  20
ATOM     20  C   UNL     1      -8.449  -1.690  -1.824  0.00  0.00    +0.035 C 
BRANCH  20  21
ATOM     21  C   UNL     1      -9.520  -1.545  -2.906  0.00  0.00    +0.039 C 
ATOM     22  C   UNL     1      -9.700  -0.059  -3.286  0.00  0.00    +0.035 C 
ATOM     23  C   UNL     1      -9.986  -0.152  -4.803  0.00  0.00    +0.098 C 
ATOM     24  C   UNL     1      -9.345  -1.458  -5.221  0.00  0.00    +0.214 C 
ATOM     25  O   UNL     1      -9.096  -1.774  -6.365  0.00  0.00    -0.276 OA
ATOM     26  N   UNL     1      -9.091  -2.215  -4.140  0.00  0.00    -0.309 N 
ATOM     27  H   UNL     1      -8.676  -3.091  -4.171  0.00  0.00    +0.149 HD
BRANCH  21  28
ATOM     28  C   UNL     1     -10.846  -2.133  -2.419  0.00  0.00    +0.064 C 
BRANCH  28  29
ATOM     29  C   UNL     1     -10.679  -3.610  -2.168  0.00  0.00    -0.007 A 
ATOM     30  C   UNL     1     -10.374  -4.065  -0.900  0.00  0.00    +0.052 A 
ATOM     31  C   UNL     1     -10.221  -5.423  -0.669  0.00  0.00    +0.121 A 
ATOM     32  C   UNL     1     -10.374  -6.324  -1.713  0.00  0.00    +0.048 A 
ATOM     33  C   UNL     1     -10.678  -5.867  -2.980  0.00  0.00    +0.042 A 
ATOM     34  C   UNL     1     -10.836  -4.510  -3.208  0.00  0.00    +0.127 A 
ATOM     35  F   UNL     1     -11.139  -4.065  -4.447  0.00  0.00    -0.205 F 
BRANCH  31  36
ATOM     36  O   UNL     1      -9.921  -5.872   0.579  0.00  0.00    -0.495 OA
ATOM     37  C   UNL     1      -9.777  -7.285   0.743  0.00  0.00    +0.277 C 
ENDBRANCH  31  36
ENDBRANCH  28  29
ENDBRANCH  21  28
ENDBRANCH  20  21
ENDBRANCH   1  20
TORSDOF 9
