REMARK  Name = ZINC36032327
REMARK  17 active torsions:
REMARK  status: ('A' for Active; 'I' for Inactive)
REMARK    1  A    between atoms: C_1  and  C_2
REMARK    2  A    between atoms: C_2  and  C_3
REMARK    3  A    between atoms: C_2  and  N_4
REMARK    4  A    between atoms: N_4  and  C_5
REMARK    5  A    between atoms: C_5  and  N_7
REMARK    6  A    between atoms: N_7  and  C_8
REMARK    7  A    between atoms: N_7  and  C_13
REMARK    8  A    between atoms: C_8  and  C_9
REMARK    9  A    between atoms: C_9  and  N_10
REMARK   10  A    between atoms: N_10  and  C_11
REMARK   11  A    between atoms: N_10  and  C_12
REMARK   12  A    between atoms: C_13  and  C_14
REMARK   13  A    between atoms: C_17  and  S_26
REMARK   14  A    between atoms: N_18  and  C_19
REMARK   15  A    between atoms: C_19  and  C_20
REMARK   16  A    between atoms: S_26  and  C_29
REMARK   17  A    between atoms: C_29  and  C_30
REMARK                            x       y       z     vdW  Elec       q    Type
REMARK                         _______ _______ _______ _____ _____    ______ ____
ROOT
ATOM      1  C   UNL     1       1.883   0.469  -4.028  0.00  0.00    +0.057 A 
ATOM      2  C   UNL     1       2.155   1.006  -5.232  0.00  0.00    +0.137 A 
ATOM      3  N   UNL     1       1.251   1.967  -5.471  0.00  0.00    -0.220 NA
ATOM      4  C   UNL     1       0.429   2.046  -4.460  0.00  0.00    +0.252 A 
ATOM      5  N   UNL     1       0.785   1.124  -3.540  0.00  0.00    -0.309 N 
ENDROOT
BRANCH   4   6
ATOM      6  S   UNL     1      -0.925   3.165  -4.322  0.00  0.00    +0.034 S 
ATOM      7  O   UNL     1      -1.119   3.329  -2.924  0.00  0.00    -0.166 OA
ATOM      8  O   UNL     1      -0.566   4.271  -5.139  0.00  0.00    -0.166 OA
BRANCH   6   9
ATOM      9  C   UNL     1      -2.334   2.283  -5.048  0.00  0.00    +0.210 C 
BRANCH   9  10
ATOM     10  C   UNL     1      -3.561   3.156  -4.983  0.00  0.00    -0.026 A 
ATOM     11  C   UNL     1      -4.388   3.104  -3.876  0.00  0.00    +0.008 A 
ATOM     12  C   UNL     1      -5.513   3.905  -3.815  0.00  0.00    +0.038 A 
ATOM     13  C   UNL     1      -5.811   4.759  -4.863  0.00  0.00    +0.123 A 
ATOM     14  C   UNL     1      -4.982   4.811  -5.971  0.00  0.00    +0.038 A 
ATOM     15  C   UNL     1      -3.855   4.013  -6.027  0.00  0.00    +0.008 A 
ATOM     16  F   UNL     1      -6.911   5.542  -4.804  0.00  0.00    -0.205 F 
ENDBRANCH   9  10
ENDBRANCH   6   9
ENDBRANCH   4   6
BRANCH   1  17
ATOM     17  C   UNL     1       2.640  -0.644  -3.349  0.00  0.00    +0.161 C 
BRANCH  17  18
ATOM     18  N   UNL     1       2.010  -1.928  -3.669  0.00  0.00    -0.309 N 
BRANCH  18  19
ATOM     19  C   UNL     1       2.310  -2.557  -4.823  0.00  0.00    +0.133 C 
ATOM     20  S   UNL     1       1.481  -3.990  -5.257  0.00  0.00    -0.019 S 
BRANCH  19  21
ATOM     21  N   UNL     1       3.263  -2.057  -5.635  0.00  0.00    -0.324 N 
ATOM     22  H   UNL     1       3.682  -1.208  -5.425  0.00  0.00    +0.148 HD
BRANCH  21  24
ATOM     23  C   UNL     1       2.748  -2.417  -7.999  0.00  0.00    +0.027 C 
ATOM     24  C   UNL     1       3.665  -2.796  -6.834  0.00  0.00    +0.066 C 
ATOM     25  C   UNL     1       5.111  -2.446  -7.189  0.00  0.00    +0.027 C 
ENDBRANCH  21  24
ENDBRANCH  19  21
ENDBRANCH  18  19
BRANCH  18  26
ATOM     26  C   UNL     1       1.055  -2.528  -2.735  0.00  0.00    +0.088 C 
BRANCH  26  27
ATOM     27  C   UNL     1       1.815  -3.280  -1.640  0.00  0.00    -0.060 C 
BRANCH  27  28
ATOM     28  N   UNL     1       0.857  -3.881  -0.704  0.00  0.00    +0.377 N 
ATOM     29  C   UNL     1       1.580  -4.701   0.278  0.00  0.00    -0.097 C 
ATOM     30  C   UNL     1       0.121  -2.819  -0.006  0.00  0.00    -0.097 C 
ATOM     31  H   UNL     1       0.207  -4.462  -1.213  0.00  0.00    -0.083 HD
ENDBRANCH  27  28
ENDBRANCH  26  27
ENDBRANCH  18  26
ENDBRANCH  17  18
ENDBRANCH   1  17
BRANCH   5  32
ATOM     32  C   UNL     1       0.121   0.873  -2.259  0.00  0.00    +0.156 C 
BRANCH  32  33
ATOM     33  C   UNL     1       0.853   1.631  -1.149  0.00  0.00    +0.138 C 
ATOM     34  C   UNL     1       0.202   1.319   0.216  0.00  0.00    +0.035 C 
ATOM     35  C   UNL     1       0.245   2.700   0.925  0.00  0.00    +0.031 C 
ATOM     36  C   UNL     1       0.037   3.655  -0.277  0.00  0.00    +0.160 C 
ATOM     37  O   UNL     1       0.743   3.042  -1.370  0.00  0.00    -0.375 OA
ENDBRANCH  32  33
ENDBRANCH   5  32
TORSDOF 13
