REMARK  Name = ZINC39636668
REMARK  10 active torsions:
REMARK  status: ('A' for Active; 'I' for Inactive)
REMARK    1  A    between atoms: C_1  and  C_2
REMARK    2  A    between atoms: C_5  and  C_35
REMARK    3  A    between atoms: C_6  and  C_8
REMARK    4  A    between atoms: C_8  and  N_9
REMARK    5  A    between atoms: C_10  and  C_12
REMARK    6  A    between atoms: C_23  and  C_25
REMARK    7  A    between atoms: C_25  and  C_26
REMARK    8  A    between atoms: C_26  and  C_27
REMARK    9  A    between atoms: C_30  and  O_33
REMARK   10  A    between atoms: O_33  and  C_34
REMARK                            x       y       z     vdW  Elec       q    Type
REMARK                         _______ _______ _______ _____ _____    ______ ____
ROOT
ATOM      1  C   UNL     1       3.085  -4.431   4.205  0.00  0.00    +0.100 C 
ATOM      2  C   UNL     1       4.035  -3.214   4.273  0.00  0.00    +0.121 C 
ATOM      3  N   UNL     1       4.102  -2.871   5.713  0.00  0.00    -0.300 N 
ATOM      4  C   UNL     1       4.135  -4.183   6.403  0.00  0.00    +0.115 C 
ATOM      5  C   UNL     1       3.156  -5.066   5.604  0.00  0.00    -0.004 C 
ATOM      6  C   UNL     1       1.779  -5.053   6.261  0.00  0.00    -0.010 C 
ATOM      7  C   UNL     1       1.864  -5.741   7.626  0.00  0.00    -0.082 C 
ATOM      8  N   UNL     1       2.333  -7.121   7.453  0.00  0.00    +0.379 N 
ATOM      9  C   UNL     1       3.695  -7.122   6.907  0.00  0.00    -0.082 C 
ATOM     10  C   UNL     1       3.688  -6.493   5.511  0.00  0.00    -0.010 C 
ATOM     11  C   UNL     1       4.127  -1.644   6.270  0.00  0.00    +0.216 C 
ATOM     12  O   UNL     1       4.183  -1.526   7.475  0.00  0.00    -0.276 OA
ATOM     13  H   UNL     1       2.330  -7.590   8.346  0.00  0.00    -0.086 HD
ATOM     14  H   UNL     1       1.717  -7.607   6.819  0.00  0.00    -0.086 HD
ENDROOT
BRANCH   1  16
ATOM     15  N   UNL     1       0.834  -4.806   3.250  0.00  0.00    -0.311 N 
ATOM     16  C   UNL     1       1.679  -3.983   3.903  0.00  0.00    +0.218 C 
ATOM     17  O   UNL     1       1.306  -2.881   4.247  0.00  0.00    -0.275 OA
ATOM     18  H   UNL     1       1.132  -5.687   2.975  0.00  0.00    +0.149 HD
BRANCH  15  19
ATOM     19  C   UNL     1      -0.533  -4.370   2.957  0.00  0.00    +0.139 C 
BRANCH  19  25
ATOM     20  C   UNL     1      -2.235  -6.345  -1.315  0.00  0.00    +0.044 C 
ATOM     21  C   UNL     1      -2.079  -6.411   0.182  0.00  0.00    -0.050 A 
ATOM     22  C   UNL     1      -2.606  -7.479   0.886  0.00  0.00    +0.003 A 
ATOM     23  C   UNL     1      -2.463  -7.540   2.259  0.00  0.00    +0.004 A 
ATOM     24  C   UNL     1      -1.792  -6.533   2.929  0.00  0.00    -0.046 A 
ATOM     25  C   UNL     1      -1.264  -5.467   2.226  0.00  0.00    -0.027 A 
ATOM     26  C   UNL     1      -1.404  -5.408   0.852  0.00  0.00    +0.008 A 
ATOM     27  C   UNL     1      -1.636  -6.599   4.427  0.00  0.00    +0.044 C 
ENDBRANCH  19  25
ENDBRANCH  15  19
ENDBRANCH   1  16
BRANCH  11  28
ATOM     28  C   UNL     1       4.084  -0.418   5.394  0.00  0.00    +0.100 C 
BRANCH  28  29
ATOM     29  C   UNL     1       4.124   0.836   6.269  0.00  0.00    +0.044 C 
BRANCH  29  30
ATOM     30  C   UNL     1       4.082   2.061   5.393  0.00  0.00    -0.047 A 
ATOM     31  C   UNL     1       5.259   2.620   4.931  0.00  0.00    +0.007 A 
ATOM     32  C   UNL     1       5.223   3.744   4.129  0.00  0.00    +0.046 A 
ATOM     33  C   UNL     1       4.004   4.311   3.786  0.00  0.00    +0.120 A 
ATOM     34  C   UNL     1       2.824   3.748   4.250  0.00  0.00    +0.046 A 
ATOM     35  C   UNL     1       2.865   2.621   5.048  0.00  0.00    +0.007 A 
BRANCH  33  36
ATOM     36  O   UNL     1       3.966   5.417   2.997  0.00  0.00    -0.495 OA
ATOM     37  C   UNL     1       2.676   5.947   2.684  0.00  0.00    +0.277 C 
ENDBRANCH  33  36
ENDBRANCH  29  30
ENDBRANCH  28  29
ENDBRANCH  11  28
TORSDOF 7
