REMARK  Name = ZINC20617991
REMARK  5 active torsions:
REMARK  status: ('A' for Active; 'I' for Inactive)
REMARK    1  A    between atoms: C_4  and  C_7
REMARK    2  A    between atoms: C_7  and  N_8
REMARK    3  A    between atoms: C_11  and  N_14
REMARK    4  A    between atoms: C_15  and  C_17
REMARK    5  A    between atoms: C_20  and  N_23
REMARK                            x       y       z     vdW  Elec       q    Type
REMARK                         _______ _______ _______ _____ _____    ______ ____
ROOT
ATOM      1  N   UNL     1       0.987   8.668   0.412  0.00  0.00    -0.309 N 
ATOM      2  C   UNL     1      -0.268   8.178   0.423  0.00  0.00    +0.244 C 
ATOM      3  O   UNL     1      -1.216   8.934   0.520  0.00  0.00    -0.270 OA
ATOM      4  H   UNL     1       1.844   7.984   0.325  0.00  0.00    +0.149 HD
ENDROOT
BRANCH   1   8
ATOM      5  N   UNL     1       2.754  12.443  -0.209  0.00  0.00    +0.382 N 
ATOM      6  C   UNL     1       2.854  11.883   1.145  0.00  0.00    -0.077 C 
ATOM      7  C   UNL     1       2.604  10.374   1.095  0.00  0.00    +0.004 C 
ATOM      8  C   UNL     1       1.210  10.112   0.517  0.00  0.00    +0.070 C 
ATOM      9  C   UNL     1       1.115  10.747  -0.873  0.00  0.00    +0.004 C 
ATOM     10  C   UNL     1       1.409  12.245  -0.766  0.00  0.00    -0.077 C 
ATOM     11  H   UNL     1       3.465  11.901  -0.849  0.00  0.00    -0.081 HD
BRANCH   5  12
ATOM     12  C   UNL     1       3.124  13.864  -0.220  0.00  0.00    -0.043 C 
BRANCH  12  16
ATOM     13  C   UNL     1       3.474  15.213  -4.258  0.00  0.00    +0.000 A 
ATOM     14  C   UNL     1       2.259  15.297  -3.604  0.00  0.00    +0.000 A 
ATOM     15  C   UNL     1       2.146  14.860  -2.297  0.00  0.00    +0.002 A 
ATOM     16  C   UNL     1       3.248  14.340  -1.645  0.00  0.00    -0.064 A 
ATOM     17  C   UNL     1       4.464  14.261  -2.297  0.00  0.00    +0.002 A 
ATOM     18  C   UNL     1       4.576  14.692  -3.605  0.00  0.00    +0.000 A 
ENDBRANCH  12  16
ENDBRANCH   5  12
ENDBRANCH   1   8
BRANCH   2  19
ATOM     19  C   UNL     1      -0.493   6.723   0.318  0.00  0.00    +0.037 A 
ATOM     20  C   UNL     1      -1.794   6.213   0.329  0.00  0.00    +0.015 A 
ATOM     21  C   UNL     1      -2.001   4.856   0.231  0.00  0.00    +0.028 A 
ATOM     22  C   UNL     1      -0.915   3.991   0.120  0.00  0.00    +0.067 A 
ATOM     23  C   UNL     1       0.382   4.496   0.115  0.00  0.00    +0.028 A 
ATOM     24  C   UNL     1       0.595   5.853   0.207  0.00  0.00    +0.015 A 
BRANCH  22  25
ATOM     25  N   UNL     1      -1.127   2.618   0.022  0.00  0.00    -0.226 NA
ATOM     26  C   UNL     1      -0.186   1.818  -0.588  0.00  0.00    +0.155 C 
ATOM     27  N   UNL     1       0.918   2.206  -1.221  0.00  0.00    -0.318 N 
ATOM     28  C   UNL     1       1.672   1.193  -1.881  0.00  0.00    +0.108 C 
ATOM     29  C   UNL     1       3.089   1.345  -2.401  0.00  0.00    +0.189 C 
ATOM     30  S   UNL     1       3.479  -0.421  -2.803  0.00  0.00    -0.028 S 
ATOM     31  O   UNL     1       4.619  -0.825  -2.058  0.00  0.00    -0.174 OA
ATOM     32  O   UNL     1       3.469  -0.588  -4.214  0.00  0.00    -0.174 OA
ATOM     33  C   UNL     1       1.969  -1.227  -2.087  0.00  0.00    +0.182 C 
ATOM     34  C   UNL     1       1.595  -0.147  -1.064  0.00  0.00    +0.097 C 
ATOM     35  S   UNL     1      -0.189   0.022  -0.708  0.00  0.00    -0.084 S 
ATOM     36  H   UNL     1       1.258   3.251  -1.249  0.00  0.00    +0.148 HD
ENDBRANCH  22  25
ENDBRANCH   2  19
TORSDOF 5
