REMARK  Name = ZINC16121166
REMARK  10 active torsions:
REMARK  status: ('A' for Active; 'I' for Inactive)
REMARK    1  A    between atoms: C_1  and  C_2
REMARK    2  A    between atoms: C_7  and  S_30
REMARK    3  A    between atoms: C_12  and  C_14
REMARK    4  A    between atoms: C_14  and  S_15
REMARK    5  A    between atoms: S_15  and  C_16
REMARK    6  A    between atoms: N_20  and  C_21
REMARK    7  A    between atoms: C_24  and  C_27
REMARK    8  A    between atoms: C_27  and  C_28
REMARK    9  A    between atoms: C_27  and  C_29
REMARK   10  A    between atoms: S_30  and  N_33
REMARK                            x       y       z     vdW  Elec       q    Type
REMARK                         _______ _______ _______ _____ _____    ______ ____
ROOT
ATOM      1  C   UNL     1      -6.824   2.270   1.315  0.00  0.00    +0.029 C 
ATOM      2  C   UNL     1      -6.582   1.445   0.050  0.00  0.00    +0.083 C 
ATOM      3  C   UNL     1      -7.481   0.198   0.042  0.00  0.00    +0.059 C 
ATOM      4  C   UNL     1      -6.516  -0.967   0.032  0.00  0.00    -0.022 A 
ATOM      5  C   UNL     1      -6.742  -2.330   0.027  0.00  0.00    +0.034 A 
ATOM      6  C   UNL     1      -5.676  -3.210   0.018  0.00  0.00    +0.105 A 
ATOM      7  C   UNL     1      -4.382  -2.723   0.013  0.00  0.00    +0.030 A 
ATOM      8  C   UNL     1      -4.152  -1.364   0.019  0.00  0.00    +0.026 A 
ATOM      9  C   UNL     1      -5.224  -0.469   0.028  0.00  0.00    +0.040 A 
ATOM     10  N   UNL     1      -5.210   0.930   0.034  0.00  0.00    -0.267 N 
ATOM     11  C   UNL     1      -4.098   1.692   0.032  0.00  0.00    +0.230 C 
ATOM     12  O   UNL     1      -4.192   2.901   0.039  0.00  0.00    -0.274 OA
ENDROOT
BRANCH   6  13
ATOM     13  S   UNL     1      -5.966  -4.948   0.010  0.00  0.00    +0.056 S 
ATOM     14  O   UNL     1      -7.264  -5.141  -0.535  0.00  0.00    -0.153 OA
ATOM     15  O   UNL     1      -4.808  -5.551  -0.550  0.00  0.00    -0.153 OA
BRANCH  13  16
ATOM     16  N   UNL     1      -6.039  -5.439   1.590  0.00  0.00    -0.204 NA
ATOM     17  H   UNL     1      -5.927  -4.793   2.304  0.00  0.00    +0.144 HD
ATOM     18  H   UNL     1      -6.193  -6.373   1.801  0.00  0.00    +0.144 HD
ENDBRANCH  13  16
ENDBRANCH   6  13
BRANCH  11  19
ATOM     19  C   UNL     1      -2.739   1.041   0.022  0.00  0.00    +0.173 C 
BRANCH  19  20
ATOM     20  S   UNL     1      -1.458   2.320   0.022  0.00  0.00    -0.078 S 
BRANCH  20  21
ATOM     21  C   UNL     1      -0.016   1.309   0.009  0.00  0.00    +0.174 A 
ATOM     22  N   UNL     1       0.002  -0.004   0.002  0.00  0.00    -0.230 NA
ATOM     23  C   UNL     1       1.276  -0.432  -0.012  0.00  0.00    +0.131 A 
ATOM     24  C   UNL     1       2.084   0.641  -0.014  0.00  0.00    +0.113 A 
ATOM     25  N   UNL     1       1.273   1.756  -0.001  0.00  0.00    -0.295 N 
BRANCH  25  26
ATOM     26  C   UNL     1       1.692   3.094   0.002  0.00  0.00    +0.048 A 
ATOM     27  C   UNL     1       1.159   3.991  -0.913  0.00  0.00    +0.026 A 
ATOM     28  C   UNL     1       1.570   5.310  -0.905  0.00  0.00    +0.006 A 
ATOM     29  C   UNL     1       2.519   5.734   0.006  0.00  0.00    -0.045 A 
ATOM     30  C   UNL     1       3.056   4.841   0.915  0.00  0.00    +0.006 A 
ATOM     31  C   UNL     1       2.645   3.522   0.915  0.00  0.00    +0.026 A 
BRANCH  29  32
ATOM     32  C   UNL     1       2.970   7.172   0.009  0.00  0.00    +0.013 C 
ATOM     33  C   UNL     1       3.581   7.517  -1.350  0.00  0.00    +0.012 C 
ATOM     34  C   UNL     1       1.769   8.082   0.275  0.00  0.00    +0.012 C 
ENDBRANCH  29  32
ENDBRANCH  25  26
ENDBRANCH  20  21
ENDBRANCH  19  20
ENDBRANCH  11  19
TORSDOF 7
