REMARK  Name = ZINC67492994
REMARK  8 active torsions:
REMARK  status: ('A' for Active; 'I' for Inactive)
REMARK    1  A    between atoms: C_1  and  C_2
REMARK    2  A    between atoms: C_9  and  N_12
REMARK    3  A    between atoms: C_13  and  C_15
REMARK    4  A    between atoms: N_17  and  C_18
REMARK    5  A    between atoms: C_18  and  C_19
REMARK    6  A    between atoms: C_19  and  N_20
REMARK    7  A    between atoms: N_20  and  C_21
REMARK    8  A    between atoms: C_24  and  N_27
REMARK                            x       y       z     vdW  Elec       q    Type
REMARK                         _______ _______ _______ _____ _____    ______ ____
ROOT
ATOM      1  C   UNL     1      -0.159  -1.860   6.072  0.00  0.00    +0.299 C 
ATOM      2  O   UNL     1      -0.176  -0.646   6.056  0.00  0.00    -0.265 OA
ATOM      3  N   UNL     1      -0.246  -2.519   7.244  0.00  0.00    -0.306 N 
ATOM      4  H   UNL     1      -0.233  -3.489   7.257  0.00  0.00    +0.149 HD
ENDROOT
BRANCH   1   6
ATOM      5  N   UNL     1       0.046  -1.962   3.622  0.00  0.00    -0.276 N 
ATOM      6  C   UNL     1      -0.041  -2.622   4.794  0.00  0.00    +0.303 C 
ATOM      7  O   UNL     1      -0.024  -3.836   4.810  0.00  0.00    -0.265 OA
ATOM      8  H   UNL     1       0.113  -0.995   3.614  0.00  0.00    +0.155 HD
BRANCH   5  17
ATOM      9  C   UNL     1       2.401   0.969   0.317  0.00  0.00    +0.065 C 
ATOM     10  C   UNL     1       1.763  -0.394   0.226  0.00  0.00    +0.039 A 
ATOM     11  C   UNL     1       1.777  -1.069  -0.992  0.00  0.00    +0.023 A 
ATOM     12  C   UNL     1       1.204  -2.305  -1.093  0.00  0.00    +0.012 A 
ATOM     13  C   UNL     1       0.612  -2.859   0.058  0.00  0.00    +0.002 A 
ATOM     14  C   UNL     1       0.005  -4.125   0.029  0.00  0.00    +0.010 A 
ATOM     15  C   UNL     1      -0.559  -4.634   1.160  0.00  0.00    +0.003 A 
ATOM     16  C   UNL     1      -0.546  -3.917   2.352  0.00  0.00    +0.025 A 
ATOM     17  C   UNL     1       0.040  -2.671   2.421  0.00  0.00    +0.060 A 
ATOM     18  C   UNL     1       0.634  -2.117   1.264  0.00  0.00    +0.092 A 
ATOM     19  N   UNL     1       1.215  -0.915   1.297  0.00  0.00    -0.250 NA
ENDBRANCH   5  17
ENDBRANCH   1   6
BRANCH   3  20
ATOM     20  C   UNL     1      -0.362  -1.772   8.499  0.00  0.00    +0.123 C 
BRANCH  20  21
ATOM     21  C   UNL     1      -0.445  -2.752   9.671  0.00  0.00    +0.120 C 
BRANCH  21  22
ATOM     22  N   UNL     1      -0.560  -2.004  10.925  0.00  0.00    -0.342 N 
ATOM     23  H   UNL     1      -0.574  -1.034  10.912  0.00  0.00    +0.146 HD
BRANCH  22  24
ATOM     24  C   UNL     1      -0.651  -2.688  12.140  0.00  0.00    +0.027 A 
ATOM     25  C   UNL     1      -0.625  -4.076  12.161  0.00  0.00    +0.025 A 
ATOM     26  C   UNL     1      -0.715  -4.749  13.364  0.00  0.00    +0.034 A 
ATOM     27  C   UNL     1      -0.829  -4.042  14.546  0.00  0.00    +0.126 A 
ATOM     28  C   UNL     1      -0.855  -2.659  14.529  0.00  0.00    +0.034 A 
ATOM     29  C   UNL     1      -0.760  -1.980  13.331  0.00  0.00    +0.025 A 
BRANCH  27  30
ATOM     30  N   UNL     1      -0.925  -4.766  15.834  0.00  0.00    +0.056 N 
ATOM     31  O   UNL     1      -0.903  -5.975  15.850  0.00  0.00    -0.126 OA
ATOM     32  O   UNL     1      -1.025  -4.149  16.869  0.00  0.00    -0.126 OA
ENDBRANCH  27  30
ENDBRANCH  22  24
ENDBRANCH  21  22
ENDBRANCH  20  21
ENDBRANCH   3  20
TORSDOF 7
