REMARK  Name = ZINC07007624
REMARK  9 active torsions:
REMARK  status: ('A' for Active; 'I' for Inactive)
REMARK    1  A    between atoms: C_1  and  C_2
REMARK    2  A    between atoms: C_2  and  N_52
REMARK    3  A    between atoms: C_3  and  C_4
REMARK    4  A    between atoms: C_3  and  N_52
REMARK    5  A    between atoms: C_15  and  C_16
REMARK    6  A    between atoms: C_15  and  N_52
REMARK    7  A    between atoms: N_18  and  C_19
REMARK    8  A    between atoms: C_22  and  N_25
REMARK    9  A    between atoms: C_26  and  C_28
REMARK                            x       y       z     vdW  Elec       q    Type
REMARK                         _______ _______ _______ _____ _____    ______ ____
ROOT
ATOM      1  C   UNL     1      -0.181   9.930   0.278  0.00  0.00    +0.019 C 
ENDROOT
BRANCH   1   2
ATOM      2  C   UNL     1      -0.157   8.431   0.134  0.00  0.00    +0.201 C 
ATOM      3  O   UNL     1       0.889   7.860  -0.095  0.00  0.00    -0.278 OA
ATOM      4  N   UNL     1      -1.297   7.723   0.258  0.00  0.00    -0.287 N 
ATOM      5  H   UNL     1      -2.120   8.169   0.511  0.00  0.00    +0.155 HD
BRANCH   4   6
ATOM      6  C   UNL     1      -1.294   6.342   0.021  0.00  0.00    +0.033 A 
ATOM      7  C   UNL     1      -2.395   5.736  -0.569  0.00  0.00    +0.025 A 
ATOM      8  C   UNL     1      -2.392   4.376  -0.803  0.00  0.00    +0.025 A 
ATOM      9  C   UNL     1      -1.287   3.613  -0.448  0.00  0.00    +0.033 A 
ATOM     10  C   UNL     1      -0.188   4.218   0.147  0.00  0.00    +0.025 A 
ATOM     11  C   UNL     1      -0.189   5.579   0.376  0.00  0.00    +0.025 A 
BRANCH   9  12
ATOM     12  N   UNL     1      -1.284   2.233  -0.685  0.00  0.00    -0.286 N 
ATOM     13  C   UNL     1      -0.125   1.597  -0.949  0.00  0.00    +0.214 C 
ATOM     14  O   UNL     1       0.901   2.232  -1.073  0.00  0.00    -0.276 OA
ATOM     15  C   UNL     1      -0.104   0.097  -1.094  0.00  0.00    +0.109 C 
ATOM     16  H   UNL     1      -2.116   1.734  -0.660  0.00  0.00    +0.155 HD
ENDBRANCH   9  12
ENDBRANCH   4   6
ENDBRANCH   1   2
BRANCH   1  17
ATOM     17  N   UNL     1       1.194  10.447   0.119  0.00  0.00    +0.389 N 
ATOM     18  H   UNL     1       1.819   9.932   0.750  0.00  0.00    -0.081 HD
BRANCH  17  20
ATOM     19  C   UNL     1       0.791  11.070  -2.239  0.00  0.00    -0.017 C 
ATOM     20  C   UNL     1       1.649  10.251  -1.274  0.00  0.00    -0.081 C 
ENDBRANCH  17  20
BRANCH  17  21
ATOM     21  C   UNL     1       1.238  11.883   0.467  0.00  0.00    -0.022 C 
BRANCH  21  22
ATOM     22  C   UNL     1       2.670  12.350   0.430  0.00  0.00    +0.032 A 
ATOM     23  C   UNL     1       3.069  13.280  -0.509  0.00  0.00    +0.092 A 
ATOM     24  C   UNL     1       4.403  13.703  -0.520  0.00  0.00    +0.258 A 
ATOM     25  O   UNL     1       4.786  14.528  -1.334  0.00  0.00    -0.267 OA
ATOM     26  N   UNL     1       5.262  13.180   0.382  0.00  0.00    -0.268 N 
ATOM     27  C   UNL     1       6.564  13.577   0.381  0.00  0.00    +0.096 A 
ATOM     28  C   UNL     1       7.443  13.067   1.274  0.00  0.00    +0.018 A 
ATOM     29  C   UNL     1       7.019  12.120   2.216  0.00  0.00    +0.005 A 
ATOM     30  C   UNL     1       5.718  11.716   2.225  0.00  0.00    +0.047 A 
ATOM     31  C   UNL     1       4.819  12.257   1.288  0.00  0.00    +0.140 A 
ATOM     32  N   UNL     1       3.546  11.864   1.296  0.00  0.00    -0.236 NA
ENDBRANCH  21  22
ENDBRANCH  17  21
ENDBRANCH   1  17
TORSDOF 7
