REMARK  Name = ZINC39448111
REMARK  6 active torsions:
REMARK  status: ('A' for Active; 'I' for Inactive)
REMARK    1  A    between atoms: C_1  and  C_2
REMARK    2  A    between atoms: C_4  and  C_15
REMARK    3  A    between atoms: N_7  and  C_8
REMARK    4  A    between atoms: N_17  and  C_18
REMARK    5  A    between atoms: N_17  and  C_19
REMARK    6  A    between atoms: C_19  and  C_20
REMARK                            x       y       z     vdW  Elec       q    Type
REMARK                         _______ _______ _______ _____ _____    ______ ____
ROOT
ATOM      1  C   UNL     1      -0.754  -3.204  -0.980  0.00  0.00    +0.254 C 
ATOM      2  O   UNL     1      -1.306  -3.760  -0.055  0.00  0.00    -0.272 OA
ATOM      3  N   UNL     1      -1.005  -3.593  -2.246  0.00  0.00    -0.294 N 
ATOM      4  C   UNL     1      -0.338  -2.921  -3.365  0.00  0.00    +0.132 C 
ENDROOT
BRANCH   1   8
ATOM      5  C   UNL     1      -1.000   1.298   0.179  0.00  0.00    +0.082 C 
ATOM      6  C   UNL     1      -0.433  -0.095   0.077  0.00  0.00    +0.088 C 
ATOM      7  N   UNL     1      -0.413  -0.783  -1.013  0.00  0.00    -0.352 N 
ATOM      8  C   UNL     1       0.213  -2.080  -0.715  0.00  0.00    +0.254 C 
ATOM      9  N   UNL     1       0.541  -2.006   0.723  0.00  0.00    -0.204 NA
ATOM     10  N   UNL     1       0.122  -0.767   1.126  0.00  0.00    -0.222 N 
ATOM     11  H   UNL     1       0.073  -2.736   1.239  0.00  0.00    +0.148 HD
ATOM     12  H   UNL     1      -0.751  -0.496  -1.875  0.00  0.00    +0.163 HD
BRANCH  10  13
ATOM     13  C   UNL     1       0.241  -0.265   2.426  0.00  0.00    +0.051 A 
ATOM     14  C   UNL     1      -0.148  -1.041   3.510  0.00  0.00    +0.026 A 
ATOM     15  C   UNL     1      -0.029  -0.543   4.793  0.00  0.00    +0.022 A 
ATOM     16  C   UNL     1       0.477   0.728   4.998  0.00  0.00    +0.041 A 
ATOM     17  C   UNL     1       0.865   1.504   3.920  0.00  0.00    +0.022 A 
ATOM     18  C   UNL     1       0.754   1.008   2.635  0.00  0.00    +0.026 A 
ATOM     19 CL   UNL     1       0.624   1.352   6.612  0.00  0.00    -0.084 Cl
ENDBRANCH  10  13
ENDBRANCH   1   8
BRANCH   3  20
ATOM     20  C   UNL     1      -1.945  -4.686  -2.504  0.00  0.00    +0.181 C 
BRANCH  20  21
ATOM     21  C   UNL     1      -3.335  -4.127  -2.668  0.00  0.00    +0.128 A 
ATOM     22  N   UNL     1      -4.354  -4.992  -2.910  0.00  0.00    -0.309 N 
ATOM     23  H   UNL     1      -4.173  -5.942  -2.972  0.00  0.00    +0.170 HD
ATOM     24  C   UNL     1      -5.620  -4.539  -3.064  0.00  0.00    +0.259 A 
ATOM     25  O   UNL     1      -6.543  -5.303  -3.280  0.00  0.00    -0.267 OA
ATOM     26  C   UNL     1      -5.838  -3.088  -2.959  0.00  0.00    +0.065 A 
ATOM     27  C   UNL     1      -7.102  -2.521  -3.102  0.00  0.00    +0.015 A 
ATOM     28  C   UNL     1      -7.249  -1.155  -2.995  0.00  0.00    +0.001 A 
ATOM     29  C   UNL     1      -6.149  -0.344  -2.746  0.00  0.00    +0.002 A 
ATOM     30  C   UNL     1      -4.892  -0.885  -2.602  0.00  0.00    +0.028 A 
ATOM     31  C   UNL     1      -4.717  -2.267  -2.706  0.00  0.00    +0.078 A 
ATOM     32  N   UNL     1      -3.497  -2.842  -2.565  0.00  0.00    -0.232 NA
ENDBRANCH  20  21
ENDBRANCH   3  20
TORSDOF 4
