REMARK  Name = ZINC57718420
REMARK  9 active torsions:
REMARK  status: ('A' for Active; 'I' for Inactive)
REMARK    1  A    between atoms: C_1  and  C_2
REMARK    2  A    between atoms: C_2  and  O_3
REMARK    3  A    between atoms: O_3  and  C_4
REMARK    4  A    between atoms: C_11  and  C_16
REMARK    5  A    between atoms: C_16  and  N_17
REMARK    6  A    between atoms: N_17  and  C_18
REMARK    7  A    between atoms: C_21  and  N_24
REMARK    8  A    between atoms: C_26  and  C_33
REMARK    9  A    between atoms: C_29  and  C_32
REMARK                            x       y       z     vdW  Elec       q    Type
REMARK                         _______ _______ _______ _____ _____    ______ ____
ROOT
ATOM      1  N   UNL     1       4.343  -6.556  -4.731  0.00  0.00    -0.340 N 
ATOM      2  H   UNL     1       4.682  -6.347  -3.846  0.00  0.00    +0.146 HD
ENDROOT
BRANCH   1   3
ATOM      3  C   UNL     1       5.183  -7.143  -5.680  0.00  0.00    +0.027 A 
ATOM      4  C   UNL     1       4.700  -7.437  -6.949  0.00  0.00    +0.025 A 
ATOM      5  C   UNL     1       5.533  -8.018  -7.886  0.00  0.00    +0.023 A 
ATOM      6  C   UNL     1       6.846  -8.306  -7.561  0.00  0.00    +0.014 A 
ATOM      7  C   UNL     1       7.330  -8.014  -6.299  0.00  0.00    +0.023 A 
ATOM      8  C   UNL     1       6.504  -7.429  -5.360  0.00  0.00    +0.025 A 
BRANCH   6   9
ATOM      9  N   UNL     1       7.686  -8.894  -8.511  0.00  0.00    -0.393 NA
ATOM     10  C   UNL     1       8.159 -10.190  -8.009  0.00  0.00    +0.088 C 
ATOM     11  C   UNL     1       9.013 -10.874  -9.078  0.00  0.00    +0.002 C 
ATOM     12  C   UNL     1      10.215  -9.985  -9.410  0.00  0.00    +0.009 C 
ATOM     13  C   UNL     1       9.711  -8.611  -9.862  0.00  0.00    +0.002 C 
ATOM     14  C   UNL     1       8.831  -8.010  -8.764  0.00  0.00    +0.088 C 
ATOM     15  C   UNL     1       8.895  -8.763 -11.147  0.00  0.00    +0.009 C 
ATOM     16  C   UNL     1       9.505 -12.224  -8.552  0.00  0.00    +0.009 C 
ATOM     17  H   UNL     1       7.175  -9.034  -9.370  0.00  0.00    +0.126 HD
ENDBRANCH   6   9
ENDBRANCH   1   3
BRANCH   1  18
ATOM     18  C   UNL     1       2.950  -6.255  -5.071  0.00  0.00    +0.142 C 
BRANCH  18  26
ATOM     19  C   UNL     1       0.777  -1.811  -1.336  0.00  0.00    +0.121 A 
ATOM     20  C   UNL     1       0.239  -2.669  -0.380  0.00  0.00    +0.047 A 
ATOM     21  C   UNL     1       0.337  -4.034  -0.528  0.00  0.00    +0.030 A 
ATOM     22  C   UNL     1       0.978  -4.569  -1.641  0.00  0.00    +0.049 A 
ATOM     23  C   UNL     1       1.522  -3.705  -2.610  0.00  0.00    +0.002 A 
ATOM     24  C   UNL     1       1.412  -2.320  -2.451  0.00  0.00    +0.055 A 
ATOM     25  C   UNL     1       2.194  -4.281  -3.777  0.00  0.00    +0.020 A 
ATOM     26  C   UNL     1       2.267  -5.631  -3.882  0.00  0.00    +0.034 A 
ATOM     27  C   UNL     1       1.704  -6.453  -2.883  0.00  0.00    +0.254 A 
ATOM     28  O   UNL     1       1.780  -7.664  -2.997  0.00  0.00    -0.268 OA
ATOM     29  N   UNL     1       1.085  -5.934  -1.808  0.00  0.00    -0.322 N 
ATOM     30  H   UNL     1       0.710  -6.529  -1.139  0.00  0.00    +0.169 HD
BRANCH  19  31
ATOM     31  O   UNL     1       0.671  -0.465  -1.174  0.00  0.00    -0.492 OA
BRANCH  31  33
ATOM     32  C   UNL     1      -0.019   1.526   0.010  0.00  0.00    +0.048 C 
ATOM     33  C   UNL     1       0.002  -0.004   0.002  0.00  0.00    +0.225 C 
ENDBRANCH  31  33
ENDBRANCH  19  31
ENDBRANCH  18  26
ENDBRANCH   1  18
TORSDOF 6
