REMARK  Name = ZINC44973764
REMARK  5 active torsions:
REMARK  status: ('A' for Active; 'I' for Inactive)
REMARK    1  A    between atoms: C_4  and  C_7
REMARK    2  A    between atoms: C_7  and  S_8
REMARK    3  A    between atoms: S_8  and  C_9
REMARK    4  A    between atoms: C_20  and  C_22
REMARK    5  A    between atoms: C_27  and  N_28
REMARK                            x       y       z     vdW  Elec       q    Type
REMARK                         _______ _______ _______ _____ _____    ______ ____
ROOT
ATOM      1  C   UNL     1       7.088   0.118   4.453  0.00  0.00    +0.171 A 
ATOM      2  N   UNL     1       7.991  -0.705   5.055  0.00  0.00    -0.302 N 
ATOM      3  H   UNL     1       8.199  -0.590   5.996  0.00  0.00    +0.171 HD
ATOM      4  C   UNL     1       8.597  -1.681   4.346  0.00  0.00    +0.258 A 
ATOM      5  O   UNL     1       9.409  -2.422   4.876  0.00  0.00    -0.267 OA
ATOM      6  C   UNL     1       8.275  -1.827   2.991  0.00  0.00    +0.069 A 
ATOM      7  C   UNL     1       7.348  -0.967   2.429  0.00  0.00    +0.135 A 
ATOM      8  N   UNL     1       6.778  -0.019   3.180  0.00  0.00    -0.208 NA
ATOM      9  N   UNL     1       7.012  -1.100   1.096  0.00  0.00    -0.302 N 
ATOM     10  C   UNL     1       7.263  -2.267   0.427  0.00  0.00    +0.017 C 
ATOM     11  C   UNL     1       8.160  -3.159   0.898  0.00  0.00    +0.024 C 
ATOM     12  C   UNL     1       8.929  -2.896   2.168  0.00  0.00    +0.095 C 
ATOM     13  C   UNL     1       8.407  -4.365   0.220  0.00  0.00    +0.162 C 
ATOM     14  O   UNL     1       9.227  -5.143   0.666  0.00  0.00    -0.292 OA
ATOM     15  C   UNL     1       7.676  -4.713  -1.047  0.00  0.00    +0.080 C 
ATOM     16  C   UNL     1       6.303  -4.032  -1.034  0.00  0.00    +0.014 C 
ATOM     17  C   UNL     1       6.511  -2.527  -0.856  0.00  0.00    +0.051 C 
ATOM     18  H   UNL     1       6.595  -0.359   0.629  0.00  0.00    +0.153 HD
ENDROOT
BRANCH  12  19
ATOM     19  C   UNL     1      10.329  -2.461   1.816  0.00  0.00    -0.005 A 
ATOM     20  C   UNL     1      10.525  -1.376   0.981  0.00  0.00    +0.007 A 
ATOM     21  C   UNL     1      11.809  -0.977   0.658  0.00  0.00    +0.000 A 
ATOM     22  C   UNL     1      12.895  -1.661   1.170  0.00  0.00    +0.002 A 
ATOM     23  C   UNL     1      12.698  -2.745   2.005  0.00  0.00    +0.033 A 
ATOM     24  C   UNL     1      11.415  -3.142   2.331  0.00  0.00    +0.130 A 
BRANCH  24  25
ATOM     25  N   UNL     1      11.204  -4.300   3.229  0.00  0.00    +0.057 N 
ATOM     26  O   UNL     1      11.883  -4.427   4.221  0.00  0.00    -0.126 OA
ATOM     27  O   UNL     1      10.352  -5.118   2.971  0.00  0.00    -0.126 OA
ENDBRANCH  24  25
ENDBRANCH  12  19
BRANCH   1  28
ATOM     28  S   UNL     1       6.312   1.387   5.399  0.00  0.00    -0.083 S 
BRANCH  28  29
ATOM     29  C   UNL     1       5.209   2.205   4.213  0.00  0.00    +0.112 C 
BRANCH  29  33
ATOM     30  C   UNL     1       3.127   5.384   6.164  0.00  0.00    +0.000 A 
ATOM     31  C   UNL     1       4.343   5.626   5.554  0.00  0.00    +0.000 A 
ATOM     32  C   UNL     1       5.017   4.598   4.923  0.00  0.00    +0.004 A 
ATOM     33  C   UNL     1       4.475   3.326   4.902  0.00  0.00    -0.037 A 
ATOM     34  C   UNL     1       3.259   3.083   5.513  0.00  0.00    +0.004 A 
ATOM     35  C   UNL     1       2.584   4.112   6.143  0.00  0.00    +0.000 A 
ENDBRANCH  29  33
ENDBRANCH  28  29
ENDBRANCH   1  28
TORSDOF 5
