REMARK  Name = ZINC67470404
REMARK  9 active torsions:
REMARK  status: ('A' for Active; 'I' for Inactive)
REMARK    1  A    between atoms: C_1  and  C_2
REMARK    2  A    between atoms: C_2  and  N_3
REMARK    3  A    between atoms: C_4  and  C_6
REMARK    4  A    between atoms: N_15  and  C_16
REMARK    5  A    between atoms: C_16  and  C_18
REMARK    6  A    between atoms: C_16  and  C_19
REMARK    7  A    between atoms: C_23  and  S_25
REMARK    8  A    between atoms: S_25  and  N_28
REMARK    9  A    between atoms: N_28  and  C_29
REMARK                            x       y       z     vdW  Elec       q    Type
REMARK                         _______ _______ _______ _____ _____    ______ ____
ROOT
ATOM      1  C   UNL     1       1.581  -2.312   2.617  0.00  0.00    +0.092 C 
ATOM      2  C   UNL     1       1.602  -3.842   2.609  0.00  0.00    +0.016 C 
ATOM      3  C   UNL     1       2.314  -4.351   3.864  0.00  0.00    +0.020 C 
ATOM      4  C   UNL     1       3.761  -3.847   3.866  0.00  0.00    +0.109 C 
ATOM      5  N   UNL     1       3.752  -2.384   3.728  0.00  0.00    -0.285 N 
ATOM      6  C   UNL     1       3.019  -1.784   2.605  0.00  0.00    +0.122 C 
ATOM      7  C   UNL     1       4.404  -1.607   4.615  0.00  0.00    +0.303 C 
ATOM      8  O   UNL     1       4.467  -0.405   4.439  0.00  0.00    -0.253 OA
ATOM      9  N   UNL     1       4.987  -2.161   5.696  0.00  0.00    -0.293 N 
ATOM     10  H   UNL     1       5.001  -3.126   5.798  0.00  0.00    +0.151 HD
ENDROOT
BRANCH   1  12
ATOM     11  N   UNL     1       0.708  -0.488   1.192  0.00  0.00    -0.315 N 
ATOM     12  C   UNL     1       0.851  -1.812   1.397  0.00  0.00    +0.218 C 
ATOM     13  O   UNL     1       0.392  -2.603   0.599  0.00  0.00    -0.275 OA
ATOM     14  H   UNL     1       1.075   0.144   1.830  0.00  0.00    +0.149 HD
BRANCH  11  16
ATOM     15  C   UNL     1      -0.021   1.527   0.013  0.00  0.00    +0.024 C 
ATOM     16  C   UNL     1      -0.001  -0.003   0.005  0.00  0.00    +0.101 C 
ENDBRANCH  11  16
ENDBRANCH   1  12
BRANCH   9  17
ATOM     17  C   UNL     1       5.600  -1.307   6.717  0.00  0.00    +0.102 C 
ATOM     18  C   UNL     1       7.032  -0.965   6.302  0.00  0.00    +0.033 C 
BRANCH  17  19
ATOM     19  C   UNL     1       5.619  -2.036   8.036  0.00  0.00    -0.026 A 
ATOM     20  C   UNL     1       5.922  -3.384   8.076  0.00  0.00    +0.005 A 
ATOM     21  C   UNL     1       5.940  -4.053   9.286  0.00  0.00    +0.002 A 
ATOM     22  C   UNL     1       5.655  -3.373  10.456  0.00  0.00    +0.028 A 
ATOM     23  C   UNL     1       5.353  -2.025  10.415  0.00  0.00    +0.106 A 
ATOM     24  C   UNL     1       5.339  -1.355   9.206  0.00  0.00    +0.034 A 
BRANCH  23  25
ATOM     25  S   UNL     1       4.989  -1.158  11.906  0.00  0.00    +0.058 S 
ATOM     26  O   UNL     1       4.205  -0.031  11.539  0.00  0.00    -0.153 OA
ATOM     27  O   UNL     1       4.537  -2.129  12.840  0.00  0.00    -0.153 OA
BRANCH  25  28
ATOM     28  N   UNL     1       6.421  -0.569  12.491  0.00  0.00    -0.193 NA
ATOM     29  C   UNL     1       7.161   0.444  11.734  0.00  0.00    +0.127 C 
ATOM     30  H   UNL     1       6.770  -0.894  13.336  0.00  0.00    +0.148 HD
ENDBRANCH  25  28
ENDBRANCH  23  25
ENDBRANCH  17  19
ENDBRANCH   9  17
TORSDOF 6
