REMARK  Name = ZINC39912237
REMARK  16 active torsions:
REMARK  status: ('A' for Active; 'I' for Inactive)
REMARK    1  A    between atoms: C_1  and  C_2
REMARK    2  A    between atoms: C_2  and  C_3
REMARK    3  A    between atoms: C_3  and  C_4
REMARK    4  A    between atoms: C_4  and  C_5
REMARK    5  A    between atoms: C_5  and  O_6
REMARK    6  A    between atoms: O_6  and  C_7
REMARK    7  A    between atoms: C_10  and  C_16
REMARK    8  A    between atoms: C_12  and  O_13
REMARK    9  A    between atoms: O_13  and  C_14
REMARK   10  A    between atoms: C_14  and  C_15
REMARK   11  A    between atoms: C_19  and  C_33
REMARK   12  A    between atoms: N_26  and  C_27
REMARK   13  A    between atoms: C_27  and  C_28
REMARK   14  A    between atoms: C_35  and  C_41
REMARK   15  A    between atoms: C_37  and  C_40
REMARK   16  A    between atoms: C_38  and  O_39
REMARK                            x       y       z     vdW  Elec       q    Type
REMARK                         _______ _______ _______ _____ _____    ______ ____
ROOT
ATOM      1  C   UNL     1       3.156  -6.288  -7.270  0.00  0.00    +0.142 C 
ATOM      2  C   UNL     1       2.050  -6.260  -8.289  0.00  0.00    +0.035 A 
ATOM      3  C   UNL     1       0.750  -6.649  -8.630  0.00  0.00    +0.102 A 
ATOM      4  N   UNL     1       0.496  -6.167  -9.830  0.00  0.00    -0.173 NA
ATOM      5  N   UNL     1       1.506  -5.511 -10.281  0.00  0.00    -0.272 N 
ATOM      6  H   UNL     1       1.543  -5.069 -11.143  0.00  0.00    +0.189 HD
ATOM      7  C   UNL     1       2.518  -5.529  -9.364  0.00  0.00    +0.126 A 
ATOM      8  C   UNL     1       3.886  -5.088  -9.068  0.00  0.00    +0.266 C 
ATOM      9  O   UNL     1       4.578  -4.423  -9.815  0.00  0.00    -0.268 OA
ATOM     10  N   UNL     1       4.268  -5.525  -7.853  0.00  0.00    -0.278 N 
ENDROOT
BRANCH   3  11
ATOM     11  C   UNL     1      -0.172  -7.457  -7.794  0.00  0.00    +0.044 A 
ATOM     12  C   UNL     1       0.273  -8.012  -6.597  0.00  0.00    +0.017 A 
ATOM     13  C   UNL     1      -0.589  -8.764  -5.823  0.00  0.00    -0.049 A 
ATOM     14  C   UNL     1      -1.895  -8.967  -6.232  0.00  0.00    +0.010 A 
ATOM     15  C   UNL     1      -2.346  -8.421  -7.419  0.00  0.00    -0.008 A 
ATOM     16  C   UNL     1      -1.494  -7.660  -8.202  0.00  0.00    +0.129 A 
ATOM     17  C   UNL     1      -3.770  -8.648  -7.858  0.00  0.00    +0.047 C 
ATOM     18  C   UNL     1      -0.105  -9.364  -4.528  0.00  0.00    +0.044 C 
BRANCH  16  19
ATOM     19  O   UNL     1      -1.939  -7.117  -9.365  0.00  0.00    -0.506 OA
ATOM     20  H   UNL     1      -1.821  -7.689 -10.136  0.00  0.00    +0.292 HD
ENDBRANCH  16  19
ENDBRANCH   3  11
BRANCH   1  24
ATOM     21  C   UNL     1       1.856  -4.455  -3.631  0.00  0.00    +0.162 A 
ATOM     22  C   UNL     1       2.083  -5.821  -3.680  0.00  0.00    +0.050 A 
ATOM     23  C   UNL     1       2.503  -6.410  -4.857  0.00  0.00    +0.009 A 
ATOM     24  C   UNL     1       2.698  -5.640  -5.989  0.00  0.00    -0.019 A 
ATOM     25  C   UNL     1       2.473  -4.277  -5.947  0.00  0.00    +0.055 A 
ATOM     26  C   UNL     1       2.046  -3.680  -4.772  0.00  0.00    +0.162 A 
BRANCH  21  27
ATOM     27  O   UNL     1       1.443  -3.873  -2.474  0.00  0.00    -0.488 OA
BRANCH  27  28
ATOM     28  C   UNL     1       1.268  -4.730  -1.343  0.00  0.00    +0.229 C 
BRANCH  28  29
ATOM     29  C   UNL     1       0.803  -3.903  -0.143  0.00  0.00    +0.041 C 
BRANCH  29  30
ATOM     30  C   UNL     1       0.617  -4.820   1.067  0.00  0.00    +0.003 C 
BRANCH  30  32
ATOM     31  C   UNL     1      -0.035  -4.910   3.477  0.00  0.00    +0.004 C 
ATOM     32  C   UNL     1       0.152  -3.993   2.267  0.00  0.00    -0.003 C 
ENDBRANCH  30  32
ENDBRANCH  29  30
ENDBRANCH  28  29
ENDBRANCH  27  28
ENDBRANCH  21  27
BRANCH  26  33
ATOM     33  O   UNL     1       1.819  -2.340  -4.731  0.00  0.00    -0.489 OA
BRANCH  33  34
ATOM     34  C   UNL     1       1.991  -1.615  -5.951  0.00  0.00    +0.226 C 
ATOM     35  C   UNL     1       1.634  -0.145  -5.725  0.00  0.00    +0.048 C 
ENDBRANCH  33  34
ENDBRANCH  26  33
ENDBRANCH   1  24
BRANCH  10  36
ATOM     36  C   UNL     1       5.566  -5.281  -7.220  0.00  0.00    +0.183 C 
BRANCH  36  37
ATOM     37  C   UNL     1       6.521  -6.387  -7.589  0.00  0.00    +0.122 A 
ATOM     38  C   UNL     1       7.343  -6.394  -8.654  0.00  0.00    +0.046 A 
ATOM     39  C   UNL     1       8.053  -7.615  -8.615  0.00  0.00    +0.041 A 
ATOM     40  C   UNL     1       7.624  -8.282  -7.528  0.00  0.00    +0.195 A 
ATOM     41  O   UNL     1       6.699  -7.530  -6.908  0.00  0.00    -0.466 OA
ENDBRANCH  36  37
ENDBRANCH  10  36
TORSDOF 12
