REMARK  Name = ZINC40570137
REMARK  12 active torsions:
REMARK  status: ('A' for Active; 'I' for Inactive)
REMARK    1  A    between atoms: C_1  and  N_2
REMARK    2  A    between atoms: C_7  and  C_19
REMARK    3  A    between atoms: C_9  and  N_18
REMARK    4  A    between atoms: C_10  and  C_14
REMARK    5  A    between atoms: C_14  and  O_16
REMARK    6  A    between atoms: O_16  and  C_17
REMARK    7  A    between atoms: C_21  and  O_29
REMARK    8  A    between atoms: C_22  and  O_27
REMARK    9  A    between atoms: C_24  and  O_25
REMARK   10  A    between atoms: O_25  and  C_26
REMARK   11  A    between atoms: O_27  and  C_28
REMARK   12  A    between atoms: O_29  and  C_30
REMARK                            x       y       z     vdW  Elec       q    Type
REMARK                         _______ _______ _______ _____ _____    ______ ____
ROOT
ATOM      1  C   UNL     1      -0.018   1.465   0.010  0.00  0.00    +0.105 C 
ATOM      2  N   UNL     1       0.002  -0.004   0.002  0.00  0.00    -0.301 NA
ATOM      3  C   UNL     1      -1.363  -0.550  -0.059  0.00  0.00    +0.090 C 
ATOM      4  C   UNL     1      -1.278  -2.029  -0.434  0.00  0.00    +0.069 C 
ATOM      5  C   UNL     1      -0.292  -2.732   0.466  0.00  0.00    +0.023 A 
ATOM      6  C   UNL     1       0.633  -2.031   1.211  0.00  0.00    -0.006 A 
ATOM      7  C   UNL     1       1.532  -2.716   2.027  0.00  0.00    +0.003 A 
ATOM      8  C   UNL     1       1.475  -4.141   2.082  0.00  0.00    +0.035 A 
ATOM      9  C   UNL     1       2.299  -5.055   2.853  0.00  0.00    +0.056 A 
ATOM     10  C   UNL     1       2.053  -6.409   2.743  0.00  0.00    +0.119 A 
ATOM     11  S   UNL     1       0.696  -6.487   1.590  0.00  0.00    -0.062 S 
ATOM     12  C   UNL     1       0.486  -4.751   1.281  0.00  0.00    +0.088 A 
ATOM     13  N   UNL     1      -0.336  -4.055   0.527  0.00  0.00    -0.352 N 
ATOM     14  C   UNL     1       0.705  -0.526   1.178  0.00  0.00    +0.121 C 
ATOM     15  H   UNL     1      -0.996  -4.527  -0.004  0.00  0.00    +0.166 HD
ENDROOT
BRANCH   7  16
ATOM     16  C   UNL     1       2.533  -1.976   2.826  0.00  0.00    +0.029 A 
ATOM     17  C   UNL     1       2.225  -1.563   4.125  0.00  0.00    +0.061 A 
ATOM     18  C   UNL     1       3.162  -0.872   4.867  0.00  0.00    +0.162 A 
ATOM     19  C   UNL     1       4.413  -0.585   4.323  0.00  0.00    +0.165 A 
ATOM     20  C   UNL     1       4.723  -0.992   3.035  0.00  0.00    +0.095 A 
ATOM     21  C   UNL     1       3.792  -1.691   2.285  0.00  0.00    +0.131 A 
BRANCH  21  22
ATOM     22  O   UNL     1       4.098  -2.096   1.025  0.00  0.00    -0.494 OA
ATOM     23  C   UNL     1       5.402  -1.771   0.538  0.00  0.00    +0.277 C 
ENDBRANCH  21  22
BRANCH  19  24
ATOM     24  O   UNL     1       5.332   0.096   5.058  0.00  0.00    -0.491 OA
ATOM     25  C   UNL     1       6.594   0.355   4.439  0.00  0.00    +0.277 C 
ENDBRANCH  19  24
BRANCH  18  26
ATOM     26  O   UNL     1       2.864  -0.469   6.132  0.00  0.00    -0.491 OA
ATOM     27  C   UNL     1       1.563  -0.795   6.627  0.00  0.00    +0.277 C 
ENDBRANCH  18  26
ENDBRANCH   7  16
BRANCH   9  28
ATOM     28  N   UNL     1       3.308  -4.580   3.678  0.00  0.00    -0.356 N 
ATOM     29  H   UNL     1       3.470  -3.626   3.746  0.00  0.00    +0.142 HD
ATOM     30  H   UNL     1       3.850  -5.202   4.188  0.00  0.00    +0.142 HD
ENDBRANCH   9  28
BRANCH  10  31
ATOM     31  C   UNL     1       2.717  -7.476   3.388  0.00  0.00    +0.348 C 
ATOM     32  O   UNL     1       3.635  -7.247   4.154  0.00  0.00    -0.244 OA
BRANCH  31  33
ATOM     33  O   UNL     1       2.334  -8.750   3.155  0.00  0.00    -0.464 OA
ATOM     34  C   UNL     1       3.050  -9.778   3.842  0.00  0.00    +0.280 C 
ENDBRANCH  31  33
ENDBRANCH  10  31
TORSDOF 7
