REMARK  Name = ZINC41147591
REMARK  4 active torsions:
REMARK  status: ('A' for Active; 'I' for Inactive)
REMARK    1  A    between atoms: C_1  and  C_2
REMARK    2  A    between atoms: C_2  and  N_3
REMARK    3  A    between atoms: N_17  and  S_20
REMARK    4  A    between atoms: S_20  and  C_23
REMARK                            x       y       z     vdW  Elec       q    Type
REMARK                         _______ _______ _______ _____ _____    ______ ____
ROOT
ATOM      1  N   UNL     1       1.098  -0.506  -1.000  0.00  0.00    -0.329 N 
ATOM      2  C   UNL     1       1.036  -1.843  -1.328  0.00  0.00    +0.131 A 
ATOM      3  C   UNL     1       1.499  -2.305  -2.586  0.00  0.00    +0.038 A 
ATOM      4  C   UNL     1       2.034  -1.438  -3.544  0.00  0.00    +0.013 A 
ATOM      5  C   UNL     1       2.463  -1.938  -4.738  0.00  0.00    +0.001 A 
ATOM      6  C   UNL     1       2.377  -3.299  -5.016  0.00  0.00    +0.002 A 
ATOM      7  C   UNL     1       1.860  -4.170  -4.104  0.00  0.00    +0.026 A 
ATOM      8  C   UNL     1       1.410  -3.691  -2.866  0.00  0.00    +0.052 A 
ATOM      9  N   UNL     1       0.894  -4.506  -1.934  0.00  0.00    -0.327 N 
ATOM     10  C   UNL     1       0.478  -4.023  -0.780  0.00  0.00    +0.198 A 
ATOM     11  N   UNL     1       0.549  -2.731  -0.473  0.00  0.00    -0.201 NA
ATOM     12  N   UNL     1      -0.047  -4.898   0.154  0.00  0.00    -0.299 N 
ATOM     13  C   UNL     1      -0.020  -6.348  -0.081  0.00  0.00    +0.125 C 
ATOM     14  C   UNL     1       0.678  -7.024   1.105  0.00  0.00    +0.128 C 
ATOM     15  N   UNL     1       0.083  -6.519   2.350  0.00  0.00    -0.173 NA
ATOM     16  C   UNL     1       0.055  -5.069   2.586  0.00  0.00    +0.128 C 
ATOM     17  C   UNL     1      -0.638  -4.394   1.402  0.00  0.00    +0.125 C 
ATOM     18  H   UNL     1       1.457   0.133  -1.635  0.00  0.00    +0.147 HD
ATOM     19  H   UNL     1       0.827  -5.458  -2.111  0.00  0.00    +0.169 HD
ENDROOT
BRANCH  15  20
ATOM     20  S   UNL     1      -0.547  -7.567   3.468  0.00  0.00    +0.067 S 
ATOM     21  O   UNL     1      -1.499  -6.830   4.223  0.00  0.00    -0.152 OA
ATOM     22  O   UNL     1      -0.886  -8.755   2.766  0.00  0.00    -0.152 OA
BRANCH  20  23
ATOM     23  C   UNL     1       0.755  -7.991   4.576  0.00  0.00    +0.144 A 
ATOM     24  C   UNL     1       1.123  -7.386   5.732  0.00  0.00    +0.037 A 
ATOM     25  C   UNL     1       2.190  -7.899   6.447  0.00  0.00    +0.025 A 
ATOM     26  C   UNL     1       2.836  -8.992   5.970  0.00  0.00    +0.057 A 
ATOM     27  S   UNL     1       1.927  -9.334   4.472  0.00  0.00    -0.062 S 
ATOM     28 BR   UNL     1       4.311  -9.918   6.706  0.00  0.00    -0.043 Br
ENDBRANCH  20  23
ENDBRANCH  15  20
BRANCH   1  30
ATOM     29  C   UNL     1       0.800   1.466   0.416  0.00  0.00    +0.024 C 
ATOM     30  C   UNL     1       0.621  -0.050   0.308  0.00  0.00    +0.099 C 
ENDBRANCH   1  30
TORSDOF 3
