REMARK  Name = ZINC23192344
REMARK  6 active torsions:
REMARK  status: ('A' for Active; 'I' for Inactive)
REMARK    1  A    between atoms: C_3  and  C_22
REMARK    2  A    between atoms: C_6  and  C_7
REMARK    3  A    between atoms: C_7  and  N_8
REMARK    4  A    between atoms: C_13  and  C_15
REMARK    5  A    between atoms: C_27  and  C_29
REMARK    6  A    between atoms: C_29  and  N_30
REMARK                            x       y       z     vdW  Elec       q    Type
REMARK                         _______ _______ _______ _____ _____    ______ ____
ROOT
ATOM      1  C   UNL     1      -0.017   1.379   0.010  0.00  0.00    +0.002 A 
ATOM      2  C   UNL     1       1.167   2.088   0.002  0.00  0.00    +0.012 A 
ATOM      3  C   UNL     1       2.385   1.407  -0.013  0.00  0.00    +0.017 A 
ATOM      4  C   UNL     1       2.397   0.011  -0.021  0.00  0.00    +0.012 A 
ATOM      5  C   UNL     1       1.206  -0.686  -0.013  0.00  0.00    +0.002 A 
ATOM      6  C   UNL     1       0.002  -0.004   0.002  0.00  0.00    -0.064 A 
ENDROOT
BRANCH   3   7
ATOM      7  C   UNL     1       3.657   2.160  -0.022  0.00  0.00    +0.142 A 
ATOM      8  N   UNL     1       3.629   3.476  -0.009  0.00  0.00    -0.191 NA
ATOM      9  C   UNL     1       4.768   4.185  -0.016  0.00  0.00    +0.274 A 
ATOM     10  O   UNL     1       4.733   5.406  -0.004  0.00  0.00    -0.266 OA
ATOM     11  C   UNL     1       6.013   3.507  -0.037  0.00  0.00    +0.094 A 
ATOM     12  C   UNL     1       6.020   2.155  -0.050  0.00  0.00    +0.036 A 
ATOM     13  N   UNL     1       4.835   1.481  -0.037  0.00  0.00    -0.342 N 
ATOM     14  H   UNL     1       4.833   0.511  -0.042  0.00  0.00    +0.167 HD
BRANCH  12  15
ATOM     15  C   UNL     1       7.325   1.401  -0.072  0.00  0.00    +0.131 C 
BRANCH  15  16
ATOM     16  N   UNL     1       7.471   0.637   1.175  0.00  0.00    -0.325 NA
ATOM     17  H   UNL     1       6.684   0.022   1.316  0.00  0.00    +0.119 HD
ATOM     18  H   UNL     1       8.338   0.123   1.184  0.00  0.00    +0.119 HD
ENDBRANCH  15  16
ENDBRANCH  12  15
ENDBRANCH   3   7
BRANCH   6  19
ATOM     19  C   UNL     1      -1.295  -0.772   0.011  0.00  0.00    -0.042 C 
BRANCH  19  20
ATOM     20  N   UNL     1      -1.730  -1.014  -1.371  0.00  0.00    +0.387 N 
ATOM     21  C   UNL     1      -0.758  -1.885  -2.043  0.00  0.00    -0.078 C 
ATOM     22  C   UNL     1      -1.163  -2.074  -3.506  0.00  0.00    -0.019 C 
ATOM     23  C   UNL     1      -2.553  -2.716  -3.566  0.00  0.00    -0.003 C 
ATOM     24  C   UNL     1      -3.544  -1.836  -2.799  0.00  0.00    -0.011 C 
ATOM     25  C   UNL     1      -3.050  -1.655  -1.362  0.00  0.00    -0.037 C 
ATOM     26  H   UNL     1      -1.788  -0.135  -1.863  0.00  0.00    -0.080 HD
BRANCH  25  27
ATOM     27  C   UNL     1      -4.022  -0.791  -0.602  0.00  0.00    -0.061 A 
ATOM     28  C   UNL     1      -3.989   0.583  -0.753  0.00  0.00    +0.005 A 
ATOM     29  C   UNL     1      -4.881   1.377  -0.057  0.00  0.00    +0.038 A 
ATOM     30  C   UNL     1      -5.808   0.796   0.791  0.00  0.00    +0.123 A 
ATOM     31  C   UNL     1      -5.841  -0.580   0.942  0.00  0.00    +0.038 A 
ATOM     32  C   UNL     1      -4.951  -1.372   0.241  0.00  0.00    +0.005 A 
ATOM     33  F   UNL     1      -6.680   1.572   1.472  0.00  0.00    -0.205 F 
ENDBRANCH  25  27
ENDBRANCH  19  20
ENDBRANCH   6  19
TORSDOF 6
