REMARK  Name = ZINC20347793
REMARK  11 active torsions:
REMARK  status: ('A' for Active; 'I' for Inactive)
REMARK    1  A    between atoms: C_1  and  C_2
REMARK    2  A    between atoms: C_5  and  N_8
REMARK    3  A    between atoms: C_9  and  C_11
REMARK    4  A    between atoms: C_11  and  S_12
REMARK    5  A    between atoms: S_12  and  C_13
REMARK    6  A    between atoms: C_14  and  C_36
REMARK    7  A    between atoms: C_15  and  C_31
REMARK    8  A    between atoms: C_17  and  C_21
REMARK    9  A    between atoms: C_18  and  C_20
REMARK   10  A    between atoms: N_23  and  C_24
REMARK   11  A    between atoms: C_29  and  C_30
REMARK                            x       y       z     vdW  Elec       q    Type
REMARK                         _______ _______ _______ _____ _____    ______ ____
ROOT
ATOM      1  C   UNL     1       3.489   3.262  -0.261  0.00  0.00    +0.080 C 
ATOM      2  C   UNL     1       2.361   3.993  -0.469  0.00  0.00    +0.069 C 
ATOM      3  C   UNL     1       1.005   3.454  -0.110  0.00  0.00    +0.105 C 
ATOM      4  C   UNL     1       1.060   1.968   0.098  0.00  0.00    +0.044 C 
ATOM      5  C   UNL     1       2.222   1.323   0.288  0.00  0.00    +0.014 C 
ATOM      6  N   UNL     1       3.412   1.998   0.279  0.00  0.00    -0.312 N 
ATOM      7  C   UNL     1       2.216  -0.168   0.507  0.00  0.00    +0.061 C 
ATOM      8  H   UNL     1       4.310   1.526   0.706  0.00  0.00    +0.152 HD
ENDROOT
BRANCH   3   9
ATOM      9  C   UNL     1       0.528   4.115   1.157  0.00  0.00    +0.002 A 
ATOM     10  C   UNL     1      -0.566   4.889   1.357  0.00  0.00    +0.012 A 
ATOM     11  C   UNL     1      -0.809   5.394   2.620  0.00  0.00    +0.008 A 
ATOM     12  C   UNL     1       0.055   5.100   3.623  0.00  0.00    +0.045 A 
ATOM     13  S   UNL     1       1.254   4.075   2.788  0.00  0.00    -0.101 S 
ENDBRANCH   3   9
BRANCH   4  14
ATOM     14  C   UNL     1      -0.147   1.228   0.099  0.00  0.00    +0.247 C 
ATOM     15  O   UNL     1      -0.720   0.994  -0.950  0.00  0.00    -0.270 OA
ATOM     16  N   UNL     1      -0.666   0.787   1.263  0.00  0.00    -0.281 N 
ATOM     17  H   UNL     1      -0.184   1.053   2.215  0.00  0.00    +0.155 HD
BRANCH  16  18
ATOM     18  C   UNL     1      -1.815  -0.010   1.259  0.00  0.00    +0.037 A 
ATOM     19  C   UNL     1      -2.716   0.073   0.204  0.00  0.00    +0.023 A 
ATOM     20  C   UNL     1      -3.846  -0.719   0.200  0.00  0.00    +0.002 A 
ATOM     21  C   UNL     1      -4.090  -1.585   1.250  0.00  0.00    +0.000 A 
ATOM     22  C   UNL     1      -3.199  -1.665   2.305  0.00  0.00    +0.005 A 
ATOM     23  C   UNL     1      -2.062  -0.880   2.312  0.00  0.00    -0.029 A 
ATOM     24  C   UNL     1      -1.092  -0.969   3.461  0.00  0.00    +0.045 C 
ENDBRANCH  16  18
ENDBRANCH   4  14
BRANCH   2  25
ATOM     25  C   UNL     1       2.468   5.302  -1.041  0.00  0.00    +0.098 C 
ATOM     26  N   UNL     1       2.553   6.340  -1.494  0.00  0.00    -0.191 NA
ENDBRANCH   2  25
BRANCH   1  27
ATOM     27  S   UNL     1       5.060   3.937  -0.687  0.00  0.00    -0.100 S 
BRANCH  27  28
ATOM     28  C   UNL     1       6.134   2.563  -0.203  0.00  0.00    +0.171 C 
BRANCH  28  30
ATOM     29  N   UNL     1       8.553   2.047  -0.202  0.00  0.00    -0.285 N 
ATOM     30  C   UNL     1       7.570   2.925  -0.484  0.00  0.00    +0.227 C 
ATOM     31  O   UNL     1       7.840   4.005  -0.965  0.00  0.00    -0.275 OA
ATOM     32  H   UNL     1       8.316   1.099   0.302  0.00  0.00    +0.155 HD
BRANCH  29  37
ATOM     33  C   UNL     1      13.915   3.247  -1.615  0.00  0.00    +0.044 C 
ATOM     34  C   UNL     1      12.491   2.928  -1.240  0.00  0.00    -0.050 A 
ATOM     35  C   UNL     1      11.641   3.941  -0.834  0.00  0.00    +0.005 A 
ATOM     36  C   UNL     1      10.335   3.652  -0.489  0.00  0.00    +0.023 A 
ATOM     37  C   UNL     1       9.876   2.343  -0.550  0.00  0.00    +0.033 A 
ATOM     38  C   UNL     1      10.733   1.328  -0.953  0.00  0.00    +0.023 A 
ATOM     39  C   UNL     1      12.036   1.624  -1.302  0.00  0.00    +0.005 A 
ENDBRANCH  29  37
ENDBRANCH  28  30
ENDBRANCH  27  28
ENDBRANCH   1  27
TORSDOF 8
