REMARK  Name = ZINC20508717
REMARK  7 active torsions:
REMARK  status: ('A' for Active; 'I' for Inactive)
REMARK    1  A    between atoms: C_1  and  C_2
REMARK    2  A    between atoms: N_5  and  C_8
REMARK    3  A    between atoms: C_8  and  C_9
REMARK    4  A    between atoms: C_12  and  N_15
REMARK    5  A    between atoms: C_16  and  C_18
REMARK    6  A    between atoms: N_28  and  C_36
REMARK    7  A    between atoms: C_29  and  C_31
REMARK                            x       y       z     vdW  Elec       q    Type
REMARK                         _______ _______ _______ _____ _____    ______ ____
ROOT
ATOM      1  C   UNL     1       4.130   1.936   1.442  0.00  0.00    +0.131 C 
ATOM      2  C   UNL     1       4.845   1.690   0.140  0.00  0.00    -0.021 A 
ATOM      3  C   UNL     1       6.221   1.721   0.075  0.00  0.00    +0.005 A 
ATOM      4  C   UNL     1       6.863   1.452  -1.122  0.00  0.00    +0.000 A 
ATOM      5  C   UNL     1       6.131   1.147  -2.256  0.00  0.00    +0.001 A 
ATOM      6  C   UNL     1       4.752   1.121  -2.205  0.00  0.00    +0.013 A 
ATOM      7  C   UNL     1       4.101   1.409  -1.008  0.00  0.00    +0.041 A 
ATOM      8  C   UNL     1       2.626   1.398  -0.920  0.00  0.00    +0.248 C 
ATOM      9  O   UNL     1       1.961   0.925  -1.821  0.00  0.00    -0.270 OA
ATOM     10  N   UNL     1       2.025   1.916   0.168  0.00  0.00    -0.286 N 
ATOM     11  C   UNL     1       2.795   2.629   1.186  0.00  0.00    +0.130 C 
ENDROOT
BRANCH  11  12
ATOM     12  C   UNL     1       2.003   2.668   2.468  0.00  0.00    +0.011 A 
ATOM     13  C   UNL     1       1.750   3.722   3.282  0.00  0.00    +0.013 A 
ATOM     14  C   UNL     1       0.991   3.522   4.420  0.00  0.00    +0.008 A 
ATOM     15  C   UNL     1       0.522   2.279   4.688  0.00  0.00    +0.045 A 
ATOM     16  S   UNL     1       1.155   1.341   3.307  0.00  0.00    -0.100 S 
ENDBRANCH  11  12
BRANCH  10  17
ATOM     17  C   UNL     1       0.578   1.763   0.335  0.00  0.00    +0.077 C 
ATOM     18  C   UNL     1       0.201   0.267   0.331  0.00  0.00    +0.022 C 
ATOM     19  C   UNL     1      -1.152   0.219  -0.424  0.00  0.00    +0.002 C 
ATOM     20  C   UNL     1      -0.960   1.279  -1.537  0.00  0.00    +0.002 C 
ATOM     21  C   UNL     1      -0.161   2.406  -0.853  0.00  0.00    +0.022 C 
ENDBRANCH  10  17
BRANCH   1  23
ATOM     22  N   UNL     1       4.325   0.429   3.395  0.00  0.00    -0.285 N 
ATOM     23  C   UNL     1       3.886   0.620   2.135  0.00  0.00    +0.227 C 
ATOM     24  O   UNL     1       3.294  -0.268   1.559  0.00  0.00    -0.275 OA
ATOM     25  H   UNL     1       4.785   1.261   3.949  0.00  0.00    +0.155 HD
BRANCH  22  29
ATOM     26  C   UNL     1       3.946  -3.310   5.191  0.00  0.00    -0.064 A 
ATOM     27  C   UNL     1       4.164  -3.218   3.829  0.00  0.00    +0.003 A 
ATOM     28  C   UNL     1       4.290  -1.980   3.231  0.00  0.00    +0.023 A 
ATOM     29  C   UNL     1       4.197  -0.827   3.998  0.00  0.00    +0.033 A 
ATOM     30  C   UNL     1       3.983  -0.922   5.367  0.00  0.00    +0.023 A 
ATOM     31  C   UNL     1       3.852  -2.164   5.959  0.00  0.00    +0.003 A 
BRANCH  26  32
ATOM     32  C   UNL     1       3.809  -4.663   5.841  0.00  0.00    -0.043 C 
BRANCH  32  37
ATOM     33  C   UNL     1       8.647  -6.325   8.392  0.00  0.00    +0.007 C 
ATOM     34  C   UNL     1       7.231  -5.804   8.138  0.00  0.00    -0.018 C 
ATOM     35  C   UNL     1       6.412  -6.880   7.419  0.00  0.00    -0.016 C 
ATOM     36  C   UNL     1       5.016  -6.333   7.113  0.00  0.00    -0.078 C 
ATOM     37  N   UNL     1       5.132  -5.136   6.270  0.00  0.00    +0.382 N 
ATOM     38  C   UNL     1       5.875  -4.072   6.957  0.00  0.00    -0.078 C 
ATOM     39  C   UNL     1       7.296  -4.552   7.259  0.00  0.00    -0.016 C 
ATOM     40  H   UNL     1       5.701  -5.414   5.370  0.00  0.00    -0.081 HD
ENDBRANCH  32  37
ENDBRANCH  26  32
ENDBRANCH  22  29
ENDBRANCH   1  23
TORSDOF 6
