REMARK  Name = ZINC34881219
REMARK  15 active torsions:
REMARK  status: ('A' for Active; 'I' for Inactive)
REMARK    1  A    between atoms: C_1  and  C_2
REMARK    2  A    between atoms: C_2  and  C_3
REMARK    3  A    between atoms: C_3  and  C_4
REMARK    4  A    between atoms: C_4  and  N_5
REMARK    5  A    between atoms: C_6  and  C_37
REMARK    6  A    between atoms: C_7  and  C_31
REMARK    7  A    between atoms: C_8  and  C_13
REMARK    8  A    between atoms: C_17  and  N_19
REMARK    9  A    between atoms: N_22  and  C_23
REMARK   10  A    between atoms: C_24  and  C_30
REMARK   11  A    between atoms: C_28  and  C_29
REMARK   12  A    between atoms: C_31  and  O_33
REMARK   13  A    between atoms: O_33  and  C_34
REMARK   14  A    between atoms: C_34  and  C_35
REMARK   15  A    between atoms: C_34  and  C_36
REMARK                            x       y       z     vdW  Elec       q    Type
REMARK                         _______ _______ _______ _____ _____    ______ ____
ROOT
ATOM      1  C   UNL     1      -5.430  -6.299   2.117  0.00  0.00    -0.021 A 
ATOM      2  C   UNL     1      -4.912  -7.337   2.870  0.00  0.00    +0.006 A 
ATOM      3  C   UNL     1      -5.532  -8.573   2.867  0.00  0.00    +0.002 A 
ATOM      4  C   UNL     1      -6.671  -8.774   2.113  0.00  0.00    +0.023 A 
ATOM      5  C   UNL     1      -7.194  -7.734   1.357  0.00  0.00    +0.035 A 
ATOM      6  C   UNL     1      -6.572  -6.492   1.365  0.00  0.00    +0.029 A 
ENDROOT
BRANCH   1  10
ATOM      7  N   UNL     1      -2.871  -4.085   3.956  0.00  0.00    -0.259 N 
ATOM      8  C   UNL     1      -4.185  -3.835   4.233  0.00  0.00    +0.024 C 
ATOM      9  C   UNL     1      -5.162  -4.228   3.388  0.00  0.00    +0.078 C 
ATOM     10  C   UNL     1      -4.751  -4.953   2.123  0.00  0.00    +0.144 C 
ATOM     11  N   UNL     1      -3.309  -5.173   1.918  0.00  0.00    -0.288 N 
ATOM     12  C   UNL     1      -2.452  -4.717   2.853  0.00  0.00    +0.307 C 
ATOM     13  O   UNL     1      -1.260  -4.889   2.691  0.00  0.00    -0.252 OA
ATOM     14  C   UNL     1      -4.550  -3.110   5.503  0.00  0.00    +0.061 C 
ATOM     15  H   UNL     1      -2.984  -5.631   1.127  0.00  0.00    +0.151 HD
BRANCH   9  16
ATOM     16  C   UNL     1      -6.523  -3.970   3.674  0.00  0.00    +0.339 C 
ATOM     17  O   UNL     1      -6.830  -3.386   4.696  0.00  0.00    -0.245 OA
BRANCH  16  18
ATOM     18  O   UNL     1      -7.481  -4.373   2.812  0.00  0.00    -0.459 OA
BRANCH  18  19
ATOM     19  C   UNL     1      -8.835  -4.080   3.165  0.00  0.00    +0.171 C 
ATOM     20  C   UNL     1      -9.664  -3.893   1.893  0.00  0.00    +0.052 C 
ATOM     21  C   UNL     1      -9.411  -5.237   3.984  0.00  0.00    +0.052 C 
ENDBRANCH  18  19
ENDBRANCH  16  18
ENDBRANCH   9  16
BRANCH   7  22
ATOM     22  C   UNL     1      -1.863  -3.631   4.918  0.00  0.00    +0.115 C 
BRANCH  22  23
ATOM     23  C   UNL     1      -1.698  -4.681   6.018  0.00  0.00    +0.019 C 
BRANCH  23  25
ATOM     24  C   UNL     1      -0.480  -5.258   8.122  0.00  0.00    +0.004 C 
ATOM     25  C   UNL     1      -0.646  -4.207   7.022  0.00  0.00    -0.002 C 
ENDBRANCH  23  25
ENDBRANCH  22  23
ENDBRANCH   7  22
ENDBRANCH   1  10
BRANCH   5  26
ATOM     26  N   UNL     1      -8.348  -7.934   0.591  0.00  0.00    -0.269 N 
ATOM     27  C   UNL     1      -8.582  -9.136   0.027  0.00  0.00    +0.308 C 
ATOM     28  O   UNL     1      -7.749 -10.018   0.108  0.00  0.00    -0.252 OA
ATOM     29  N   UNL     1      -9.739  -9.359  -0.627  0.00  0.00    -0.269 N 
ATOM     30  H   UNL     1      -8.980  -7.209   0.467  0.00  0.00    +0.156 HD
ATOM     31  H   UNL     1     -10.386  -8.643  -0.727  0.00  0.00    +0.156 HD
BRANCH  29  32
ATOM     32  C   UNL     1     -10.007 -10.624  -1.163  0.00  0.00    +0.041 A 
ATOM     33  C   UNL     1     -11.137 -11.324  -0.761  0.00  0.00    -0.029 A 
ATOM     34  C   UNL     1     -11.399 -12.572  -1.291  0.00  0.00    +0.005 A 
ATOM     35  C   UNL     1     -10.537 -13.125  -2.221  0.00  0.00    +0.001 A 
ATOM     36  C   UNL     1      -9.411 -12.430  -2.623  0.00  0.00    +0.005 A 
ATOM     37  C   UNL     1      -9.147 -11.179  -2.101  0.00  0.00    -0.029 A 
ATOM     38  C   UNL     1      -7.923 -10.420  -2.544  0.00  0.00    +0.045 C 
ATOM     39  C   UNL     1     -12.076 -10.723   0.253  0.00  0.00    +0.045 C 
ENDBRANCH  29  32
ENDBRANCH   5  26
TORSDOF 9
