REMARK  Name = ZINC35869505
REMARK  19 active torsions:
REMARK  status: ('A' for Active; 'I' for Inactive)
REMARK    1  A    between atoms: C_1  and  C_2
REMARK    2  A    between atoms: C_2  and  N_3
REMARK    3  A    between atoms: C_4  and  C_37
REMARK    4  A    between atoms: C_5  and  C_14
REMARK    5  A    between atoms: C_6  and  C_13
REMARK    6  A    between atoms: C_7  and  C_8
REMARK    7  A    between atoms: C_8  and  O_10
REMARK    8  A    between atoms: O_10  and  C_11
REMARK    9  A    between atoms: C_11  and  C_12
REMARK   10  A    between atoms: C_14  and  C_16
REMARK   11  A    between atoms: C_16  and  N_17
REMARK   12  A    between atoms: N_17  and  C_18
REMARK   13  A    between atoms: N_17  and  S_24
REMARK   14  A    between atoms: C_18  and  C_19
REMARK   15  A    between atoms: S_24  and  C_27
REMARK   16  A    between atoms: C_30  and  C_33
REMARK   17  A    between atoms: C_33  and  C_34
REMARK   18  A    between atoms: C_33  and  C_35
REMARK   19  A    between atoms: C_33  and  C_36
REMARK                            x       y       z     vdW  Elec       q    Type
REMARK                         _______ _______ _______ _____ _____    ______ ____
ROOT
ATOM      1  N   UNL     1       1.651  -1.683  -7.003  0.00  0.00    -0.162 NA
ENDROOT
BRANCH   1   2
ATOM      2  S   UNL     1       1.414  -3.191  -7.646  0.00  0.00    +0.062 S 
ATOM      3  O   UNL     1       1.527  -3.054  -9.056  0.00  0.00    -0.153 OA
ATOM      4  O   UNL     1       2.230  -4.083  -6.899  0.00  0.00    -0.153 OA
BRANCH   2   5
ATOM      5  C   UNL     1      -0.257  -3.641  -7.316  0.00  0.00    +0.106 A 
ATOM      6  C   UNL     1      -0.576  -4.307  -6.147  0.00  0.00    +0.029 A 
ATOM      7  C   UNL     1      -1.887  -4.660  -5.888  0.00  0.00    +0.006 A 
ATOM      8  C   UNL     1      -2.880  -4.346  -6.798  0.00  0.00    -0.042 A 
ATOM      9  C   UNL     1      -2.561  -3.679  -7.966  0.00  0.00    +0.006 A 
ATOM     10  C   UNL     1      -1.251  -3.322  -8.223  0.00  0.00    +0.029 A 
BRANCH   8  11
ATOM     11  C   UNL     1      -4.309  -4.732  -6.516  0.00  0.00    -0.013 C 
ATOM     12  C   UNL     1      -4.771  -4.064  -5.219  0.00  0.00    +0.015 C 
ATOM     13  C   UNL     1      -5.199  -4.271  -7.672  0.00  0.00    +0.015 C 
ATOM     14  C   UNL     1      -4.408  -6.252  -6.370  0.00  0.00    +0.015 C 
ENDBRANCH   8  11
ENDBRANCH   2   5
ENDBRANCH   1   2
BRANCH   1  15
ATOM     15  C   UNL     1       2.114  -1.541  -5.621  0.00  0.00    +0.189 C 
BRANCH  15  16
ATOM     16  C   UNL     1       0.928  -1.348  -4.711  0.00  0.00    +0.181 C 
ATOM     17  O   UNL     1      -0.197  -1.415  -5.159  0.00  0.00    -0.291 OA
BRANCH  16  20
ATOM     18  N   UNL     1       1.361  -1.376  -1.104  0.00  0.00    -0.338 N 
ATOM     19  C   UNL     1       1.139  -2.016  -2.262  0.00  0.00    +0.027 A 
ATOM     20  C   UNL     1       1.135  -1.080  -3.284  0.00  0.00    +0.043 A 
ATOM     21  C   UNL     1       1.367   0.183  -2.690  0.00  0.00    -0.008 A 
ATOM     22  C   UNL     1       1.497  -0.026  -1.349  0.00  0.00    +0.131 A 
ATOM     23  C   UNL     1       1.450   1.508  -3.403  0.00  0.00    +0.047 C 
ATOM     24  C   UNL     1       0.931  -3.500  -2.423  0.00  0.00    +0.064 C 
BRANCH  18  26
ATOM     25  C   UNL     1       0.045  -2.057   0.842  0.00  0.00    +0.027 C 
ATOM     26  C   UNL     1       1.440  -2.011   0.214  0.00  0.00    +0.119 C 
ENDBRANCH  18  26
BRANCH  22  27
ATOM     27  C   UNL     1       1.744   1.009  -0.339  0.00  0.00    +0.356 C 
ATOM     28  O   UNL     1       1.846   2.173  -0.674  0.00  0.00    -0.243 OA
BRANCH  27  29
ATOM     29  O   UNL     1       1.857   0.669   0.961  0.00  0.00    -0.460 OA
BRANCH  29  30
ATOM     30  C   UNL     1       2.096   1.728   1.890  0.00  0.00    +0.229 C 
ATOM     31  C   UNL     1       2.194   1.153   3.305  0.00  0.00    +0.048 C 
ENDBRANCH  29  30
ENDBRANCH  27  29
ENDBRANCH  22  27
ENDBRANCH  16  20
ENDBRANCH  15  16
ENDBRANCH   1  15
BRANCH   1  32
ATOM     32  C   UNL     1       1.398  -0.492  -7.817  0.00  0.00    +0.184 C 
BRANCH  32  33
ATOM     33  C   UNL     1       2.687  -0.032  -8.449  0.00  0.00    +0.120 A 
ATOM     34  C   UNL     1       3.159  -0.421  -9.647  0.00  0.00    +0.046 A 
ATOM     35  C   UNL     1       4.387   0.252  -9.842  0.00  0.00    +0.041 A 
ATOM     36  C   UNL     1       4.592   1.012  -8.751  0.00  0.00    +0.195 A 
ATOM     37  O   UNL     1       3.556   0.841  -7.914  0.00  0.00    -0.466 OA
ENDBRANCH  32  33
ENDBRANCH   1  32
TORSDOF 12
