REMARK  Name = ZINC19782098
REMARK  7 active torsions:
REMARK  status: ('A' for Active; 'I' for Inactive)
REMARK    1  A    between atoms: C_6  and  C_7
REMARK    2  A    between atoms: C_7  and  N_8
REMARK    3  A    between atoms: C_14  and  C_16
REMARK    4  A    between atoms: C_16  and  C_17
REMARK    5  A    between atoms: N_19  and  C_20
REMARK    6  A    between atoms: C_20  and  C_21
REMARK    7  A    between atoms: C_21  and  N_22
REMARK                            x       y       z     vdW  Elec       q    Type
REMARK                         _______ _______ _______ _____ _____    ______ ____
ROOT
ATOM      1  N   UNL     1       2.474   0.218   0.277  0.00  0.00    +0.391 N 
ATOM      2  C   UNL     1       1.488  -0.434  -0.601  0.00  0.00    -0.058 C 
ATOM      3  C   UNL     1       0.083  -0.051  -0.132  0.00  0.00    +0.085 C 
ATOM      4  N   UNL     1      -0.014   1.398   0.025  0.00  0.00    -0.318 N 
ATOM      5  C   UNL     1       1.057   2.191   0.129  0.00  0.00    +0.200 C 
ATOM      6  O   UNL     1       0.885   3.381   0.287  0.00  0.00    -0.278 OA
ATOM      7  C   UNL     1       2.465   1.670   0.058  0.00  0.00    +0.028 C 
ATOM      8  H   UNL     1      -1.001   1.882   0.061  0.00  0.00    +0.149 HD
ATOM      9  H   UNL     1       2.196   0.022   1.323  0.00  0.00    -0.080 HD
ENDROOT
BRANCH   1  10
ATOM     10  C   UNL     1       3.817  -0.338   0.064  0.00  0.00    -0.042 C 
BRANCH  10  16
ATOM     11  C   UNL     1       3.579  -2.829   0.013  0.00  0.00    +0.005 A 
ATOM     12  C   UNL     1       3.664  -4.070   0.615  0.00  0.00    +0.041 A 
ATOM     13  C   UNL     1       4.083  -4.174   1.930  0.00  0.00    +0.158 A 
ATOM     14  C   UNL     1       4.416  -3.032   2.642  0.00  0.00    +0.159 A 
ATOM     15  C   UNL     1       4.335  -1.791   2.035  0.00  0.00    +0.043 A 
ATOM     16  C   UNL     1       3.911  -1.690   0.723  0.00  0.00    -0.061 A 
ATOM     17  F   UNL     1       4.825  -3.131   3.926  0.00  0.00    -0.202 F 
ATOM     18  F   UNL     1       4.167  -5.387   2.519  0.00  0.00    -0.202 F 
ENDBRANCH  10  16
ENDBRANCH   1  10
BRANCH   7  19
ATOM     19  C   UNL     1       3.313   2.351   1.133  0.00  0.00    +0.089 C 
BRANCH  19  20
ATOM     20  C   UNL     1       2.766   2.010   2.495  0.00  0.00    +0.212 C 
ATOM     21  O   UNL     1       1.858   1.213   2.602  0.00  0.00    -0.276 OA
ATOM     22  N   UNL     1       3.286   2.590   3.595  0.00  0.00    -0.314 N 
ATOM     23  H   UNL     1       4.109   3.313   3.498  0.00  0.00    +0.149 HD
BRANCH  22  24
ATOM     24  C   UNL     1       2.754   2.259   4.919  0.00  0.00    +0.123 C 
BRANCH  24  25
ATOM     25  C   UNL     1       3.513   3.049   5.987  0.00  0.00    +0.130 C 
BRANCH  25  26
ATOM     26  N   UNL     1       2.982   2.717   7.311  0.00  0.00    -0.263 N 
ATOM     27  C   UNL     1       3.464   1.633   8.179  0.00  0.00    +0.152 C 
ATOM     28  C   UNL     1       2.566   1.735   9.427  0.00  0.00    +0.253 C 
ATOM     29  O   UNL     1       1.681   2.854   9.134  0.00  0.00    -0.449 OA
ATOM     30  C   UNL     1       1.980   3.356   7.931  0.00  0.00    +0.403 C 
ATOM     31  O   UNL     1       1.394   4.302   7.443  0.00  0.00    -0.226 OA
ENDBRANCH  25  26
ENDBRANCH  24  25
ENDBRANCH  22  24
ENDBRANCH  19  20
ENDBRANCH   7  19
TORSDOF 7
