REMARK  Name = ZINC42960635
REMARK  6 active torsions:
REMARK  status: ('A' for Active; 'I' for Inactive)
REMARK    1  A    between atoms: C_10  and  N_12
REMARK    2  A    between atoms: N_15  and  N_16
REMARK    3  A    between atoms: C_17  and  C_19
REMARK    4  A    between atoms: C_19  and  O_20
REMARK    5  A    between atoms: O_20  and  C_21
REMARK    6  A    between atoms: C_26  and  N_27
REMARK                            x       y       z     vdW  Elec       q    Type
REMARK                         _______ _______ _______ _____ _____    ______ ____
ROOT
ATOM      1  N   UNL     1       4.631   0.029  -0.946  0.00  0.00    -0.291 N 
ATOM      2  C   UNL     1       5.321   1.107  -0.525  0.00  0.00    +0.316 C 
ATOM      3  O   UNL     1       5.202   1.496   0.621  0.00  0.00    -0.251 OA
ATOM      4  N   UNL     1       6.144   1.754  -1.374  0.00  0.00    -0.218 N 
ATOM      5  H   UNL     1       4.726  -0.282  -1.860  0.00  0.00    +0.151 HD
ATOM      6  H   UNL     1       6.640   2.530  -1.071  0.00  0.00    +0.174 HD
ENDROOT
BRANCH   1  16
ATOM      7  C   UNL     1      -0.017   1.375   0.010  0.00  0.00    +0.000 A 
ATOM      8  C   UNL     1       1.174   2.078   0.002  0.00  0.00    +0.000 A 
ATOM      9  C   UNL     1       2.372   1.395  -0.010  0.00  0.00    +0.006 A 
ATOM     10  C   UNL     1       2.393   0.006  -0.017  0.00  0.00    -0.024 A 
ATOM     11  C   UNL     1       1.208  -0.694  -0.015  0.00  0.00    -0.042 A 
ATOM     12  C   UNL     1       0.002  -0.004   0.002  0.00  0.00    +0.004 A 
ATOM     13  C   UNL     1       1.155  -2.199  -0.038  0.00  0.00    +0.035 C 
ATOM     14  C   UNL     1       2.501  -2.790   0.375  0.00  0.00    +0.007 C 
ATOM     15  C   UNL     1       3.599  -2.130  -0.467  0.00  0.00    +0.027 C 
ATOM     16  C   UNL     1       3.737  -0.675  -0.023  0.00  0.00    +0.105 C 
ENDBRANCH   1  16
BRANCH   4  17
ATOM     17  N   UNL     1       6.281   1.306  -2.695  0.00  0.00    -0.230 N 
ATOM     18  C   UNL     1       7.104   1.953  -3.543  0.00  0.00    +0.267 C 
ATOM     19  O   UNL     1       7.725   2.924  -3.165  0.00  0.00    -0.271 OA
ATOM     20  H   UNL     1       5.785   0.530  -2.998  0.00  0.00    +0.173 HD
BRANCH  18  21
ATOM     21  C   UNL     1       7.252   1.471  -4.964  0.00  0.00    +0.326 C 
BRANCH  21  22
ATOM     22  O   UNL     1       8.172   2.315  -5.660  0.00  0.00    -0.480 OA
BRANCH  22  23
ATOM     23  C   UNL     1       8.420   2.016  -6.962  0.00  0.00    +0.151 A 
ATOM     24  C   UNL     1       7.786   0.936  -7.559  0.00  0.00    +0.048 A 
ATOM     25  C   UNL     1       8.039   0.634  -8.883  0.00  0.00    +0.004 A 
ATOM     26  C   UNL     1       8.923   1.407  -9.613  0.00  0.00    +0.002 A 
ATOM     27  C   UNL     1       9.556   2.483  -9.020  0.00  0.00    +0.036 A 
ATOM     28  C   UNL     1       9.302   2.793  -7.697  0.00  0.00    +0.168 A 
BRANCH  28  29
ATOM     29  N   UNL     1       9.976   3.949  -7.065  0.00  0.00    +0.060 N 
ATOM     30  O   UNL     1      10.745   4.626  -7.706  0.00  0.00    -0.126 OA
ATOM     31  O   UNL     1       9.757   4.216  -5.906  0.00  0.00    -0.126 OA
ENDBRANCH  28  29
ENDBRANCH  22  23
ENDBRANCH  21  22
ENDBRANCH  18  21
ENDBRANCH   4  17
TORSDOF 6
