REMARK  Name = ZINC21223399
REMARK  10 active torsions:
REMARK  status: ('A' for Active; 'I' for Inactive)
REMARK    1  A    between atoms: C_1  and  C_2
REMARK    2  A    between atoms: C_2  and  O_3
REMARK    3  A    between atoms: O_3  and  C_4
REMARK    4  A    between atoms: C_6  and  C_12
REMARK    5  A    between atoms: C_9  and  O_10
REMARK    6  A    between atoms: C_23  and  C_26
REMARK    7  A    between atoms: C_29  and  C_32
REMARK    8  A    between atoms: C_32  and  C_33
REMARK    9  A    between atoms: C_32  and  C_34
REMARK   10  A    between atoms: C_32  and  C_35
REMARK                            x       y       z     vdW  Elec       q    Type
REMARK                         _______ _______ _______ _____ _____    ______ ____
ROOT
ATOM      1  C   UNL     1      -6.643   5.164   0.049  0.00  0.00    +0.063 C 
ATOM      2  C   UNL     1      -6.726   6.142  -1.124  0.00  0.00    +0.109 C 
ATOM      3  C   UNL     1      -6.281   5.443  -2.382  0.00  0.00    +0.218 C 
ATOM      4  O   UNL     1      -6.789   5.728  -3.445  0.00  0.00    -0.275 OA
ATOM      5  N   UNL     1      -5.321   4.504  -2.329  0.00  0.00    -0.289 N 
ATOM      6  C   UNL     1      -4.710   4.178  -1.145  0.00  0.00    +0.018 C 
ATOM      7  C   UNL     1      -5.299   4.475   0.033  0.00  0.00    +0.020 C 
ATOM      8  C   UNL     1      -4.688   4.157   1.257  0.00  0.00    +0.162 C 
ATOM      9  O   UNL     1      -5.255   4.429   2.297  0.00  0.00    -0.292 OA
ATOM     10  C   UNL     1      -3.343   3.484   1.301  0.00  0.00    +0.088 C 
ATOM     11  C   UNL     1      -2.553   3.869   0.045  0.00  0.00    +0.032 C 
ATOM     12  C   UNL     1      -3.374   3.479  -1.186  0.00  0.00    +0.059 C 
ATOM     13  H   UNL     1      -5.011   3.981  -3.246  0.00  0.00    +0.155 HD
ENDROOT
BRANCH   1  16
ATOM     14  C   UNL     1      -9.690   3.064   0.813  0.00  0.00    +0.163 A 
ATOM     15  C   UNL     1      -8.680   4.006   0.928  0.00  0.00    +0.053 A 
ATOM     16  C   UNL     1      -7.737   4.135  -0.075  0.00  0.00    -0.035 A 
ATOM     17  C   UNL     1      -7.793   3.320  -1.190  0.00  0.00    +0.023 A 
ATOM     18  C   UNL     1      -8.796   2.374  -1.309  0.00  0.00    +0.063 A 
ATOM     19  C   UNL     1      -9.747   2.243  -0.308  0.00  0.00    +0.173 A 
ATOM     20 BR   UNL     1      -8.869   1.260  -2.835  0.00  0.00    -0.046 Br
BRANCH  19  21
ATOM     21  O   UNL     1     -10.734   1.314  -0.423  0.00  0.00    -0.503 OA
ATOM     22  H   UNL     1     -10.777   0.665  -1.310  0.00  0.00    +0.292 HD
ENDBRANCH  19  21
BRANCH  14  23
ATOM     23  O   UNL     1     -10.621   2.940   1.797  0.00  0.00    -0.489 OA
BRANCH  23  25
ATOM     24  C   UNL     1     -11.627   3.530   3.913  0.00  0.00    +0.048 C 
ATOM     25  C   UNL     1     -10.500   3.817   2.919  0.00  0.00    +0.226 C 
ENDBRANCH  23  25
ENDBRANCH  14  23
ENDBRANCH   1  16
BRANCH  11  26
ATOM     26  C   UNL     1      -1.238   3.133   0.030  0.00  0.00    -0.043 A 
ATOM     27  C   UNL     1      -1.219   1.751   0.017  0.00  0.00    +0.004 A 
ATOM     28  C   UNL     1      -0.013   1.076   0.008  0.00  0.00    +0.004 A 
ATOM     29  C   UNL     1       1.175   1.783   0.000  0.00  0.00    -0.042 A 
ATOM     30  C   UNL     1       1.156   3.165   0.008  0.00  0.00    +0.004 A 
ATOM     31  C   UNL     1      -0.050   3.840   0.022  0.00  0.00    +0.004 A 
BRANCH  29  32
ATOM     32  C   UNL     1       2.490   1.048  -0.016  0.00  0.00    -0.013 C 
ATOM     33  C   UNL     1       2.571   0.176  -1.271  0.00  0.00    +0.015 C 
ATOM     34  C   UNL     1       3.639   2.058  -0.022  0.00  0.00    +0.015 C 
ATOM     35  C   UNL     1       2.595   0.162   1.227  0.00  0.00    +0.015 C 
ENDBRANCH  29  32
ENDBRANCH  11  26
TORSDOF 6
