REMARK  Name = ZINC66939578
REMARK  11 active torsions:
REMARK  status: ('A' for Active; 'I' for Inactive)
REMARK    1  A    between atoms: C_1  and  C_2
REMARK    2  A    between atoms: C_2  and  N_3
REMARK    3  A    between atoms: N_3  and  C_4
REMARK    4  A    between atoms: C_4  and  C_5
REMARK    5  A    between atoms: N_8  and  C_9
REMARK    6  A    between atoms: C_12  and  C_15
REMARK    7  A    between atoms: C_15  and  C_17
REMARK    8  A    between atoms: C_15  and  N_18
REMARK    9  A    between atoms: N_18  and  C_19
REMARK   10  A    between atoms: C_19  and  C_21
REMARK   11  A    between atoms: C_19  and  C_28
REMARK                            x       y       z     vdW  Elec       q    Type
REMARK                         _______ _______ _______ _____ _____    ______ ____
ROOT
ATOM      1  C   UNL     1      -5.820  -2.368   6.318  0.00  0.00    -0.043 C 
ATOM      2  C   UNL     1      -5.803  -3.514   7.330  0.00  0.00    -0.009 C 
ENDROOT
BRANCH   1   6
ATOM      3  C   UNL     1      -3.465  -3.437   2.915  0.00  0.00    +0.035 A 
ATOM      4  C   UNL     1      -2.935  -2.610   3.896  0.00  0.00    +0.023 A 
ATOM      5  C   UNL     1      -3.698  -2.266   4.995  0.00  0.00    +0.004 A 
ATOM      6  C   UNL     1      -4.989  -2.745   5.118  0.00  0.00    -0.061 A 
ATOM      7  C   UNL     1      -5.521  -3.569   4.143  0.00  0.00    +0.004 A 
ATOM      8  C   UNL     1      -4.764  -3.912   3.039  0.00  0.00    +0.023 A 
BRANCH   3  12
ATOM      9  N   UNL     1      -2.529  -4.198  -0.491  0.00  0.00    -0.286 N 
ATOM     10  C   UNL     1      -3.281  -3.944   0.598  0.00  0.00    +0.306 C 
ATOM     11  O   UNL     1      -4.490  -3.856   0.495  0.00  0.00    -0.252 OA
ATOM     12  N   UNL     1      -2.694  -3.786   1.801  0.00  0.00    -0.269 N 
ATOM     13  H   UNL     1      -1.738  -3.916   1.894  0.00  0.00    +0.156 HD
BRANCH   9  15
ATOM     14  C   UNL     1      -3.513  -5.845  -2.008  0.00  0.00    +0.024 C 
ATOM     15  C   UNL     1      -3.167  -4.369  -1.799  0.00  0.00    +0.106 C 
ENDBRANCH   9  15
BRANCH   9  16
ATOM     16  C   UNL     1      -1.073  -4.304  -0.367  0.00  0.00    +0.106 C 
ATOM     17  C   UNL     1      -0.443  -2.925  -0.570  0.00  0.00    +0.024 C 
ENDBRANCH   9  16
ENDBRANCH   3  12
ENDBRANCH   1   6
BRANCH   1  18
ATOM     18  N   UNL     1      -7.202  -2.108   5.895  0.00  0.00    +0.394 N 
ATOM     19  H   UNL     1      -7.206  -1.408   5.169  0.00  0.00    -0.083 HD
ATOM     20  H   UNL     1      -7.611  -2.961   5.542  0.00  0.00    -0.083 HD
BRANCH  18  21
ATOM     21  C   UNL     1      -7.984  -1.629   7.042  0.00  0.00    +0.047 C 
BRANCH  21  22
ATOM     22  C   UNL     1      -7.438  -0.302   7.503  0.00  0.00    -0.053 A 
ATOM     23  C   UNL     1      -7.037   0.640   6.574  0.00  0.00    +0.005 A 
ATOM     24  C   UNL     1      -6.536   1.857   6.995  0.00  0.00    +0.038 A 
ATOM     25  C   UNL     1      -6.436   2.133   8.348  0.00  0.00    +0.123 A 
ATOM     26  C   UNL     1      -6.837   1.189   9.278  0.00  0.00    +0.038 A 
ATOM     27  C   UNL     1      -7.342  -0.026   8.854  0.00  0.00    +0.005 A 
ATOM     28  F   UNL     1      -5.946   3.323   8.761  0.00  0.00    -0.205 F 
ENDBRANCH  21  22
BRANCH  21  29
ATOM     29  C   UNL     1      -9.425  -1.464   6.635  0.00  0.00    +0.201 C 
ATOM     30  O   UNL     1      -9.711  -1.299   5.468  0.00  0.00    -0.277 OA
ATOM     31  N   UNL     1     -10.398  -1.500   7.567  0.00  0.00    -0.330 N 
ATOM     32  H   UNL     1     -10.170  -1.632   8.501  0.00  0.00    +0.145 HD
ATOM     33  H   UNL     1     -11.325  -1.395   7.305  0.00  0.00    +0.145 HD
ENDBRANCH  21  29
ENDBRANCH  18  21
ENDBRANCH   1  18
TORSDOF 8
