REMARK  Name = ZINC39364548
REMARK  8 active torsions:
REMARK  status: ('A' for Active; 'I' for Inactive)
REMARK    1  A    between atoms: C_4  and  C_7
REMARK    2  A    between atoms: C_10  and  C_13
REMARK    3  A    between atoms: C_13  and  N_14
REMARK    4  A    between atoms: C_15  and  C_17
REMARK    5  A    between atoms: C_17  and  C_18
REMARK    6  A    between atoms: C_18  and  C_19
REMARK    7  A    between atoms: C_19  and  C_25
REMARK    8  A    between atoms: C_25  and  C_26
REMARK                            x       y       z     vdW  Elec       q    Type
REMARK                         _______ _______ _______ _____ _____    ______ ____
ROOT
ATOM      1  C   UNL     1       2.346  -7.234   4.790  0.00  0.00    +0.035 C 
ENDROOT
BRANCH   1   2
ATOM      2  C   UNL     1       1.115  -8.109   5.037  0.00  0.00    +0.039 C 
ATOM      3  C   UNL     1       0.762  -8.907   3.762  0.00  0.00    +0.035 C 
ATOM      4  C   UNL     1      -0.277  -7.981   3.088  0.00  0.00    +0.098 C 
ATOM      5  C   UNL     1      -0.854  -7.177   4.233  0.00  0.00    +0.214 C 
ATOM      6  O   UNL     1      -1.885  -6.540   4.184  0.00  0.00    -0.276 OA
ATOM      7  N   UNL     1      -0.058  -7.271   5.311  0.00  0.00    -0.309 N 
ATOM      8  H   UNL     1      -0.235  -6.840   6.162  0.00  0.00    +0.149 HD
BRANCH   2   9
ATOM      9  C   UNL     1       1.370  -9.063   6.206  0.00  0.00    +0.061 C 
BRANCH   9  10
ATOM     10  C   UNL     1       1.560  -8.266   7.471  0.00  0.00    -0.038 A 
ATOM     11  C   UNL     1       2.812  -7.933   7.888  0.00  0.00    +0.004 A 
ATOM     12  C   UNL     1       3.008  -7.198   9.055  0.00  0.00    +0.001 A 
ATOM     13  C   UNL     1       1.952  -6.791   9.813  0.00  0.00    +0.008 A 
ATOM     14  C   UNL     1       0.645  -7.116   9.414  0.00  0.00    -0.018 A 
ATOM     15  C   UNL     1       0.445  -7.859   8.224  0.00  0.00    -0.015 A 
ATOM     16  C   UNL     1      -0.863  -8.179   7.822  0.00  0.00    +0.009 A 
ATOM     17  C   UNL     1      -1.918  -7.768   8.576  0.00  0.00    +0.001 A 
ATOM     18  C   UNL     1      -1.723  -7.031   9.743  0.00  0.00    +0.001 A 
ATOM     19  C   UNL     1      -0.470  -6.714  10.170  0.00  0.00    +0.008 A 
ENDBRANCH   9  10
ENDBRANCH   2   9
ENDBRANCH   1   2
BRANCH   1  20
ATOM     20  C   UNL     1       2.040  -6.225   3.682  0.00  0.00    +0.098 C 
BRANCH  20  22
ATOM     21  N   UNL     1       3.216  -4.397   2.500  0.00  0.00    -0.310 N 
ATOM     22  C   UNL     1       3.253  -5.363   3.439  0.00  0.00    +0.213 C 
ATOM     23  O   UNL     1       4.261  -5.539   4.089  0.00  0.00    -0.276 OA
ATOM     24  H   UNL     1       2.409  -4.257   1.980  0.00  0.00    +0.149 HD
BRANCH  21  25
ATOM     25  C   UNL     1       4.394  -3.560   2.264  0.00  0.00    +0.161 C 
BRANCH  25  28
ATOM     26  C   UNL     1       3.711  -0.707  -0.038  0.00  0.00    +0.153 C 
ATOM     27  C   UNL     1       4.045  -1.243   1.343  0.00  0.00    +0.030 C 
ATOM     28  C   UNL     1       4.093  -2.566   1.172  0.00  0.00    +0.076 C 
ATOM     29  N   UNL     1       3.835  -2.893  -0.114  0.00  0.00    -0.181 NA
ATOM     30  N   UNL     1       3.614  -1.928  -0.856  0.00  0.00    -0.297 N 
ATOM     31  H   UNL     1       3.413  -1.966  -1.804  0.00  0.00    +0.183 HD
BRANCH  26  35
ATOM     32  C   UNL     1      -0.017   1.378   0.010  0.00  0.00    +0.000 A 
ATOM     33  C   UNL     1       1.171   2.086   0.002  0.00  0.00    +0.000 A 
ATOM     34  C   UNL     1       2.377   1.411  -0.013  0.00  0.00    +0.006 A 
ATOM     35  C   UNL     1       2.396   0.029  -0.020  0.00  0.00    -0.020 A 
ATOM     36  C   UNL     1       1.208  -0.679  -0.012  0.00  0.00    +0.006 A 
ATOM     37  C   UNL     1       0.002  -0.004   0.002  0.00  0.00    +0.000 A 
ENDBRANCH  26  35
ENDBRANCH  25  28
ENDBRANCH  21  25
ENDBRANCH  20  22
ENDBRANCH   1  20
TORSDOF 8
