REMARK  Name = ZINC60392158
REMARK  9 active torsions:
REMARK  status: ('A' for Active; 'I' for Inactive)
REMARK    1  A    between atoms: C_1  and  C_2
REMARK    2  A    between atoms: C_2  and  N_3
REMARK    3  A    between atoms: N_3  and  C_4
REMARK    4  A    between atoms: N_3  and  C_6
REMARK    5  A    between atoms: C_4  and  C_5
REMARK    6  A    between atoms: C_6  and  C_7
REMARK    7  A    between atoms: C_7  and  N_8
REMARK    8  A    between atoms: N_17  and  C_18
REMARK    9  A    between atoms: C_18  and  C_20
REMARK                            x       y       z     vdW  Elec       q    Type
REMARK                         _______ _______ _______ _____ _____    ______ ____
ROOT
ATOM      1  N   UNL     1      -1.455  -3.768  -1.652  0.00  0.00    -0.314 N 
ATOM      2  C   UNL     1      -1.585  -4.453  -2.856  0.00  0.00    +0.068 A 
ATOM      3  C   UNL     1      -1.515  -4.054  -4.184  0.00  0.00    +0.028 A 
ATOM      4  C   UNL     1      -1.690  -4.982  -5.191  0.00  0.00    +0.002 A 
ATOM      5  C   UNL     1      -1.935  -6.310  -4.882  0.00  0.00    +0.002 A 
ATOM      6  C   UNL     1      -2.006  -6.716  -3.565  0.00  0.00    +0.028 A 
ATOM      7  C   UNL     1      -1.831  -5.791  -2.545  0.00  0.00    +0.066 A 
ATOM      8  N   UNL     1      -1.846  -5.894  -1.158  0.00  0.00    -0.326 N 
ATOM      9  C   UNL     1      -1.611  -4.660  -0.636  0.00  0.00    +0.201 A 
ATOM     10  N   UNL     1      -1.547  -4.370   0.658  0.00  0.00    -0.142 NA
ATOM     11  H   UNL     1      -1.995  -6.707  -0.649  0.00  0.00    +0.169 HD
ENDROOT
BRANCH  10  12
ATOM     12  C   UNL     1      -1.598  -5.352   1.566  0.00  0.00    +0.270 C 
ATOM     13  O   UNL     1      -1.608  -6.516   1.206  0.00  0.00    -0.268 OA
BRANCH  12  14
ATOM     14  C   UNL     1      -1.642  -5.024   3.007  0.00  0.00    +0.041 A 
ATOM     15  C   UNL     1      -1.636  -3.689   3.418  0.00  0.00    +0.014 A 
ATOM     16  C   UNL     1      -1.679  -3.387   4.762  0.00  0.00    +0.017 A 
ATOM     17  C   UNL     1      -1.726  -4.406   5.703  0.00  0.00    +0.030 A 
ATOM     18  C   UNL     1      -1.730  -5.747   5.305  0.00  0.00    +0.048 A 
ATOM     19  C   UNL     1      -1.694  -6.049   3.953  0.00  0.00    +0.037 A 
ATOM     20  N   UNL     1      -1.766  -6.782   6.236  0.00  0.00    -0.284 N 
ATOM     21  C   UNL     1      -2.200  -6.698   7.491  0.00  0.00    +0.227 C 
ATOM     22  O   UNL     1      -2.176  -7.700   8.174  0.00  0.00    -0.275 OA
ATOM     23  C   UNL     1      -2.716  -5.428   8.110  0.00  0.00    +0.170 C 
ATOM     24  S   UNL     1      -1.787  -4.022   7.425  0.00  0.00    -0.114 S 
ATOM     25  H   UNL     1      -1.446  -7.649   5.940  0.00  0.00    +0.155 HD
ENDBRANCH  12  14
ENDBRANCH  10  12
BRANCH   1  26
ATOM     26  C   UNL     1      -1.189  -2.335  -1.503  0.00  0.00    +0.106 C 
BRANCH  26  27
ATOM     27  C   UNL     1       0.322  -2.098  -1.463  0.00  0.00    -0.057 C 
BRANCH  27  28
ATOM     28  N   UNL     1       0.588  -0.661  -1.314  0.00  0.00    +0.380 N 
ATOM     29  H   UNL     1       0.121  -0.154  -2.051  0.00  0.00    -0.082 HD
BRANCH  28  31
ATOM     30  C   UNL     1       0.236   1.317   0.087  0.00  0.00    -0.017 C 
ATOM     31  C   UNL     1       0.088  -0.203  -0.011  0.00  0.00    -0.082 C 
ENDBRANCH  28  31
BRANCH  28  32
ATOM     32  C   UNL     1       2.035  -0.420  -1.395  0.00  0.00    -0.082 C 
ATOM     33  C   UNL     1       2.532  -0.764  -2.800  0.00  0.00    -0.017 C 
ENDBRANCH  28  32
ENDBRANCH  27  28
ENDBRANCH  26  27
ENDBRANCH   1  26
TORSDOF 7
