REMARK  Name = ZINC38684200
REMARK  17 active torsions:
REMARK  status: ('A' for Active; 'I' for Inactive)
REMARK    1  A    between atoms: C_1  and  C_2
REMARK    2  A    between atoms: C_6  and  C_40
REMARK    3  A    between atoms: C_7  and  O_8
REMARK    4  A    between atoms: O_8  and  C_9
REMARK    5  A    between atoms: C_9  and  C_10
REMARK    6  A    between atoms: C_10  and  O_12
REMARK    7  A    between atoms: O_12  and  C_13
REMARK    8  A    between atoms: C_20  and  N_39
REMARK    9  A    between atoms: C_21  and  C_37
REMARK   10  A    between atoms: C_22  and  C_24
REMARK   11  A    between atoms: C_27  and  O_32
REMARK   12  A    between atoms: C_28  and  O_30
REMARK   13  A    between atoms: O_30  and  C_31
REMARK   14  A    between atoms: O_32  and  C_33
REMARK   15  A    between atoms: C_33  and  C_34
REMARK   16  A    between atoms: C_34  and  C_35
REMARK   17  A    between atoms: C_34  and  C_36
REMARK                            x       y       z     vdW  Elec       q    Type
REMARK                         _______ _______ _______ _____ _____    ______ ____
ROOT
ATOM      1  C   UNL     1      -1.980   2.042   6.167  0.00  0.00    +0.135 A 
ATOM      2  C   UNL     1      -0.720   2.383   6.639  0.00  0.00    +0.047 A 
ATOM      3  C   UNL     1      -0.590   3.034   7.850  0.00  0.00    +0.012 A 
ATOM      4  C   UNL     1      -1.711   3.348   8.597  0.00  0.00    +0.008 A 
ATOM      5  C   UNL     1      -2.972   3.009   8.131  0.00  0.00    +0.138 A 
ATOM      6  C   UNL     1      -3.105   2.360   6.910  0.00  0.00    +0.093 A 
ATOM      7  O   UNL     1      -4.082   3.308   8.848  0.00  0.00    -0.441 OA
ATOM      8  C   UNL     1      -4.029   4.251   9.804  0.00  0.00    +0.199 C 
ATOM      9  C   UNL     1      -2.857   4.651  10.351  0.00  0.00    +0.098 C 
ATOM     10  C   UNL     1      -1.548   4.057   9.916  0.00  0.00    +0.098 C 
ENDROOT
BRANCH  10  11
ATOM     11  C   UNL     1      -1.075   3.074  10.956  0.00  0.00    -0.031 A 
ATOM     12  C   UNL     1      -1.844   1.965  11.257  0.00  0.00    +0.008 A 
ATOM     13  C   UNL     1      -1.415   1.061  12.210  0.00  0.00    +0.050 A 
ATOM     14  C   UNL     1      -0.211   1.264  12.866  0.00  0.00    +0.162 A 
ATOM     15  C   UNL     1       0.563   2.380  12.562  0.00  0.00    +0.162 A 
ATOM     16  C   UNL     1       0.129   3.280  11.602  0.00  0.00    +0.054 A 
BRANCH  15  17
ATOM     17  O   UNL     1       1.745   2.584  13.203  0.00  0.00    -0.491 OA
ATOM     18  C   UNL     1       2.487   3.750  12.840  0.00  0.00    +0.277 C 
ENDBRANCH  15  17
BRANCH  14  19
ATOM     19  O   UNL     1       0.212   0.376  13.804  0.00  0.00    -0.488 OA
BRANCH  19  20
ATOM     20  C   UNL     1      -0.634  -0.746  14.065  0.00  0.00    +0.232 C 
BRANCH  20  21
ATOM     21  C   UNL     1       0.003  -1.627  15.141  0.00  0.00    +0.020 C 
ATOM     22  C   UNL     1      -0.958  -2.759  15.509  0.00  0.00    +0.010 C 
ATOM     23  C   UNL     1       1.308  -2.221  14.607  0.00  0.00    +0.010 C 
ENDBRANCH  20  21
ENDBRANCH  19  20
ENDBRANCH  14  19
ENDBRANCH  10  11
BRANCH   8  24
ATOM     24  N   UNL     1      -5.198   4.826  10.238  0.00  0.00    -0.328 N 
ATOM     25  H   UNL     1      -6.045   4.550   9.855  0.00  0.00    +0.145 HD
ATOM     26  H   UNL     1      -5.176   5.508  10.927  0.00  0.00    +0.145 HD
ENDBRANCH   8  24
BRANCH   9  27
ATOM     27  C   UNL     1      -2.866   5.662  11.366  0.00  0.00    +0.101 C 
ATOM     28  N   UNL     1      -2.873   6.464  12.171  0.00  0.00    -0.191 NA
ENDBRANCH   9  27
BRANCH   1  29
ATOM     29  O   UNL     1      -2.109   1.401   4.976  0.00  0.00    -0.423 OA
BRANCH  29  30
ATOM     30  C   UNL     1      -1.835   0.087   4.933  0.00  0.00    +0.350 C 
ATOM     31  O   UNL     1      -1.399  -0.471   5.912  0.00  0.00    -0.247 OA
BRANCH  30  32
ATOM     32  C   UNL     1      -2.070  -0.691   3.664  0.00  0.00    +0.349 C 
BRANCH  32  33
ATOM     33  O   UNL     1      -1.705  -2.057   3.869  0.00  0.00    -0.480 OA
BRANCH  33  40
ATOM     34  C   UNL     1       0.487  -2.352   2.111  0.00  0.00    +0.047 C 
ATOM     35  C   UNL     1      -0.815  -3.087   1.917  0.00  0.00    -0.009 A 
ATOM     36  C   UNL     1      -0.970  -3.950   0.850  0.00  0.00    +0.007 A 
ATOM     37  C   UNL     1      -2.164  -4.623   0.671  0.00  0.00    +0.001 A 
ATOM     38  C   UNL     1      -3.206  -4.436   1.561  0.00  0.00    +0.007 A 
ATOM     39  C   UNL     1      -3.056  -3.574   2.630  0.00  0.00    -0.009 A 
ATOM     40  C   UNL     1      -1.857  -2.901   2.814  0.00  0.00    +0.127 A 
ATOM     41  C   UNL     1      -4.192  -3.370   3.599  0.00  0.00    +0.047 C 
ENDBRANCH  33  40
ENDBRANCH  32  33
ENDBRANCH  30  32
ENDBRANCH  29  30
ENDBRANCH   1  29
TORSDOF 12
