REMARK  Name = ZINC04729298
REMARK  8 active torsions:
REMARK  status: ('A' for Active; 'I' for Inactive)
REMARK    1  A    between atoms: C_1  and  O_2
REMARK    2  A    between atoms: O_2  and  C_3
REMARK    3  A    between atoms: C_6  and  C_9
REMARK    4  A    between atoms: C_11  and  C_24
REMARK    5  A    between atoms: C_14  and  C_16
REMARK    6  A    between atoms: C_19  and  O_22
REMARK    7  A    between atoms: O_22  and  C_23
REMARK    8  A    between atoms: C_29  and  O_30
REMARK                            x       y       z     vdW  Elec       q    Type
REMARK                         _______ _______ _______ _____ _____    ______ ____
ROOT
ATOM      1  C   UNL     1      -1.316   3.513   0.043  0.00  0.00    +0.081 C 
ATOM      2  C   UNL     1       1.065   3.665   0.402  0.00  0.00    -0.028 C 
ATOM      3  C   UNL     1       1.294   2.204   0.002  0.00  0.00    +0.044 C 
ATOM      4  C   UNL     1      -0.018   1.470   0.010  0.00  0.00    +0.040 C 
ATOM      5  N   UNL     1      -1.152   2.065   0.019  0.00  0.00    -0.299 NA
ATOM      6  N   UNL     1      -0.076   4.184  -0.378  0.00  0.00    +0.401 N 
ATOM      7  H   UNL     1      -0.166   5.195  -0.219  0.00  0.00    -0.081 HD
ATOM      8  H   UNL     1       0.085   4.007  -1.376  0.00  0.00    -0.081 HD
ENDROOT
BRANCH   2   9
ATOM      9  C   UNL     1       2.297   4.476   0.093  0.00  0.00    -0.018 A 
ATOM     10  C   UNL     1       2.350   5.243  -1.055  0.00  0.00    +0.025 A 
ATOM     11  C   UNL     1       3.479   5.992  -1.335  0.00  0.00    +0.041 A 
ATOM     12  C   UNL     1       4.561   5.967  -0.473  0.00  0.00    +0.023 A 
ATOM     13  C   UNL     1       4.513   5.197   0.673  0.00  0.00    +0.047 A 
ATOM     14  C   UNL     1       3.380   4.449   0.959  0.00  0.00    +0.119 A 
ATOM     15 CL   UNL     1       3.541   6.961  -2.775  0.00  0.00    -0.084 Cl
BRANCH  14  16
ATOM     16  O   UNL     1       3.332   3.691   2.086  0.00  0.00    -0.507 OA
ATOM     17  H   UNL     1       3.656   2.788   1.966  0.00  0.00    +0.292 HD
ENDBRANCH  14  16
ENDBRANCH   2   9
BRANCH   1  21
ATOM     18  C   UNL     1      -4.471   4.608  -2.624  0.00  0.00    +0.120 A 
ATOM     19  C   UNL     1      -4.485   3.368  -2.002  0.00  0.00    +0.046 A 
ATOM     20  C   UNL     1      -3.465   3.017  -1.140  0.00  0.00    +0.007 A 
ATOM     21  C   UNL     1      -2.428   3.899  -0.897  0.00  0.00    -0.040 A 
ATOM     22  C   UNL     1      -2.414   5.138  -1.511  0.00  0.00    +0.007 A 
ATOM     23  C   UNL     1      -3.430   5.492  -2.378  0.00  0.00    +0.046 A 
BRANCH  18  25
ATOM     24  C   UNL     1      -5.393   6.249  -4.076  0.00  0.00    +0.277 C 
ATOM     25  O   UNL     1      -5.474   4.957  -3.471  0.00  0.00    -0.495 OA
ENDBRANCH  18  25
ENDBRANCH   1  21
BRANCH   4  26
ATOM     26  C   UNL     1       0.002  -0.004   0.002  0.00  0.00    -0.004 A 
ATOM     27  C   UNL     1       1.220  -0.688  -0.019  0.00  0.00    +0.013 A 
ATOM     28  C   UNL     1       1.235  -2.066  -0.021  0.00  0.00    +0.046 A 
ATOM     29  C   UNL     1       0.040  -2.775  -0.014  0.00  0.00    +0.120 A 
ATOM     30  C   UNL     1      -1.174  -2.098   0.002  0.00  0.00    +0.046 A 
ATOM     31  C   UNL     1      -1.197  -0.721   0.010  0.00  0.00    +0.013 A 
BRANCH  29  32
ATOM     32  O   UNL     1       0.058  -4.132  -0.022  0.00  0.00    -0.495 OA
ATOM     33  C   UNL     1       1.340  -4.763  -0.037  0.00  0.00    +0.277 C 
ENDBRANCH  29  32
ENDBRANCH   4  26
TORSDOF 6
