REMARK  Name = ZINC39652775
REMARK  9 active torsions:
REMARK  status: ('A' for Active; 'I' for Inactive)
REMARK    1  A    between atoms: C_1  and  C_2
REMARK    2  A    between atoms: C_2  and  O_3
REMARK    3  A    between atoms: O_3  and  C_4
REMARK    4  A    between atoms: C_9  and  C_10
REMARK    5  A    between atoms: C_10  and  C_11
REMARK    6  A    between atoms: C_11  and  N_12
REMARK    7  A    between atoms: C_13  and  C_15
REMARK    8  A    between atoms: C_26  and  C_28
REMARK    9  A    between atoms: C_31  and  C_33
REMARK                            x       y       z     vdW  Elec       q    Type
REMARK                         _______ _______ _______ _____ _____    ______ ____
ROOT
ATOM      1  C   UNL     1       5.772   1.369  -4.949  0.00  0.00    +0.100 C 
ATOM      2  C   UNL     1       4.861   2.603  -5.131  0.00  0.00    +0.121 C 
ATOM      3  N   UNL     1       5.445   3.635  -4.242  0.00  0.00    -0.294 N 
ATOM      4  C   UNL     1       6.910   3.465  -4.393  0.00  0.00    +0.115 C 
ATOM      5  C   UNL     1       7.117   1.939  -4.469  0.00  0.00    -0.004 C 
ATOM      6  C   UNL     1       8.221   1.605  -5.468  0.00  0.00    -0.010 C 
ATOM      7  C   UNL     1       9.558   2.131  -4.940  0.00  0.00    -0.082 C 
ATOM      8  N   UNL     1       9.848   1.518  -3.638  0.00  0.00    +0.379 N 
ATOM      9  C   UNL     1       8.832   1.921  -2.658  0.00  0.00    -0.082 C 
ATOM     10  C   UNL     1       7.463   1.386  -3.090  0.00  0.00    -0.010 C 
ATOM     11  C   UNL     1       4.792   4.526  -3.470  0.00  0.00    +0.282 C 
ATOM     12  O   UNL     1       5.419   5.317  -2.790  0.00  0.00    -0.267 OA
ATOM     13  H   UNL     1       9.843   0.514  -3.732  0.00  0.00    -0.086 HD
ATOM     14  H   UNL     1      10.757   1.819  -3.321  0.00  0.00    -0.086 HD
ENDROOT
BRANCH  11  15
ATOM     15  C   UNL     1       3.327   4.544  -3.451  0.00  0.00    +0.190 A 
ATOM     16  C   UNL     1       2.538   5.401  -2.715  0.00  0.00    +0.055 A 
ATOM     17  C   UNL     1       1.210   5.068  -2.996  0.00  0.00    +0.051 A 
ATOM     18  C   UNL     1       1.235   4.030  -3.884  0.00  0.00    +0.139 A 
ATOM     19  O   UNL     1       2.515   3.726  -4.154  0.00  0.00    -0.450 OA
BRANCH  18  20
ATOM     20  C   UNL     1       0.051   3.357  -4.455  0.00  0.00    +0.052 A 
ATOM     21  C   UNL     1      -0.976   2.914  -3.619  0.00  0.00    +0.014 A 
ATOM     22  C   UNL     1      -2.078   2.286  -4.160  0.00  0.00    +0.001 A 
ATOM     23  C   UNL     1      -2.170   2.095  -5.528  0.00  0.00    +0.003 A 
ATOM     24  C   UNL     1      -1.158   2.530  -6.363  0.00  0.00    +0.039 A 
ATOM     25  C   UNL     1      -0.049   3.166  -5.837  0.00  0.00    +0.134 A 
ATOM     26  F   UNL     1       0.937   3.597  -6.654  0.00  0.00    -0.205 F 
ENDBRANCH  18  20
ENDBRANCH  11  15
BRANCH   1  28
ATOM     27  N   UNL     1       5.451  -0.882  -3.977  0.00  0.00    -0.315 N 
ATOM     28  C   UNL     1       5.196   0.439  -3.913  0.00  0.00    +0.218 C 
ATOM     29  O   UNL     1       4.503   0.880  -3.021  0.00  0.00    -0.275 OA
ATOM     30  H   UNL     1       6.005  -1.235  -4.691  0.00  0.00    +0.149 HD
BRANCH  27  31
ATOM     31  C   UNL     1       4.891  -1.786  -2.970  0.00  0.00    +0.109 C 
BRANCH  31  32
ATOM     32  C   UNL     1       5.329  -3.221  -3.271  0.00  0.00    +0.057 C 
BRANCH  32  38
ATOM     33  C   UNL     1       3.469  -4.652  -2.389  0.00  0.00    +0.124 A 
ATOM     34  C   UNL     1       2.943  -5.512  -1.436  0.00  0.00    +0.046 A 
ATOM     35  C   UNL     1       3.697  -5.863  -0.333  0.00  0.00    +0.004 A 
ATOM     36  C   UNL     1       4.975  -5.358  -0.179  0.00  0.00    +0.000 A 
ATOM     37  C   UNL     1       5.501  -4.500  -1.127  0.00  0.00    +0.007 A 
ATOM     38  C   UNL     1       4.753  -4.151  -2.235  0.00  0.00    -0.004 A 
BRANCH  33  39
ATOM     39  O   UNL     1       2.729  -4.306  -3.476  0.00  0.00    -0.492 OA
BRANCH  39  41
ATOM     40  C   UNL     1       0.741  -4.361  -4.848  0.00  0.00    +0.048 C 
ATOM     41  C   UNL     1       1.415  -4.860  -3.569  0.00  0.00    +0.225 C 
ENDBRANCH  39  41
ENDBRANCH  33  39
ENDBRANCH  32  38
ENDBRANCH  31  32
ENDBRANCH  27  31
ENDBRANCH   1  28
TORSDOF 8
