REMARK  Name = ZINC39774211
REMARK  11 active torsions:
REMARK  status: ('A' for Active; 'I' for Inactive)
REMARK    1  A    between atoms: C_1  and  C_2
REMARK    2  A    between atoms: C_2  and  C_4
REMARK    3  A    between atoms: C_2  and  N_15
REMARK    4  A    between atoms: N_6  and  N_7
REMARK    5  A    between atoms: C_8  and  C_9
REMARK    6  A    between atoms: N_18  and  C_35
REMARK    7  A    between atoms: C_19  and  N_24
REMARK    8  A    between atoms: C_21  and  C_22
REMARK    9  A    between atoms: C_21  and  C_23
REMARK   10  A    between atoms: N_24  and  O_34
REMARK   11  A    between atoms: N_27  and  C_28
REMARK                            x       y       z     vdW  Elec       q    Type
REMARK                         _______ _______ _______ _____ _____    ______ ____
ROOT
ATOM      1  N   UNL     1       1.569  -0.561  -2.020  0.00  0.00    -0.265 N 
ATOM      2  C   UNL     1       2.776  -0.128  -2.408  0.00  0.00    +0.312 C 
ATOM      3  O   UNL     1       3.573   0.384  -1.646  0.00  0.00    -0.252 OA
ATOM      4  N   UNL     1       3.025  -0.311  -3.712  0.00  0.00    -0.232 N 
ATOM      5  C   UNL     1       1.861  -0.953  -4.341  0.00  0.00    +0.224 C 
ATOM      6  C   UNL     1       0.864  -1.130  -3.179  0.00  0.00    +0.072 C 
ATOM      7  C   UNL     1      -0.424  -0.354  -3.458  0.00  0.00    +0.035 C 
ATOM      8  C   UNL     1       0.561  -2.612  -2.949  0.00  0.00    +0.035 C 
ENDROOT
BRANCH   4   9
ATOM      9  C   UNL     1       4.206   0.050  -4.370  0.00  0.00    +0.040 A 
ATOM     10  C   UNL     1       4.553   1.389  -4.490  0.00  0.00    +0.023 A 
ATOM     11  C   UNL     1       5.720   1.743  -5.140  0.00  0.00    +0.002 A 
ATOM     12  C   UNL     1       6.541   0.765  -5.670  0.00  0.00    +0.000 A 
ATOM     13  C   UNL     1       6.198  -0.570  -5.552  0.00  0.00    +0.002 A 
ATOM     14  C   UNL     1       5.036  -0.930  -4.899  0.00  0.00    +0.023 A 
ENDBRANCH   4   9
BRANCH   5  15
ATOM     15  N   UNL     1       1.300  -0.090  -5.383  0.00  0.00    -0.144 N 
ATOM     16  C   UNL     1       1.020  -0.598  -6.600  0.00  0.00    +0.331 C 
ATOM     17  O   UNL     1       1.150  -1.789  -6.806  0.00  0.00    -0.250 OA
ATOM     18  N   UNL     1       0.598   0.215  -7.589  0.00  0.00    -0.268 N 
ATOM     19  H   UNL     1       0.556   1.173  -7.444  0.00  0.00    +0.156 HD
BRANCH  18  20
ATOM     20  C   UNL     1       0.219  -0.324  -8.823  0.00  0.00    +0.035 A 
ATOM     21  C   UNL     1      -0.401  -1.566  -8.880  0.00  0.00    +0.023 A 
ATOM     22  C   UNL     1      -0.774  -2.095 -10.100  0.00  0.00    +0.002 A 
ATOM     23  C   UNL     1      -0.531  -1.389 -11.265  0.00  0.00    +0.000 A 
ATOM     24  C   UNL     1       0.085  -0.152 -11.211  0.00  0.00    +0.002 A 
ATOM     25  C   UNL     1       0.456   0.385  -9.994  0.00  0.00    +0.023 A 
ENDBRANCH  18  20
BRANCH  15  26
ATOM     26  O   UNL     1       1.051   1.277  -5.113  0.00  0.00    -0.289 OA
ATOM     27  H   UNL     1       0.607   1.746  -5.832  0.00  0.00    +0.242 HD
ENDBRANCH  15  26
ENDBRANCH   5  15
BRANCH   1  29
ATOM     28  C   UNL     1       0.974   0.977  -0.215  0.00  0.00    +0.038 C 
ATOM     29  C   UNL     1       1.038  -0.486  -0.657  0.00  0.00    +0.163 C 
BRANCH  29  30
ATOM     30  C   UNL     1       1.939  -1.253   0.276  0.00  0.00    +0.253 C 
ATOM     31  O   UNL     1       2.927  -1.809  -0.155  0.00  0.00    -0.272 OA
ATOM     32  N   UNL     1       1.646  -1.323   1.590  0.00  0.00    -0.205 N 
ATOM     33  H   UNL     1       0.856  -0.879   1.935  0.00  0.00    +0.177 HD
BRANCH  32  34
ATOM     34  N   UNL     1       2.484  -2.036   2.457  0.00  0.00    -0.188 NA
ATOM     35  C   UNL     1       2.141  -2.205   3.697  0.00  0.00    +0.138 C 
BRANCH  35  36
ATOM     36  C   UNL     1       0.721  -2.118   4.088  0.00  0.00    -0.005 A 
ATOM     37  C   UNL     1      -0.276  -2.110   3.111  0.00  0.00    +0.009 A 
ATOM     38  C   UNL     1      -1.602  -2.029   3.484  0.00  0.00    +0.001 A 
ATOM     39  C   UNL     1      -1.944  -1.955   4.822  0.00  0.00    +0.000 A 
ATOM     40  C   UNL     1      -0.961  -1.963   5.796  0.00  0.00    +0.001 A 
ATOM     41  C   UNL     1       0.368  -2.049   5.438  0.00  0.00    +0.009 A 
ENDBRANCH  35  36
ENDBRANCH  32  34
ENDBRANCH  29  30
ENDBRANCH   1  29
TORSDOF 8
