REMARK  Name = ZINC35317773
REMARK  13 active torsions:
REMARK  status: ('A' for Active; 'I' for Inactive)
REMARK    1  A    between atoms: C_1  and  C_2
REMARK    2  A    between atoms: C_7  and  C_9
REMARK    3  A    between atoms: C_7  and  C_10
REMARK    4  A    between atoms: C_13  and  C_15
REMARK    5  A    between atoms: C_15  and  C_17
REMARK    6  A    between atoms: C_15  and  N_28
REMARK    7  A    between atoms: C_17  and  C_18
REMARK    8  A    between atoms: C_29  and  C_31
REMARK    9  A    between atoms: C_31  and  C_32
REMARK   10  A    between atoms: C_32  and  C_33
REMARK   11  A    between atoms: C_33  and  C_34
REMARK   12  A    between atoms: C_34  and  C_35
REMARK   13  A    between atoms: C_35  and  N_36
REMARK                            x       y       z     vdW  Elec       q    Type
REMARK                         _______ _______ _______ _____ _____    ______ ____
ROOT
ATOM      1  C   UNL     1      -3.654  -2.511  -0.517  0.00  0.00    +0.163 C 
ENDROOT
BRANCH   1  13
ATOM      2  C   UNL     1       0.625   0.456   1.137  0.00  0.00    +0.013 C 
ATOM      3  C   UNL     1       0.371  -0.982   0.658  0.00  0.00    -0.014 C 
ATOM      4  C   UNL     1       0.983  -1.253  -0.744  0.00  0.00    +0.030 C 
ATOM      5  C   UNL     1       0.176  -2.517  -1.137  0.00  0.00    +0.077 C 
ATOM      6  C   UNL     1       0.754  -3.687  -0.345  0.00  0.00    +0.029 C 
ATOM      7  C   UNL     1       0.763  -3.466   1.157  0.00  0.00    -0.033 C 
ATOM      8  C   UNL     1       0.939  -2.030   1.613  0.00  0.00    +0.014 C 
ATOM      9  C   UNL     1       1.954  -4.276   1.729  0.00  0.00    +0.011 C 
ATOM     10  C   UNL     1      -0.506  -4.067   1.779  0.00  0.00    +0.011 C 
ATOM     11  N   UNL     1      -1.199  -2.248  -0.672  0.00  0.00    -0.296 N 
ATOM     12  C   UNL     1      -1.129  -1.266   0.422  0.00  0.00    +0.114 C 
ATOM     13  C   UNL     1      -2.326  -2.796  -1.169  0.00  0.00    +0.236 C 
ATOM     14  O   UNL     1      -2.271  -3.518  -2.142  0.00  0.00    -0.274 OA
ENDBRANCH   1  13
BRANCH   1  15
ATOM     15  N   UNL     1      -4.570  -3.627  -0.767  0.00  0.00    -0.304 N 
ATOM     16  C   UNL     1      -5.591  -3.864   0.080  0.00  0.00    +0.214 C 
ATOM     17  O   UNL     1      -5.751  -3.154   1.050  0.00  0.00    -0.276 OA
ATOM     18  H   UNL     1      -4.442  -4.194  -1.543  0.00  0.00    +0.149 HD
BRANCH  16  19
ATOM     19  C   UNL     1      -6.534  -5.011  -0.178  0.00  0.00    +0.096 C 
BRANCH  19  20
ATOM     20  C   UNL     1      -7.593  -5.058   0.925  0.00  0.00    +0.009 C 
BRANCH  20  21
ATOM     21  C   UNL     1      -8.550  -6.223   0.663  0.00  0.00    -0.001 C 
BRANCH  21  22
ATOM     22  C   UNL     1      -9.610  -6.270   1.766  0.00  0.00    -0.020 C 
BRANCH  22  23
ATOM     23  C   UNL     1     -10.567  -7.435   1.504  0.00  0.00    -0.086 C 
BRANCH  23  24
ATOM     24  N   UNL     1     -11.584  -7.480   2.562  0.00  0.00    +0.378 N 
ATOM     25  H   UNL     1     -11.134  -7.609   3.456  0.00  0.00    -0.090 HD
ATOM     26  H   UNL     1     -12.102  -6.614   2.568  0.00  0.00    -0.090 HD
ATOM     27  H   UNL     1     -12.215  -8.248   2.390  0.00  0.00    -0.090 HD
ENDBRANCH  23  24
ENDBRANCH  22  23
ENDBRANCH  21  22
ENDBRANCH  20  21
ENDBRANCH  19  20
ENDBRANCH  16  19
ENDBRANCH   1  15
BRANCH   1  28
ATOM     28  C   UNL     1      -4.244  -1.226  -1.100  0.00  0.00    +0.069 C 
BRANCH  28  29
ATOM     29  C   UNL     1      -5.499  -0.864  -0.349  0.00  0.00    -0.020 A 
ATOM     30  C   UNL     1      -6.757  -1.182  -0.696  0.00  0.00    +0.087 A 
ATOM     31  N   UNL     1      -7.636  -0.682   0.226  0.00  0.00    -0.360 N 
ATOM     32  H   UNL     1      -8.599  -0.784   0.190  0.00  0.00    +0.165 HD
ATOM     33  C   UNL     1      -6.948  -0.013   1.214  0.00  0.00    +0.047 A 
ATOM     34  C   UNL     1      -5.579  -0.103   0.900  0.00  0.00    +0.003 A 
ATOM     35  C   UNL     1      -4.632   0.487   1.739  0.00  0.00    +0.010 A 
ATOM     36  C   UNL     1      -5.040   1.146   2.864  0.00  0.00    +0.001 A 
ATOM     37  C   UNL     1      -6.388   1.234   3.181  0.00  0.00    +0.002 A 
ATOM     38  C   UNL     1      -7.340   0.667   2.362  0.00  0.00    +0.026 A 
ENDBRANCH  28  29
ENDBRANCH   1  28
TORSDOF 10
