REMARK  Name = ZINC32864207
REMARK  16 active torsions:
REMARK  status: ('A' for Active; 'I' for Inactive)
REMARK    1  A    between atoms: C_1  and  C_2
REMARK    2  A    between atoms: C_2  and  O_3
REMARK    3  A    between atoms: O_3  and  C_4
REMARK    4  A    between atoms: C_4  and  C_6
REMARK    5  A    between atoms: C_10  and  N_11
REMARK    6  A    between atoms: C_12  and  C_14
REMARK    7  A    between atoms: C_14  and  O_15
REMARK    8  A    between atoms: O_15  and  C_16
REMARK    9  A    between atoms: C_19  and  C_24
REMARK   10  A    between atoms: C_21  and  O_22
REMARK   11  A    between atoms: O_22  and  C_23
REMARK   12  A    between atoms: C_24  and  C_26
REMARK   13  A    between atoms: C_27  and  C_33
REMARK   14  A    between atoms: C_27  and  C_34
REMARK   15  A    between atoms: C_29  and  C_31
REMARK   16  A    between atoms: C_29  and  C_32
REMARK                            x       y       z     vdW  Elec       q    Type
REMARK                         _______ _______ _______ _____ _____    ______ ____
ROOT
ATOM      1  C   UNL     1       5.573  -4.056  -0.073  0.00  0.00    +0.091 A 
ATOM      2  C   UNL     1       6.994  -4.328  -0.093  0.00  0.00    -0.024 A 
ATOM      3  C   UNL     1       7.798  -3.240  -0.089  0.00  0.00    -0.016 A 
ATOM      4  S   UNL     1       6.685  -1.864  -0.070  0.00  0.00    -0.079 S 
ATOM      5  C   UNL     1       5.179  -2.722  -0.062  0.00  0.00    +0.086 A 
ATOM      6  C   UNL     1       9.292  -3.236  -0.091  0.00  0.00    -0.041 C 
ATOM      7  N   UNL     1       9.834  -4.574  -0.301  0.00  0.00    +0.389 N 
ATOM      8  C   UNL     1       8.963  -5.579  -0.889  0.00  0.00    -0.069 C 
ATOM      9  C   UNL     1       7.639  -5.708  -0.126  0.00  0.00    +0.024 C 
ATOM     10  C   UNL     1       8.671  -5.262  -2.359  0.00  0.00    -0.010 C 
ATOM     11  C   UNL     1       9.676  -6.943  -0.832  0.00  0.00    -0.010 C 
ATOM     12  C   UNL     1       9.798  -2.278  -1.178  0.00  0.00    -0.005 C 
ATOM     13  C   UNL     1       9.777  -2.707   1.272  0.00  0.00    -0.005 C 
ATOM     14  H   UNL     1      10.701  -4.517  -0.975  0.00  0.00    -0.084 HD
ATOM     15  H   UNL     1      10.148  -4.998   0.665  0.00  0.00    -0.084 HD
ENDROOT
BRANCH   5  16
ATOM     16  N   UNL     1       3.893  -2.205  -0.047  0.00  0.00    -0.277 N 
ATOM     17  C   UNL     1       3.703  -0.871  -0.038  0.00  0.00    +0.255 C 
ATOM     18  O   UNL     1       4.657  -0.122  -0.043  0.00  0.00    -0.272 OA
ATOM     19  H   UNL     1       3.028  -2.884  -0.042  0.00  0.00    +0.155 HD
BRANCH  17  20
ATOM     20  C   UNL     1       2.304  -0.309  -0.022  0.00  0.00    +0.325 C 
BRANCH  20  21
ATOM     21  O   UNL     1       2.365   1.118  -0.015  0.00  0.00    -0.479 OA
BRANCH  21  22
ATOM     22  C   UNL     1       1.182   1.785   0.000  0.00  0.00    +0.163 A 
ATOM     23  C   UNL     1      -0.013   1.076   0.008  0.00  0.00    +0.050 A 
ATOM     24  C   UNL     1      -1.215   1.746   0.017  0.00  0.00    +0.015 A 
ATOM     25  C   UNL     1      -1.236   3.146   0.031  0.00  0.00    +0.021 A 
ATOM     26  C   UNL     1      -0.031   3.860   0.023  0.00  0.00    +0.060 A 
ATOM     27  C   UNL     1       1.170   3.180   0.007  0.00  0.00    +0.162 A 
BRANCH  25  28
ATOM     28  C   UNL     1      -2.517   3.864   0.047  0.00  0.00    +0.160 C 
ATOM     29  O   UNL     1      -2.533   5.076   0.053  0.00  0.00    -0.292 OA
ATOM     30  C   UNL     1      -3.812   3.093   0.056  0.00  0.00    +0.091 C 
ENDBRANCH  25  28
BRANCH  27  31
ATOM     31  O   UNL     1       2.342   3.870   0.000  0.00  0.00    -0.491 OA
ATOM     32  C   UNL     1       2.255   5.296   0.008  0.00  0.00    +0.277 C 
ENDBRANCH  27  31
ENDBRANCH  21  22
ENDBRANCH  20  21
ENDBRANCH  17  20
ENDBRANCH   5  16
BRANCH   1  33
ATOM     33  C   UNL     1       4.579  -5.132  -0.060  0.00  0.00    +0.342 C 
ATOM     34  O   UNL     1       4.150  -5.575  -1.108  0.00  0.00    -0.245 OA
BRANCH  33  35
ATOM     35  O   UNL     1       4.141  -5.631   1.114  0.00  0.00    -0.461 OA
BRANCH  35  37
ATOM     36  C   UNL     1       2.782  -7.130   2.469  0.00  0.00    +0.048 C 
ATOM     37  C   UNL     1       3.156  -6.696   1.050  0.00  0.00    +0.229 C 
ENDBRANCH  35  37
ENDBRANCH  33  35
ENDBRANCH   1  33
TORSDOF 9
