REMARK  Name = ZINC03841487
REMARK  6 active torsions:
REMARK  status: ('A' for Active; 'I' for Inactive)
REMARK    1  A    between atoms: C_3  and  C_9
REMARK    2  A    between atoms: C_5  and  C_7
REMARK    3  A    between atoms: C_9  and  N_57
REMARK    4  A    between atoms: C_20  and  N_25
REMARK    5  A    between atoms: N_25  and  S_26
REMARK    6  A    between atoms: S_26  and  C_29
REMARK                            x       y       z     vdW  Elec       q    Type
REMARK                         _______ _______ _______ _____ _____    ______ ____
ROOT
ATOM      1  C   UNL     1       5.693   5.702  -2.577  0.00  0.00    -0.073 C 
ATOM      2  C   UNL     1       5.950   5.618  -4.074  0.00  0.00    -0.007 C 
ATOM      3  C   UNL     1       4.752   6.153  -4.862  0.00  0.00    +0.011 C 
ATOM      4  C   UNL     1       3.520   5.345  -4.437  0.00  0.00    +0.020 C 
ATOM      5  C   UNL     1       3.300   5.571  -2.932  0.00  0.00    -0.069 C 
ATOM      6  C   UNL     1       3.797   3.873  -4.641  0.00  0.00    +0.023 A 
ATOM      7  C   UNL     1       2.736   3.066  -4.898  0.00  0.00    +0.023 A 
ATOM      8  C   UNL     1       2.908   1.683  -5.033  0.00  0.00    +0.031 A 
ATOM      9  C   UNL     1       4.160   1.155  -4.877  0.00  0.00    +0.112 A 
ATOM     10  C   UNL     1       5.238   2.020  -4.607  0.00  0.00    +0.274 A 
ATOM     11  O   UNL     1       6.350   1.558  -4.405  0.00  0.00    -0.266 OA
ATOM     12  N   UNL     1       5.052   3.363  -4.572  0.00  0.00    -0.310 N 
ATOM     13  C   UNL     1       6.253   4.197  -4.517  0.00  0.00    +0.127 C 
ATOM     14  N   UNL     1       4.456   4.978  -2.222  0.00  0.00    +0.383 N 
ATOM     15  H   UNL     1       4.552   3.995  -2.503  0.00  0.00    -0.081 HD
ENDROOT
BRANCH   9  16
ATOM     16  N   UNL     1       4.367  -0.226  -4.983  0.00  0.00    -0.211 N 
ATOM     17  H   UNL     1       5.243  -0.601  -4.802  0.00  0.00    +0.174 HD
BRANCH  16  18
ATOM     18  S   UNL     1       3.116  -1.220  -5.420  0.00  0.00    +0.073 S 
ATOM     19  O   UNL     1       3.646  -2.537  -5.483  0.00  0.00    -0.150 OA
ATOM     20  O   UNL     1       2.017  -0.880  -4.585  0.00  0.00    -0.150 OA
BRANCH  18  21
ATOM     21  C   UNL     1       2.653  -0.784  -7.063  0.00  0.00    +0.111 A 
ATOM     22  C   UNL     1       3.340  -1.316  -8.138  0.00  0.00    +0.029 A 
ATOM     23  C   UNL     1       2.978  -0.975  -9.428  0.00  0.00    +0.005 A 
ATOM     24  C   UNL     1       1.929  -0.102  -9.644  0.00  0.00    +0.038 A 
ATOM     25  C   UNL     1       1.240   0.432  -8.568  0.00  0.00    +0.125 A 
ATOM     26  C   UNL     1       1.600   0.085  -7.276  0.00  0.00    +0.067 A 
ATOM     27  F   UNL     1       0.214   1.286  -8.778  0.00  0.00    -0.205 F 
ENDBRANCH  18  21
ENDBRANCH  16  18
ENDBRANCH   9  16
BRANCH  14  28
ATOM     28  C   UNL     1       4.237   5.038  -0.762  0.00  0.00    -0.043 C 
BRANCH  28  31
ATOM     29  C   UNL     1       0.515   4.978  -0.109  0.00  0.00    +0.001 A 
ATOM     30  C   UNL     1       1.792   5.428  -0.395  0.00  0.00    +0.002 A 
ATOM     31  C   UNL     1       2.850   4.539  -0.450  0.00  0.00    -0.063 A 
ATOM     32  C   UNL     1       2.639   3.195  -0.220  0.00  0.00    +0.020 A 
ATOM     33  C   UNL     1       1.353   2.733   0.069  0.00  0.00    +0.052 A 
ATOM     34  C   UNL     1       0.288   3.636   0.117  0.00  0.00    +0.019 A 
BRANCH  33  35
ATOM     35  C   UNL     1       1.126   1.340   0.308  0.00  0.00    +0.099 C 
ATOM     36  N   UNL     1       0.945   0.235   0.498  0.00  0.00    -0.191 NA
ENDBRANCH  33  35
ENDBRANCH  28  31
ENDBRANCH  14  28
TORSDOF 6
