REMARK  Name = ZINC01202849
REMARK  8 active torsions:
REMARK  status: ('A' for Active; 'I' for Inactive)
REMARK    1  A    between atoms: C_1  and  C_2
REMARK    2  A    between atoms: C_7  and  N_8
REMARK    3  A    between atoms: N_8  and  C_9
REMARK    4  A    between atoms: C_9  and  C_10
REMARK    5  A    between atoms: N_12  and  N_13
REMARK    6  A    between atoms: C_14  and  C_15
REMARK    7  A    between atoms: C_18  and  O_23
REMARK    8  A    between atoms: C_20  and  O_21
REMARK                            x       y       z     vdW  Elec       q    Type
REMARK                         _______ _______ _______ _____ _____    ______ ____
ROOT
ATOM      1  C   UNL     1       0.045   0.213   4.831  0.00  0.00    +0.249 C 
ATOM      2  O   UNL     1       0.027   1.407   4.618  0.00  0.00    -0.272 OA
ATOM      3  N   UNL     1       0.063  -0.246   6.098  0.00  0.00    -0.206 N 
ATOM      4  H   UNL     1       0.078  -1.201   6.268  0.00  0.00    +0.177 HD
ENDROOT
BRANCH   3   5
ATOM      5  N   UNL     1       0.061   0.657   7.170  0.00  0.00    -0.188 NA
ATOM      6  C   UNL     1       0.079   0.215   8.391  0.00  0.00    +0.142 C 
BRANCH   6   7
ATOM      7  C   UNL     1       0.076   1.164   9.517  0.00  0.00    +0.038 A 
ATOM      8  C   UNL     1       0.101   0.692  10.832  0.00  0.00    +0.032 A 
ATOM      9  C   UNL     1       0.099   1.583  11.884  0.00  0.00    +0.061 A 
ATOM     10  C   UNL     1       0.073   2.951  11.641  0.00  0.00    +0.148 A 
ATOM     11  C   UNL     1       0.048   3.430  10.339  0.00  0.00    +0.102 A 
ATOM     12  C   UNL     1       0.055   2.545   9.274  0.00  0.00    +0.143 A 
ATOM     13 BR   UNL     1       0.011   5.293  10.018  0.00  0.00    -0.043 Br
ATOM     14 BR   UNL     1       0.133   0.942  13.663  0.00  0.00    -0.046 Br
BRANCH  12  15
ATOM     15  O   UNL     1       0.036   3.012   7.999  0.00  0.00    -0.505 OA
ATOM     16  H   UNL     1      -0.852   3.135   7.639  0.00  0.00    +0.292 HD
ENDBRANCH  12  15
BRANCH  10  17
ATOM     17  O   UNL     1       0.071   3.824  12.683  0.00  0.00    -0.504 OA
ATOM     18  H   UNL     1       0.953   4.091  12.973  0.00  0.00    +0.292 HD
ENDBRANCH  10  17
ENDBRANCH   6   7
ENDBRANCH   3   5
BRANCH   1  19
ATOM     19  C   UNL     1       0.047  -0.758   3.678  0.00  0.00    +0.199 C 
BRANCH  19  20
ATOM     20  N   UNL     1       0.025  -0.016   2.415  0.00  0.00    -0.335 N 
ATOM     21  H   UNL     1       0.012   0.954   2.422  0.00  0.00    +0.147 HD
BRANCH  20  28
ATOM     22  C   UNL     1      -0.018   1.503   0.010  0.00  0.00    +0.045 C 
ATOM     23  C   UNL     1       0.002  -0.004   0.002  0.00  0.00    -0.030 A 
ATOM     24  C   UNL     1       0.006  -0.689  -1.198  0.00  0.00    +0.005 A 
ATOM     25  C   UNL     1       0.024  -2.071  -1.206  0.00  0.00    +0.000 A 
ATOM     26  C   UNL     1       0.039  -2.773  -0.014  0.00  0.00    +0.002 A 
ATOM     27  C   UNL     1       0.036  -2.095   1.188  0.00  0.00    +0.023 A 
ATOM     28  C   UNL     1       0.023  -0.706   1.200  0.00  0.00    +0.030 A 
ENDBRANCH  20  28
ENDBRANCH  19  20
ENDBRANCH   1  19
TORSDOF 7
