REMARK  Name = ZINC13133274
REMARK  9 active torsions:
REMARK  status: ('A' for Active; 'I' for Inactive)
REMARK    1  A    between atoms: C_1  and  C_2
REMARK    2  A    between atoms: C_2  and  O_3
REMARK    3  A    between atoms: O_3  and  C_4
REMARK    4  A    between atoms: C_7  and  N_10
REMARK    5  A    between atoms: C_14  and  C_33
REMARK    6  A    between atoms: C_20  and  S_21
REMARK    7  A    between atoms: S_21  and  C_22
REMARK    8  A    between atoms: C_22  and  C_23
REMARK    9  A    between atoms: N_25  and  C_26
REMARK                            x       y       z     vdW  Elec       q    Type
REMARK                         _______ _______ _______ _____ _____    ______ ____
ROOT
ATOM      1  N   UNL     1      -2.039  -6.061  -0.285  0.00  0.00    -0.275 N 
ATOM      2  C   UNL     1      -3.313  -6.617  -0.111  0.00  0.00    +0.124 A 
ATOM      3  N   UNL     1      -4.410  -6.083  -0.589  0.00  0.00    -0.384 N 
ATOM      4  C   UNL     1      -3.288  -7.869   0.667  0.00  0.00    +0.082 A 
ATOM      5  C   UNL     1      -4.263  -8.584   1.352  0.00  0.00    +0.072 A 
ATOM      6  N   UNL     1      -3.699  -9.646   1.874  0.00  0.00    -0.177 NA
ATOM      7  N   UNL     1      -2.333  -9.660   1.547  0.00  0.00    -0.260 N 
ATOM      8  H   UNL     1      -1.693 -10.340   1.810  0.00  0.00    +0.191 HD
ATOM      9  C   UNL     1      -2.066  -8.567   0.805  0.00  0.00    +0.162 A 
ATOM     10  N   UNL     1      -0.940  -8.092   0.246  0.00  0.00    -0.204 NA
ATOM     11  C   UNL     1      -0.951  -6.896  -0.317  0.00  0.00    +0.177 A 
ATOM     12  C   UNL     1      -5.716  -8.204   1.475  0.00  0.00    +0.068 C 
ATOM     13  H   UNL     1      -4.363  -5.272  -1.120  0.00  0.00    +0.157 HD
ATOM     14  H   UNL     1      -5.269  -6.498  -0.413  0.00  0.00    +0.157 HD
ENDROOT
BRANCH   1  18
ATOM     15  C   UNL     1      -1.566  -1.939  -0.713  0.00  0.00    +0.121 A 
ATOM     16  C   UNL     1      -1.969  -2.707  -1.796  0.00  0.00    +0.047 A 
ATOM     17  C   UNL     1      -2.125  -4.072  -1.655  0.00  0.00    +0.030 A 
ATOM     18  C   UNL     1      -1.880  -4.675  -0.429  0.00  0.00    +0.051 A 
ATOM     19  C   UNL     1      -1.477  -3.906   0.655  0.00  0.00    +0.030 A 
ATOM     20  C   UNL     1      -1.315  -2.543   0.511  0.00  0.00    +0.047 A 
BRANCH  15  21
ATOM     21  O   UNL     1      -1.412  -0.596  -0.852  0.00  0.00    -0.492 OA
BRANCH  21  23
ATOM     22  C   UNL     1      -1.460   1.471  -2.104  0.00  0.00    +0.048 C 
ATOM     23  C   UNL     1      -1.687  -0.042  -2.140  0.00  0.00    +0.225 C 
ENDBRANCH  21  23
ENDBRANCH  15  21
ENDBRANCH   1  18
BRANCH  11  24
ATOM     24  S   UNL     1       0.503  -6.342  -1.144  0.00  0.00    -0.078 S 
BRANCH  24  25
ATOM     25  C   UNL     1       1.668  -7.719  -0.952  0.00  0.00    +0.173 C 
BRANCH  25  26
ATOM     26  C   UNL     1       2.971  -7.372  -1.624  0.00  0.00    +0.227 C 
ATOM     27  O   UNL     1       3.102  -6.301  -2.178  0.00  0.00    -0.275 OA
ATOM     28  N   UNL     1       3.993  -8.251  -1.609  0.00  0.00    -0.285 N 
ATOM     29  H   UNL     1       3.864  -9.137  -1.236  0.00  0.00    +0.155 HD
BRANCH  28  30
ATOM     30  C   UNL     1       5.238  -7.886  -2.132  0.00  0.00    +0.033 A 
ATOM     31  C   UNL     1       6.075  -8.852  -2.676  0.00  0.00    +0.024 A 
ATOM     32  C   UNL     1       7.303  -8.489  -3.192  0.00  0.00    +0.017 A 
ATOM     33  C   UNL     1       7.701  -7.163  -3.167  0.00  0.00    +0.018 A 
ATOM     34  C   UNL     1       6.870  -6.199  -2.626  0.00  0.00    +0.017 A 
ATOM     35  C   UNL     1       5.638  -6.556  -2.114  0.00  0.00    +0.024 A 
ATOM     36 BR   UNL     1       9.384  -6.670  -3.874  0.00  0.00    -0.050 Br
ENDBRANCH  28  30
ENDBRANCH  25  26
ENDBRANCH  24  25
ENDBRANCH  11  24
TORSDOF 7
