REMARK  Name = ZINC28627733
REMARK  11 active torsions:
REMARK  status: ('A' for Active; 'I' for Inactive)
REMARK    1  A    between atoms: C_1  and  C_2
REMARK    2  A    between atoms: C_6  and  C_37
REMARK    3  A    between atoms: C_7  and  N_8
REMARK    4  A    between atoms: C_9  and  C_11
REMARK    5  A    between atoms: C_11  and  S_12
REMARK    6  A    between atoms: S_12  and  C_13
REMARK    7  A    between atoms: C_14  and  C_35
REMARK    8  A    between atoms: C_15  and  C_30
REMARK    9  A    between atoms: C_17  and  C_21
REMARK   10  A    between atoms: C_18  and  C_20
REMARK   11  A    between atoms: N_23  and  C_24
REMARK                            x       y       z     vdW  Elec       q    Type
REMARK                         _______ _______ _______ _____ _____    ______ ____
ROOT
ATOM      1  C   UNL     1      -1.780   3.334   1.244  0.00  0.00    +0.080 C 
ATOM      2  C   UNL     1      -0.852   3.707   2.165  0.00  0.00    +0.072 C 
ATOM      3  C   UNL     1       0.306   2.814   2.509  0.00  0.00    +0.134 C 
ATOM      4  C   UNL     1       0.484   1.745   1.469  0.00  0.00    +0.047 C 
ATOM      5  C   UNL     1      -0.484   1.450   0.587  0.00  0.00    +0.015 C 
ATOM      6  N   UNL     1      -1.673   2.128   0.592  0.00  0.00    -0.312 N 
ATOM      7  C   UNL     1      -0.255   0.361  -0.429  0.00  0.00    +0.061 C 
ATOM      8  H   UNL     1      -2.545   1.704   0.072  0.00  0.00    +0.152 HD
ENDROOT
BRANCH   3   9
ATOM      9  C   UNL     1       0.054   2.167   3.847  0.00  0.00    +0.118 A 
ATOM     10  C   UNL     1       0.816   2.311   4.946  0.00  0.00    +0.045 A 
ATOM     11  C   UNL     1       0.216   1.535   5.964  0.00  0.00    +0.041 A 
ATOM     12  C   UNL     1      -0.876   0.963   5.426  0.00  0.00    +0.195 A 
ATOM     13  O   UNL     1      -0.972   1.354   4.145  0.00  0.00    -0.467 OA
ENDBRANCH   3   9
BRANCH   4  14
ATOM     14  C   UNL     1       1.704   1.028   1.419  0.00  0.00    +0.247 C 
ATOM     15  O   UNL     1       1.902   0.226   0.524  0.00  0.00    -0.270 OA
ATOM     16  N   UNL     1       2.646   1.234   2.361  0.00  0.00    -0.282 N 
ATOM     17  H   UNL     1       2.436   1.897   3.213  0.00  0.00    +0.155 HD
BRANCH  16  18
ATOM     18  C   UNL     1       3.890   0.604   2.255  0.00  0.00    +0.034 A 
ATOM     19  C   UNL     1       3.981  -0.668   1.705  0.00  0.00    +0.023 A 
ATOM     20  C   UNL     1       5.213  -1.284   1.596  0.00  0.00    +0.002 A 
ATOM     21  C   UNL     1       6.352  -0.641   2.044  0.00  0.00    +0.000 A 
ATOM     22  C   UNL     1       6.263   0.624   2.597  0.00  0.00    +0.002 A 
ATOM     23  C   UNL     1       5.036   1.248   2.703  0.00  0.00    +0.023 A 
ENDBRANCH  16  18
ENDBRANCH   4  14
BRANCH   2  24
ATOM     24  C   UNL     1      -0.981   4.974   2.820  0.00  0.00    +0.098 C 
ATOM     25  N   UNL     1      -1.083   5.979   3.340  0.00  0.00    -0.191 NA
ENDBRANCH   2  24
BRANCH   1  26
ATOM     26  S   UNL     1      -3.129   4.408   0.878  0.00  0.00    -0.100 S 
BRANCH  26  27
ATOM     27  C   UNL     1      -3.991   3.417  -0.366  0.00  0.00    +0.171 C 
BRANCH  27  29
ATOM     28  N   UNL     1      -6.017   3.609  -1.772  0.00  0.00    -0.284 N 
ATOM     29  C   UNL     1      -5.215   4.158  -0.839  0.00  0.00    +0.227 C 
ATOM     30  O   UNL     1      -5.479   5.249  -0.379  0.00  0.00    -0.275 OA
ATOM     31  H   UNL     1      -5.831   2.583  -2.122  0.00  0.00    +0.155 HD
BRANCH  28  38
ATOM     32  C   UNL     1      -7.955   4.639   0.039  0.00  0.00    +0.045 C 
ATOM     33  C   UNL     1      -8.055   4.864  -1.448  0.00  0.00    -0.029 A 
ATOM     34  C   UNL     1      -9.107   5.593  -1.968  0.00  0.00    +0.005 A 
ATOM     35  C   UNL     1      -9.202   5.796  -3.333  0.00  0.00    +0.001 A 
ATOM     36  C   UNL     1      -8.242   5.274  -4.180  0.00  0.00    +0.005 A 
ATOM     37  C   UNL     1      -7.185   4.549  -3.666  0.00  0.00    -0.029 A 
ATOM     38  C   UNL     1      -7.087   4.344  -2.296  0.00  0.00    +0.039 A 
ATOM     39  C   UNL     1      -6.139   3.981  -4.591  0.00  0.00    +0.045 C 
ENDBRANCH  28  38
ENDBRANCH  27  29
ENDBRANCH  26  27
ENDBRANCH   1  26
TORSDOF 8
