REMARK  Name = ZINC31159440
REMARK  17 active torsions:
REMARK  status: ('A' for Active; 'I' for Inactive)
REMARK    1  A    between atoms: C_1  and  C_2
REMARK    2  A    between atoms: C_2  and  C_42
REMARK    3  A    between atoms: C_8  and  C_41
REMARK    4  A    between atoms: C_10  and  O_40
REMARK    5  A    between atoms: C_12  and  C_29
REMARK    6  A    between atoms: C_14  and  C_28
REMARK    7  A    between atoms: C_18  and  C_27
REMARK    8  A    between atoms: C_22  and  O_26
REMARK    9  A    between atoms: C_29  and  C_30
REMARK   10  A    between atoms: C_29  and  C_31
REMARK   11  A    between atoms: C_29  and  O_39
REMARK   12  A    between atoms: C_31  and  C_33
REMARK   13  A    between atoms: C_33  and  C_34
REMARK   14  A    between atoms: C_34  and  C_35
REMARK   15  A    between atoms: C_35  and  C_36
REMARK   16  A    between atoms: C_35  and  C_37
REMARK   17  A    between atoms: C_35  and  O_38
REMARK                            x       y       z     vdW  Elec       q    Type
REMARK                         _______ _______ _______ _____ _____    ______ ____
ROOT
ATOM      1  C   UNL     1      -2.159  -0.026  -3.417  0.00  0.00    +0.023 C 
ATOM      2  C   UNL     1      -1.852  -1.530  -3.423  0.00  0.00    +0.047 C 
ATOM      3  C   UNL     1      -0.509  -1.767  -4.086  0.00  0.00    -0.057 C 
ATOM      4  C   UNL     1      -0.491  -1.841  -5.395  0.00  0.00    -0.026 C 
ATOM      5  C   UNL     1       0.753  -2.079  -6.222  0.00  0.00    +0.032 C 
ATOM      6  C   UNL     1       1.936  -1.688  -5.349  0.00  0.00    +0.013 C 
ATOM      7  C   UNL     1       3.242  -1.454  -6.002  0.00  0.00    -0.020 C 
ATOM      8  C   UNL     1       3.439  -1.754  -7.493  0.00  0.00    +0.039 C 
ATOM      9  C   UNL     1       4.980  -1.600  -7.655  0.00  0.00    +0.122 C 
ATOM     10  C   UNL     1       5.601  -1.890  -6.267  0.00  0.00    +0.063 C 
ATOM     11  C   UNL     1       4.409  -2.242  -5.375  0.00  0.00    -0.011 C 
ATOM     12  C   UNL     1       4.464  -1.921  -3.902  0.00  0.00    +0.082 C 
ATOM     13  C   UNL     1       3.180  -2.485  -3.289  0.00  0.00    +0.141 C 
ATOM     14  O   UNL     1       3.232  -2.962  -2.164  0.00  0.00    -0.297 OA
ATOM     15  C   UNL     1       1.889  -2.467  -4.048  0.00  0.00    +0.036 C 
ATOM     16  C   UNL     1       0.739  -1.845  -3.243  0.00  0.00    +0.032 C 
ATOM     17  C   UNL     1       0.517  -2.603  -1.943  0.00  0.00    +0.048 C 
ATOM     18  C   UNL     1      -0.616  -1.919  -1.160  0.00  0.00    +0.182 C 
ATOM     19  C   UNL     1      -1.861  -2.045  -2.003  0.00  0.00    +0.171 C 
ATOM     20  O   UNL     1      -2.860  -2.558  -1.546  0.00  0.00    -0.294 OA
ATOM     21  C   UNL     1       1.457  -3.918  -4.306  0.00  0.00    +0.020 C 
ATOM     22  C   UNL     1       4.224  -3.761  -5.559  0.00  0.00    +0.012 C 
ATOM     23  C   UNL     1       3.489   0.071  -5.838  0.00  0.00    +0.012 C 
ATOM     24  C   UNL     1      -2.970  -2.257  -4.187  0.00  0.00    +0.023 C 
ENDROOT
BRANCH  18  25
ATOM     25  O   UNL     1      -0.801  -2.587   0.087  0.00  0.00    -0.384 OA
ATOM     26  H   UNL     1      -1.502  -2.209   0.636  0.00  0.00    +0.210 HD
ENDBRANCH  18  25
BRANCH  10  27
ATOM     27  C   UNL     1       6.462  -0.756  -5.748  0.00  0.00    +0.126 C 
ATOM     28  C   UNL     1       7.543  -0.424  -6.779  0.00  0.00    +0.050 C 
BRANCH  27  29
ATOM     29  C   UNL     1       7.112  -1.171  -4.454  0.00  0.00    +0.165 C 
ATOM     30  O   UNL     1       7.394  -2.330  -4.264  0.00  0.00    -0.294 OA
BRANCH  29  31
ATOM     31  C   UNL     1       7.410  -0.140  -3.396  0.00  0.00    +0.080 C 
BRANCH  31  32
ATOM     32  C   UNL     1       8.065  -0.820  -2.192  0.00  0.00    +0.042 C 
BRANCH  32  33
ATOM     33  C   UNL     1       8.368   0.227  -1.118  0.00  0.00    +0.061 C 
ATOM     34  C   UNL     1       9.134  -0.429   0.033  0.00  0.00    +0.041 C 
ATOM     35  C   UNL     1       9.217   1.347  -1.722  0.00  0.00    +0.041 C 
BRANCH  33  36
ATOM     36  O   UNL     1       7.142   0.772  -0.624  0.00  0.00    -0.389 OA
ATOM     37  H   UNL     1       7.258   1.444   0.061  0.00  0.00    +0.210 HD
ENDBRANCH  33  36
ENDBRANCH  32  33
ENDBRANCH  31  32
ENDBRANCH  29  31
ENDBRANCH  27  29
BRANCH  27  38
ATOM     38  O   UNL     1       5.647   0.396  -5.524  0.00  0.00    -0.381 OA
ATOM     39  H   UNL     1       5.240   0.426  -4.648  0.00  0.00    +0.211 HD
ENDBRANCH  27  38
ENDBRANCH  10  27
BRANCH   9  40
ATOM     40  O   UNL     1       5.321  -0.294  -8.108  0.00  0.00    -0.391 OA
ATOM     41  H   UNL     1       4.953  -0.069  -8.973  0.00  0.00    +0.210 HD
ENDBRANCH   9  40
TORSDOF 9
