REMARK  Name = ZINC02703742
REMARK  7 active torsions:
REMARK  status: ('A' for Active; 'I' for Inactive)
REMARK    1  A    between atoms: C_4  and  C_7
REMARK    2  A    between atoms: N_9  and  C_10
REMARK    3  A    between atoms: C_10  and  C_12
REMARK    4  A    between atoms: C_10  and  N_19
REMARK    5  A    between atoms: C_12  and  C_14
REMARK    6  A    between atoms: N_19  and  C_20
REMARK    7  A    between atoms: C_21  and  C_29
REMARK                            x       y       z     vdW  Elec       q    Type
REMARK                         _______ _______ _______ _____ _____    ______ ____
ROOT
ATOM      1  C   UNL     1      -1.892   5.557   0.049  0.00  0.00    +0.232 C 
ENDROOT
BRANCH   1   4
ATOM      2  C   UNL     1      -3.471   7.404   0.229  0.00  0.00    +0.246 C 
ATOM      3  O   UNL     1      -3.047   7.830  -0.828  0.00  0.00    -0.270 OA
ATOM      4  N   UNL     1      -2.959   6.273   0.753  0.00  0.00    -0.287 N 
ATOM      5  H   UNL     1      -3.296   5.933   1.596  0.00  0.00    +0.151 HD
BRANCH   2   9
ATOM      6  C   UNL     1      -6.564   9.480   2.270  0.00  0.00    +0.000 A 
ATOM      7  C   UNL     1      -6.084   9.968   1.067  0.00  0.00    +0.001 A 
ATOM      8  C   UNL     1      -5.079   9.299   0.399  0.00  0.00    +0.013 A 
ATOM      9  C   UNL     1      -4.547   8.127   0.939  0.00  0.00    +0.037 A 
ATOM     10  C   UNL     1      -5.039   7.637   2.150  0.00  0.00    +0.013 A 
ATOM     11  C   UNL     1      -6.040   8.319   2.811  0.00  0.00    +0.001 A 
ENDBRANCH   2   9
ENDBRANCH   1   4
BRANCH   1  12
ATOM     12  C   UNL     1      -2.197   4.081   0.043  0.00  0.00    +0.208 C 
ATOM     13  O   UNL     1      -3.349   3.699   0.052  0.00  0.00    -0.288 OA
BRANCH  12  14
ATOM     14  C   UNL     1      -1.141   3.142   0.029  0.00  0.00    +0.058 A 
ATOM     15  C   UNL     1      -1.204   1.752   0.017  0.00  0.00    +0.019 A 
ATOM     16  C   UNL     1      -0.013   1.076   0.008  0.00  0.00    +0.008 A 
ATOM     17  C   UNL     1       1.152   1.780   0.001  0.00  0.00    +0.046 A 
ATOM     18  S   UNL     1       0.619   3.429   0.014  0.00  0.00    -0.094 S 
ENDBRANCH  12  14
ENDBRANCH   1  12
BRANCH   1  19
ATOM     19  N   UNL     1      -0.616   5.790   0.729  0.00  0.00    -0.314 N 
ATOM     20  H   UNL     1      -0.424   5.340   1.567  0.00  0.00    +0.149 HD
BRANCH  19  21
ATOM     21  C   UNL     1       0.315   6.650   0.177  0.00  0.00    +0.080 A 
ATOM     22  C   UNL     1       1.565   7.000   0.669  0.00  0.00    +0.068 A 
ATOM     23  C   UNL     1       2.358   7.932  -0.116  0.00  0.00    -0.023 A 
ATOM     24  C   UNL     1       1.774   8.369  -1.252  0.00  0.00    -0.005 A 
ATOM     25  S   UNL     1       0.201   7.558  -1.294  0.00  0.00    -0.078 S 
ATOM     26  C   UNL     1       2.345   9.331  -2.248  0.00  0.00    +0.043 C 
ATOM     27  C   UNL     1       3.543  10.042  -1.603  0.00  0.00    +0.005 C 
ATOM     28  C   UNL     1       4.444   8.992  -0.946  0.00  0.00    +0.005 C 
ATOM     29  C   UNL     1       3.749   8.409   0.285  0.00  0.00    +0.037 C 
BRANCH  22  30
ATOM     30  C   UNL     1       2.068   6.448   1.930  0.00  0.00    +0.244 C 
ATOM     31  O   UNL     1       2.709   5.414   1.928  0.00  0.00    -0.270 OA
ATOM     32  N   UNL     1       1.820   7.086   3.091  0.00  0.00    -0.325 N 
ATOM     33  H   UNL     1       1.308   7.911   3.092  0.00  0.00    +0.145 HD
ATOM     34  H   UNL     1       2.152   6.721   3.925  0.00  0.00    +0.145 HD
ENDBRANCH  22  30
ENDBRANCH  19  21
ENDBRANCH   1  19
TORSDOF 7
