REMARK  Name = ZINC39631864
REMARK  13 active torsions:
REMARK  status: ('A' for Active; 'I' for Inactive)
REMARK    1  A    between atoms: C_1  and  C_2
REMARK    2  A    between atoms: C_2  and  C_4
REMARK    3  A    between atoms: C_2  and  N_11
REMARK    4  A    between atoms: C_4  and  C_5
REMARK    5  A    between atoms: C_5  and  C_6
REMARK    6  A    between atoms: C_6  and  C_7
REMARK    7  A    between atoms: C_7  and  C_8
REMARK    8  A    between atoms: C_7  and  C_9
REMARK    9  A    between atoms: C_7  and  O_10
REMARK   10  A    between atoms: C_12  and  C_14
REMARK   11  A    between atoms: C_25  and  C_27
REMARK   12  A    between atoms: C_31  and  O_32
REMARK   13  A    between atoms: O_32  and  C_33
REMARK                            x       y       z     vdW  Elec       q    Type
REMARK                         _______ _______ _______ _____ _____    ______ ____
ROOT
ATOM      1  C   UNL     1       0.198  -3.761  -5.937  0.00  0.00    +0.100 C 
ATOM      2  C   UNL     1      -0.398  -5.007  -5.243  0.00  0.00    +0.121 C 
ATOM      3  N   UNL     1      -1.704  -5.219  -5.910  0.00  0.00    -0.296 N 
ATOM      4  C   UNL     1      -1.442  -4.921  -7.338  0.00  0.00    +0.115 C 
ATOM      5  C   UNL     1      -0.487  -3.710  -7.313  0.00  0.00    -0.004 C 
ATOM      6  C   UNL     1      -1.278  -2.414  -7.462  0.00  0.00    -0.010 C 
ATOM      7  C   UNL     1      -1.903  -2.361  -8.858  0.00  0.00    -0.082 C 
ATOM      8  N   UNL     1      -0.845  -2.431  -9.873  0.00  0.00    +0.379 N 
ATOM      9  C   UNL     1      -0.149  -3.721  -9.783  0.00  0.00    -0.082 C 
ATOM     10  C   UNL     1       0.550  -3.832  -8.425  0.00  0.00    -0.010 C 
ATOM     11  C   UNL     1      -2.868  -5.596  -5.345  0.00  0.00    +0.251 C 
ATOM     12  O   UNL     1      -3.889  -5.609  -6.006  0.00  0.00    -0.270 OA
ATOM     13  H   UNL     1      -1.254  -2.335 -10.791  0.00  0.00    -0.086 HD
ATOM     14  H   UNL     1      -0.185  -1.683  -9.722  0.00  0.00    -0.086 HD
ENDROOT
BRANCH  11  15
ATOM     15  C   UNL     1      -2.904  -5.992  -3.929  0.00  0.00    +0.087 A 
ATOM     16  C   UNL     1      -2.185  -5.311  -2.971  0.00  0.00    +0.063 A 
ATOM     17  S   UNL     1      -2.537  -6.114  -1.541  0.00  0.00    -0.081 S 
ATOM     18  C   UNL     1      -3.640  -7.370  -2.150  0.00  0.00    +0.120 A 
ATOM     19  C   UNL     1      -3.700  -7.109  -3.476  0.00  0.00    +0.158 A 
ATOM     20 CL   UNL     1      -4.448  -8.622  -1.259  0.00  0.00    -0.072 Cl
BRANCH  19  21
ATOM     21  O   UNL     1      -4.458  -7.854  -4.328  0.00  0.00    -0.492 OA
ATOM     22  C   UNL     1      -3.832  -8.990  -4.928  0.00  0.00    +0.277 C 
ENDBRANCH  19  21
ENDBRANCH  11  15
BRANCH   1  24
ATOM     23  N   UNL     1       0.622  -1.406  -5.313  0.00  0.00    -0.312 N 
ATOM     24  C   UNL     1      -0.120  -2.518  -5.146  0.00  0.00    +0.218 C 
ATOM     25  O   UNL     1      -1.043  -2.520  -4.359  0.00  0.00    -0.275 OA
ATOM     26  H   UNL     1       1.313  -1.381  -5.993  0.00  0.00    +0.149 HD
BRANCH  23  28
ATOM     27  C   UNL     1      -0.823   0.543  -4.999  0.00  0.00    +0.028 C 
ATOM     28  C   UNL     1       0.384  -0.233  -4.468  0.00  0.00    +0.070 C 
BRANCH  28  29
ATOM     29  C   UNL     1       1.619   0.669  -4.488  0.00  0.00    +0.022 C 
BRANCH  29  30
ATOM     30  C   UNL     1       2.780  -0.039  -3.786  0.00  0.00    +0.005 C 
BRANCH  30  31
ATOM     31  C   UNL     1       3.977   0.910  -3.696  0.00  0.00    +0.034 C 
BRANCH  31  32
ATOM     32  C   UNL     1       5.102   0.237  -2.907  0.00  0.00    +0.061 C 
ATOM     33  C   UNL     1       6.243   1.234  -2.696  0.00  0.00    +0.041 C 
ATOM     34  C   UNL     1       4.569  -0.223  -1.549  0.00  0.00    +0.041 C 
BRANCH  32  35
ATOM     35  O   UNL     1       5.585  -0.893  -3.637  0.00  0.00    -0.389 OA
ATOM     36  H   UNL     1       5.939  -0.675  -4.510  0.00  0.00    +0.210 HD
ENDBRANCH  32  35
ENDBRANCH  31  32
ENDBRANCH  30  31
ENDBRANCH  29  30
ENDBRANCH  28  29
ENDBRANCH  23  28
ENDBRANCH   1  24
TORSDOF 9
