REMARK  Name = ZINC32986886
REMARK  6 active torsions:
REMARK  status: ('A' for Active; 'I' for Inactive)
REMARK    1  A    between atoms: C_4  and  N_7
REMARK    2  A    between atoms: C_8  and  C_10
REMARK    3  A    between atoms: C_10  and  O_11
REMARK    4  A    between atoms: O_11  and  C_12
REMARK    5  A    between atoms: C_12  and  C_14
REMARK    6  A    between atoms: C_17  and  C_20
REMARK                            x       y       z     vdW  Elec       q    Type
REMARK                         _______ _______ _______ _____ _____    ______ ____
ROOT
ATOM      1  C   UNL     1       2.562   4.109  -4.659  0.00  0.00    +0.059 A 
ATOM      2  C   UNL     1       1.321   3.929  -4.045  0.00  0.00    +0.015 A 
ATOM      3  C   UNL     1       1.217   4.006  -2.671  0.00  0.00    +0.007 A 
ATOM      4  C   UNL     1       2.339   4.262  -1.903  0.00  0.00    -0.011 A 
ATOM      5  C   UNL     1       3.571   4.447  -2.506  0.00  0.00    +0.007 A 
ATOM      6  C   UNL     1       3.690   4.367  -3.878  0.00  0.00    +0.015 A 
ENDROOT
BRANCH   4   7
ATOM      7  C   UNL     1       2.218   4.345  -0.403  0.00  0.00    +0.191 C 
ATOM      8  N   UNL     1       1.131   3.480   0.049  0.00  0.00    -0.322 N 
ATOM      9  C   UNL     1       1.192   2.089   0.007  0.00  0.00    +0.055 A 
ATOM     10  C   UNL     1       0.002   1.363   0.017  0.00  0.00    +0.025 A 
ATOM     11  C   UNL     1       0.030  -0.015   0.013  0.00  0.00    +0.002 A 
ATOM     12  C   UNL     1       1.239  -0.688  -0.000  0.00  0.00    +0.002 A 
ATOM     13  C   UNL     1       2.424   0.025  -0.017  0.00  0.00    +0.030 A 
ATOM     14  C   UNL     1       2.399   1.404  -0.020  0.00  0.00    +0.126 A 
ATOM     15  S   UNL     1       3.915   2.311  -0.078  0.00  0.00    +0.062 S 
ATOM     16  O   UNL     1       4.700   1.879   1.024  0.00  0.00    -0.153 OA
ATOM     17  O   UNL     1       4.378   2.260  -1.421  0.00  0.00    -0.153 OA
ATOM     18  N   UNL     1       3.476   3.892   0.224  0.00  0.00    -0.166 NA
ATOM     19  H   UNL     1       0.206   3.922   0.448  0.00  0.00    +0.148 HD
ATOM     20  H   UNL     1       4.143   4.621   0.708  0.00  0.00    +0.150 HD
ENDBRANCH   4   7
BRANCH   1  21
ATOM     21  C   UNL     1       2.680   4.029  -6.129  0.00  0.00    +0.340 C 
ATOM     22  O   UNL     1       1.697   3.805  -6.807  0.00  0.00    -0.245 OA
BRANCH  21  23
ATOM     23  O   UNL     1       3.879   4.203  -6.719  0.00  0.00    -0.452 OA
BRANCH  23  24
ATOM     24  C   UNL     1       3.921   4.110  -8.168  0.00  0.00    +0.328 C 
BRANCH  24  26
ATOM     25  N   UNL     1       5.614   4.290  -9.962  0.00  0.00    -0.283 N 
ATOM     26  C   UNL     1       5.333   4.331  -8.645  0.00  0.00    +0.255 C 
ATOM     27  O   UNL     1       6.217   4.546  -7.843  0.00  0.00    -0.272 OA
ATOM     28  H   UNL     1       4.828   4.021 -10.684  0.00  0.00    +0.155 HD
BRANCH  25  32
ATOM     29  C   UNL     1       9.456   5.184 -11.303  0.00  0.00    +0.000 A 
ATOM     30  C   UNL     1       9.280   4.528 -10.098  0.00  0.00    +0.002 A 
ATOM     31  C   UNL     1       8.008   4.230  -9.651  0.00  0.00    +0.023 A 
ATOM     32  C   UNL     1       6.904   4.590 -10.412  0.00  0.00    +0.033 A 
ATOM     33  C   UNL     1       7.083   5.244 -11.624  0.00  0.00    +0.023 A 
ATOM     34  C   UNL     1       8.358   5.544 -12.063  0.00  0.00    +0.002 A 
ENDBRANCH  25  32
ENDBRANCH  24  26
ENDBRANCH  23  24
ENDBRANCH  21  23
ENDBRANCH   1  21
TORSDOF 6
