REMARK  Name = ZINC03878107
REMARK  11 active torsions:
REMARK  status: ('A' for Active; 'I' for Inactive)
REMARK    1  A    between atoms: C_4  and  O_7
REMARK    2  A    between atoms: O_7  and  C_8
REMARK    3  A    between atoms: C_8  and  C_9
REMARK    4  A    between atoms: N_11  and  C_12
REMARK    5  A    between atoms: C_12  and  C_14
REMARK    6  A    between atoms: C_12  and  N_18
REMARK    7  A    between atoms: N_18  and  C_19
REMARK    8  A    between atoms: C_19  and  N_21
REMARK    9  A    between atoms: N_21  and  C_22
REMARK   10  A    between atoms: C_25  and  S_28
REMARK   11  A    between atoms: S_28  and  N_30
REMARK                            x       y       z     vdW  Elec       q    Type
REMARK                         _______ _______ _______ _____ _____    ______ ____
ROOT
ATOM      1  C   UNL     1       3.189   0.923  -0.249  0.00  0.00    +0.211 C 
ENDROOT
BRANCH   1   4
ATOM      2  C   UNL     1       0.876   0.461  -0.859  0.00  0.00    +0.252 C 
ATOM      3  O   UNL     1       1.127  -0.724  -0.794  0.00  0.00    -0.272 OA
ATOM      4  N   UNL     1       1.839   1.368  -0.604  0.00  0.00    -0.291 N 
ATOM      5  H   UNL     1       1.639   2.316  -0.656  0.00  0.00    +0.151 HD
BRANCH   2   6
ATOM      6  C   UNL     1      -0.511   0.918  -1.230  0.00  0.00    +0.324 C 
BRANCH   6   7
ATOM      7  O   UNL     1      -1.344  -0.221  -1.456  0.00  0.00    -0.483 OA
BRANCH   7  11
ATOM      8  C   UNL     1      -5.267   0.506  -2.506  0.00  0.00    +0.000 A 
ATOM      9  C   UNL     1      -4.814  -0.795  -2.387  0.00  0.00    +0.004 A 
ATOM     10  C   UNL     1      -3.501  -1.041  -2.036  0.00  0.00    +0.045 A 
ATOM     11  C   UNL     1      -2.636   0.019  -1.801  0.00  0.00    +0.121 A 
ATOM     12  C   UNL     1      -3.095   1.323  -1.915  0.00  0.00    +0.045 A 
ATOM     13  C   UNL     1      -4.407   1.564  -2.273  0.00  0.00    +0.004 A 
ENDBRANCH   7  11
ENDBRANCH   6   7
ENDBRANCH   2   6
ENDBRANCH   1   4
BRANCH   1  14
ATOM     14  C   UNL     1       4.218   1.742  -1.032  0.00  0.00    +0.225 C 
ATOM     15 CL   UNL     1       4.034   3.488  -0.624  0.00  0.00    -0.080 Cl
ATOM     16 CL   UNL     1       5.880   1.194  -0.596  0.00  0.00    -0.080 Cl
ATOM     17 CL   UNL     1       3.953   1.507  -2.800  0.00  0.00    -0.080 Cl
ENDBRANCH   1  14
BRANCH   1  18
ATOM     18  N   UNL     1       3.405   1.114   1.187  0.00  0.00    -0.305 N 
ATOM     19  H   UNL     1       3.558   2.004   1.540  0.00  0.00    +0.150 HD
BRANCH  18  20
ATOM     20  C   UNL     1       3.390   0.053   2.018  0.00  0.00    +0.136 C 
ATOM     21  S   UNL     1       3.119  -1.518   1.394  0.00  0.00    -0.019 S 
BRANCH  20  22
ATOM     22  N   UNL     1       3.588   0.228   3.339  0.00  0.00    -0.297 N 
ATOM     23  H   UNL     1       3.802   1.109   3.685  0.00  0.00    +0.154 HD
BRANCH  22  24
ATOM     24  C   UNL     1       3.485  -0.860   4.212  0.00  0.00    +0.033 A 
ATOM     25  C   UNL     1       2.783  -0.732   5.404  0.00  0.00    +0.024 A 
ATOM     26  C   UNL     1       2.679  -1.809   6.261  0.00  0.00    +0.020 A 
ATOM     27  C   UNL     1       3.281  -3.012   5.940  0.00  0.00    +0.054 A 
ATOM     28  C   UNL     1       3.986  -3.141   4.757  0.00  0.00    +0.020 A 
ATOM     29  C   UNL     1       4.089  -2.069   3.892  0.00  0.00    +0.024 A 
BRANCH  27  30
ATOM     30  S   UNL     1       3.152  -4.382   7.040  0.00  0.00    +0.123 S 
ATOM     31  O   UNL     1       2.047  -4.053   7.871  0.00  0.00    -0.236 OA
BRANCH  30  32
ATOM     32  N   UNL     1       4.465  -4.220   8.037  0.00  0.00    -0.248 NA
ATOM     33  H   UNL     1       4.421  -4.540   8.952  0.00  0.00    +0.134 HD
ATOM     34  H   UNL     1       5.277  -3.805   7.707  0.00  0.00    +0.134 HD
ENDBRANCH  30  32
ENDBRANCH  27  30
ENDBRANCH  22  24
ENDBRANCH  20  22
ENDBRANCH  18  20
ENDBRANCH   1  18
TORSDOF 11
