REMARK  Name = ZINC13799149
REMARK  17 active torsions:
REMARK  status: ('A' for Active; 'I' for Inactive)
REMARK    1  A    between atoms: C_1  and  C_2
REMARK    2  A    between atoms: C_2  and  C_3
REMARK    3  A    between atoms: C_3  and  C_4
REMARK    4  A    between atoms: C_4  and  C_5
REMARK    5  A    between atoms: C_5  and  C_6
REMARK    6  A    between atoms: C_6  and  C_7
REMARK    7  A    between atoms: C_7  and  O_36
REMARK    8  A    between atoms: C_8  and  C_35
REMARK    9  A    between atoms: C_10  and  C_26
REMARK   10  A    between atoms: C_12  and  C_17
REMARK   11  A    between atoms: C_14  and  C_16
REMARK   12  A    between atoms: C_20  and  N_23
REMARK   13  A    between atoms: N_23  and  C_24
REMARK   14  A    between atoms: N_23  and  C_25
REMARK   15  A    between atoms: C_29  and  N_32
REMARK   16  A    between atoms: N_32  and  C_33
REMARK   17  A    between atoms: N_32  and  C_34
REMARK                            x       y       z     vdW  Elec       q    Type
REMARK                         _______ _______ _______ _____ _____    ______ ____
ROOT
ATOM      1  C   UNL     1      -4.603   0.243   1.261  0.00  0.00    +0.069 C 
ATOM      2  C   UNL     1      -5.757   0.367   0.282  0.00  0.00    +0.008 C 
ATOM      3  C   UNL     1      -5.338   0.704  -1.139  0.00  0.00    -0.034 C 
ATOM      4  C   UNL     1      -3.142   1.466  -0.399  0.00  0.00    -0.034 C 
ATOM      5  C   UNL     1      -3.499   1.270   1.069  0.00  0.00    +0.008 C 
ATOM      6  C   UNL     1      -3.861   2.606   1.715  0.00  0.00    +0.009 C 
ATOM      7  C   UNL     1      -6.793   1.379   0.782  0.00  0.00    +0.009 C 
ATOM      8  N   UNL     1      -4.337   1.782  -1.203  0.00  0.00    +0.389 N 
ATOM      9  H   UNL     1      -4.758   2.649  -0.847  0.00  0.00    -0.084 HD
ATOM     10  H   UNL     1      -4.055   1.916  -2.181  0.00  0.00    -0.084 HD
ENDROOT
BRANCH   4  11
ATOM     11  C   UNL     1      -2.172   2.622  -0.520  0.00  0.00    -0.061 A 
ATOM     12  C   UNL     1      -0.819   2.375  -0.662  0.00  0.00    +0.004 A 
ATOM     13  C   UNL     1       0.068   3.427  -0.778  0.00  0.00    +0.023 A 
ATOM     14  C   UNL     1      -0.400   4.734  -0.748  0.00  0.00    +0.029 A 
ATOM     15  C   UNL     1      -1.759   4.979  -0.601  0.00  0.00    +0.023 A 
ATOM     16  C   UNL     1      -2.641   3.922  -0.484  0.00  0.00    +0.004 A 
BRANCH  14  17
ATOM     17  N   UNL     1       0.494   5.801  -0.867  0.00  0.00    -0.336 N 
ATOM     18  C   UNL     1       1.937   5.548  -0.887  0.00  0.00    +0.129 C 
ATOM     19  C   UNL     1      -0.011   7.172  -0.971  0.00  0.00    +0.129 C 
ENDBRANCH  14  17
ENDBRANCH   4  11
BRANCH   3  20
ATOM     20  C   UNL     1      -4.848  -0.531  -1.849  0.00  0.00    -0.061 A 
ATOM     21  C   UNL     1      -3.860  -0.428  -2.811  0.00  0.00    +0.004 A 
ATOM     22  C   UNL     1      -3.405  -1.558  -3.461  0.00  0.00    +0.023 A 
ATOM     23  C   UNL     1      -3.949  -2.799  -3.155  0.00  0.00    +0.029 A 
ATOM     24  C   UNL     1      -4.945  -2.899  -2.192  0.00  0.00    +0.023 A 
ATOM     25  C   UNL     1      -5.392  -1.765  -1.542  0.00  0.00    +0.004 A 
BRANCH  23  26
ATOM     26  N   UNL     1      -3.495  -3.944  -3.814  0.00  0.00    -0.336 N 
ATOM     27  C   UNL     1      -4.157  -5.231  -3.585  0.00  0.00    +0.129 C 
ATOM     28  C   UNL     1      -2.358  -3.858  -4.733  0.00  0.00    +0.129 C 
ENDBRANCH  23  26
ENDBRANCH   3  20
BRANCH   1  29
ATOM     29  O   UNL     1      -4.034  -1.074   1.153  0.00  0.00    -0.388 OA
ATOM     30  H   UNL     1      -4.675  -1.790   1.264  0.00  0.00    +0.210 HD
ENDBRANCH   1  29
BRANCH   1  31
ATOM     31  C   UNL     1      -5.158   0.386   2.692  0.00  0.00    +0.035 C 
BRANCH  31  32
ATOM     32  C   UNL     1      -4.043   0.103   3.701  0.00  0.00    +0.003 C 
BRANCH  32  33
ATOM     33  C   UNL     1      -4.559   0.364   5.118  0.00  0.00    +0.000 C 
BRANCH  33  34
ATOM     34  C   UNL     1      -3.445   0.080   6.127  0.00  0.00    -0.000 C 
BRANCH  34  36
ATOM     35  C   UNL     1      -2.846   0.058   8.553  0.00  0.00    +0.004 C 
ATOM     36  C   UNL     1      -3.961   0.341   7.544  0.00  0.00    -0.003 C 
ENDBRANCH  34  36
ENDBRANCH  33  34
ENDBRANCH  32  33
ENDBRANCH  31  32
ENDBRANCH   1  31
TORSDOF 10
