REMARK  Name = ZINC35442719
REMARK  13 active torsions:
REMARK  status: ('A' for Active; 'I' for Inactive)
REMARK    1  A    between atoms: C_1  and  C_2
REMARK    2  A    between atoms: C_4  and  C_26
REMARK    3  A    between atoms: C_6  and  C_23
REMARK    4  A    between atoms: C_9  and  C_11
REMARK    5  A    between atoms: C_11  and  C_12
REMARK    6  A    between atoms: C_15  and  C_17
REMARK    7  A    between atoms: N_21  and  C_22
REMARK    8  A    between atoms: C_23  and  C_24
REMARK    9  A    between atoms: C_23  and  C_25
REMARK   10  A    between atoms: C_26  and  N_27
REMARK   11  A    between atoms: N_27  and  C_28
REMARK   12  A    between atoms: C_28  and  C_29
REMARK   13  A    between atoms: C_29  and  C_30
REMARK                            x       y       z     vdW  Elec       q    Type
REMARK                         _______ _______ _______ _____ _____    ______ ____
ROOT
ATOM      1  C   UNL     1      -0.164   1.568  -0.393  0.00  0.00    +0.039 C 
ATOM      2  C   UNL     1      -0.053   0.069  -0.280  0.00  0.00    -0.073 C 
ATOM      3  C   UNL     1       0.164  -0.606  -1.363  0.00  0.00    -0.026 C 
ATOM      4  C   UNL     1       0.287  -2.101  -1.410  0.00  0.00    -0.002 C 
ATOM      5  C   UNL     1       0.547  -2.654  -0.007  0.00  0.00    -0.003 C 
ATOM      6  C   UNL     1      -0.484  -2.045   0.952  0.00  0.00    +0.012 C 
ATOM      7  C   UNL     1      -0.195  -0.546   1.081  0.00  0.00    +0.024 C 
ENDROOT
BRANCH   5   8
ATOM      8  C   UNL     1       0.407  -4.177  -0.020  0.00  0.00    -0.014 C 
ATOM      9  C   UNL     1       0.806  -4.738   1.346  0.00  0.00    +0.007 C 
ATOM     10  C   UNL     1      -1.046  -4.553  -0.321  0.00  0.00    +0.007 C 
ENDBRANCH   5   8
BRANCH   7  11
ATOM     11  C   UNL     1       1.101  -0.341   1.868  0.00  0.00    +0.105 C 
BRANCH  11  12
ATOM     12  C   UNL     1       1.311   1.131   2.115  0.00  0.00    +0.218 A 
ATOM     13  N   UNL     1       0.886   1.806   3.146  0.00  0.00    -0.112 NA
ATOM     14  N   UNL     1       1.244   3.037   3.032  0.00  0.00    -0.106 NA
ATOM     15  C   UNL     1       1.915   3.191   1.912  0.00  0.00    +0.266 A 
ATOM     16  O   UNL     1       1.975   1.984   1.314  0.00  0.00    -0.419 OA
BRANCH  15  17
ATOM     17  C   UNL     1       2.498   4.445   1.409  0.00  0.00    +0.125 A 
ATOM     18  C   UNL     1       3.191   4.615   0.246  0.00  0.00    +0.143 A 
ATOM     19  N   UNL     1       3.545   5.902   0.164  0.00  0.00    -0.243 NA
ATOM     20  C   UNL     1       3.109   6.544   1.216  0.00  0.00    +0.199 A 
ATOM     21  N   UNL     1       2.448   5.682   2.017  0.00  0.00    -0.329 N 
ATOM     22  C   UNL     1       1.802   6.000   3.292  0.00  0.00    +0.150 C 
ENDBRANCH  15  17
ENDBRANCH  11  12
ENDBRANCH   7  11
BRANCH   4  23
ATOM     23  C   UNL     1       1.450  -2.485  -2.327  0.00  0.00    -0.075 C 
BRANCH  23  24
ATOM     24  N   UNL     1       1.152  -2.060  -3.701  0.00  0.00    +0.380 N 
ATOM     25  H   UNL     1       0.309  -2.515  -4.019  0.00  0.00    -0.086 HD
ATOM     26  H   UNL     1       1.022  -1.059  -3.723  0.00  0.00    -0.086 HD
BRANCH  24  27
ATOM     27  C   UNL     1       2.268  -2.428  -4.581  0.00  0.00    -0.078 C 
BRANCH  27  28
ATOM     28  C   UNL     1       1.958  -1.985  -6.012  0.00  0.00    +0.018 C 
BRANCH  28  29
ATOM     29  C   UNL     1       3.103  -2.364  -6.915  0.00  0.00    -0.024 A 
ATOM     30  C   UNL     1       4.134  -1.579  -7.269  0.00  0.00    +0.087 A 
ATOM     31  N   UNL     1       4.978  -2.264  -8.100  0.00  0.00    -0.360 N 
ATOM     32  H   UNL     1       5.792  -1.906  -8.486  0.00  0.00    +0.165 HD
ATOM     33  C   UNL     1       4.499  -3.539  -8.306  0.00  0.00    +0.047 A 
ATOM     34  C   UNL     1       3.308  -3.659  -7.568  0.00  0.00    +0.003 A 
ATOM     35  C   UNL     1       2.597  -4.861  -7.583  0.00  0.00    +0.010 A 
ATOM     36  C   UNL     1       3.065  -5.917  -8.313  0.00  0.00    +0.001 A 
ATOM     37  C   UNL     1       4.242  -5.804  -9.040  0.00  0.00    +0.002 A 
ATOM     38  C   UNL     1       4.955  -4.625  -9.046  0.00  0.00    +0.026 A 
ENDBRANCH  28  29
ENDBRANCH  27  28
ENDBRANCH  24  27
ENDBRANCH  23  24
ENDBRANCH   4  23
TORSDOF 9
