REMARK  Name = ZINC12495875
REMARK  9 active torsions:
REMARK  status: ('A' for Active; 'I' for Inactive)
REMARK    1  A    between atoms: C_1  and  C_2
REMARK    2  A    between atoms: C_2  and  O_3
REMARK    3  A    between atoms: O_3  and  C_4
REMARK    4  A    between atoms: C_4  and  C_6
REMARK    5  A    between atoms: C_6  and  C_26
REMARK    6  A    between atoms: C_11  and  C_13
REMARK    7  A    between atoms: N_22  and  C_25
REMARK    8  A    between atoms: C_26  and  C_27
REMARK    9  A    between atoms: C_30  and  O_33
REMARK                            x       y       z     vdW  Elec       q    Type
REMARK                         _______ _______ _______ _____ _____    ______ ____
ROOT
ATOM      1  C   UNL     1       0.195   3.272   1.648  0.00  0.00    +0.048 C 
ATOM      2  C   UNL     1       1.038   3.532   0.454  0.00  0.00    +0.086 C 
ATOM      3  C   UNL     1       1.386   2.059  -0.000  0.00  0.00    +0.077 C 
ATOM      4  C   UNL     1      -0.018   1.503   0.010  0.00  0.00    -0.024 C 
ATOM      5  C   UNL     1       2.183   2.408  -1.198  0.00  0.00    +0.224 C 
ATOM      6  O   UNL     1       2.228   1.809  -2.251  0.00  0.00    -0.275 OA
ATOM      7  N   UNL     1       2.858   3.552  -0.862  0.00  0.00    -0.245 N 
ATOM      8  C   UNL     1       2.341   4.160   0.254  0.00  0.00    +0.225 C 
ATOM      9  O   UNL     1       2.854   5.029   0.926  0.00  0.00    -0.275 OA
ATOM     10  C   UNL     1       4.005   4.068  -1.613  0.00  0.00    +0.141 C 
ATOM     11  N   UNL     1      -0.551   2.028   1.304  0.00  0.00    +0.396 N 
ATOM     12  H   UNL     1      -1.551   2.239   1.206  0.00  0.00    -0.083 HD
ATOM     13  H   UNL     1      -0.420   1.328   2.043  0.00  0.00    -0.083 HD
ENDROOT
BRANCH   4  14
ATOM     14  C   UNL     1       0.002  -0.004   0.002  0.00  0.00    -0.025 A 
ATOM     15  C   UNL     1      -0.179  -0.704   1.180  0.00  0.00    +0.005 A 
ATOM     16  C   UNL     1      -0.167  -2.087   1.171  0.00  0.00    +0.000 A 
ATOM     17  C   UNL     1       0.039  -2.770  -0.013  0.00  0.00    +0.003 A 
ATOM     18  C   UNL     1       0.227  -2.072  -1.190  0.00  0.00    +0.038 A 
ATOM     19  C   UNL     1       0.208  -0.687  -1.184  0.00  0.00    +0.125 A 
ATOM     20  F   UNL     1       0.392  -0.004  -2.335  0.00  0.00    -0.205 F 
ENDBRANCH   4  14
BRANCH   1  21
ATOM     21  C   UNL     1       1.059   3.052   2.863  0.00  0.00    +0.297 C 
ATOM     22  O   UNL     1       2.171   3.522   2.908  0.00  0.00    -0.252 OA
BRANCH  21  23
ATOM     23  O   UNL     1       0.593   2.333   3.897  0.00  0.00    -0.466 OA
BRANCH  23  25
ATOM     24  C   UNL     1       0.781   1.321   6.104  0.00  0.00    +0.048 C 
ATOM     25  C   UNL     1       1.480   2.161   5.034  0.00  0.00    +0.228 C 
ENDBRANCH  23  25
ENDBRANCH  21  23
ENDBRANCH   1  21
BRANCH   1  26
ATOM     26  C   UNL     1      -0.769   4.436   1.885  0.00  0.00    +0.034 C 
BRANCH  26  27
ATOM     27  C   UNL     1      -1.613   4.151   3.100  0.00  0.00    -0.048 A 
ATOM     28  C   UNL     1      -2.819   3.488   2.963  0.00  0.00    +0.007 A 
ATOM     29  C   UNL     1      -3.592   3.220   4.076  0.00  0.00    +0.045 A 
ATOM     30  C   UNL     1      -3.162   3.627   5.331  0.00  0.00    +0.117 A 
ATOM     31  C   UNL     1      -1.954   4.296   5.466  0.00  0.00    +0.045 A 
ATOM     32  C   UNL     1      -1.182   4.556   4.350  0.00  0.00    +0.007 A 
BRANCH  30  33
ATOM     33  O   UNL     1      -3.924   3.370   6.428  0.00  0.00    -0.507 OA
ATOM     34  H   UNL     1      -4.559   4.068   6.637  0.00  0.00    +0.292 HD
ENDBRANCH  30  33
ENDBRANCH  26  27
ENDBRANCH   1  26
TORSDOF 7
