REMARK  Name = ZINC24983251
REMARK  13 active torsions:
REMARK  status: ('A' for Active; 'I' for Inactive)
REMARK    1  A    between atoms: C_1  and  C_2
REMARK    2  A    between atoms: C_4  and  O_5
REMARK    3  A    between atoms: N_13  and  C_14
REMARK    4  A    between atoms: C_14  and  C_15
REMARK    5  A    between atoms: N_17  and  C_18
REMARK    6  A    between atoms: C_19  and  C_27
REMARK    7  A    between atoms: C_20  and  C_26
REMARK    8  A    between atoms: C_21  and  C_23
REMARK    9  A    between atoms: C_27  and  O_29
REMARK   10  A    between atoms: O_29  and  C_30
REMARK   11  A    between atoms: C_30  and  C_31
REMARK   12  A    between atoms: C_31  and  O_32
REMARK   13  A    between atoms: O_32  and  C_33
REMARK                            x       y       z     vdW  Elec       q    Type
REMARK                         _______ _______ _______ _____ _____    ______ ____
ROOT
ATOM      1  C   UNL     1      -1.322  -3.183  -3.533  0.00  0.00    +0.237 C 
ATOM      2  O   UNL     1      -1.367  -4.379  -3.334  0.00  0.00    -0.274 OA
ATOM      3  N   UNL     1      -1.279  -2.329  -2.491  0.00  0.00    -0.278 N 
ATOM      4  H   UNL     1      -1.238  -1.244  -2.671  0.00  0.00    +0.155 HD
ENDROOT
BRANCH   3   5
ATOM      5  C   UNL     1      -1.287  -2.815  -1.198  0.00  0.00    +0.087 A 
ATOM      6  C   UNL     1      -1.248  -2.099   0.003  0.00  0.00    +0.091 A 
ATOM      7  C   UNL     1      -1.259  -2.822   1.186  0.00  0.00    -0.015 A 
ATOM      8  C   UNL     1      -1.319  -4.186   1.097  0.00  0.00    +0.079 A 
ATOM      9  S   UNL     1      -1.346  -4.463  -0.664  0.00  0.00    -0.068 S 
ATOM     10  C   UNL     1      -1.213  -2.129   2.524  0.00  0.00    +0.046 C 
BRANCH   8  11
ATOM     11  C   UNL     1      -1.347  -5.173   2.178  0.00  0.00    +0.248 C 
ATOM     12  O   UNL     1      -1.322  -4.805   3.338  0.00  0.00    -0.270 OA
ATOM     13  N   UNL     1      -1.400  -6.488   1.889  0.00  0.00    -0.325 N 
ATOM     14  H   UNL     1      -1.421  -7.229   2.701  0.00  0.00    +0.145 HD
ATOM     15  H   UNL     1      -1.422  -6.820   0.841  0.00  0.00    +0.145 HD
ENDBRANCH   8  11
BRANCH   6  16
ATOM     16  C   UNL     1      -1.191  -0.632   0.010  0.00  0.00    +0.342 C 
ATOM     17  O   UNL     1      -2.220   0.016   0.023  0.00  0.00    -0.245 OA
BRANCH  16  18
ATOM     18  O   UNL     1       0.002  -0.004   0.002  0.00  0.00    -0.459 OA
BRANCH  18  19
ATOM     19  C   UNL     1      -0.018   1.448   0.010  0.00  0.00    +0.260 C 
BRANCH  19  20
ATOM     20  C   UNL     1       1.418   1.977  -0.001  0.00  0.00    +0.200 C 
BRANCH  20  21
ATOM     21  O   UNL     1       2.050   1.615  -1.230  0.00  0.00    -0.380 OA
ATOM     22  C   UNL     1       3.402   2.063  -1.343  0.00  0.00    +0.194 C 
ENDBRANCH  20  21
ENDBRANCH  19  20
ENDBRANCH  18  19
ENDBRANCH  16  18
ENDBRANCH   6  16
ENDBRANCH   3   5
BRANCH   1  23
ATOM     23  C   UNL     1      -1.314  -2.653  -4.943  0.00  0.00    +0.209 C 
BRANCH  23  35
ATOM     24  C   UNL     1      -1.328  -1.378 -11.967  0.00  0.00    +0.045 C 
ATOM     25  C   UNL     1      -1.378  -2.781 -11.420  0.00  0.00    -0.033 A 
ATOM     26  C   UNL     1      -1.427  -3.853 -12.252  0.00  0.00    +0.091 A 
ATOM     27  C   UNL     1      -1.473  -5.156 -11.716  0.00  0.00    +0.285 A 
ATOM     28  O   UNL     1      -1.470  -5.374 -10.391  0.00  0.00    -0.425 OA
ATOM     29  C   UNL     1      -1.422  -4.352  -9.509  0.00  0.00    +0.141 A 
ATOM     30  C   UNL     1      -1.375  -3.025  -9.976  0.00  0.00    +0.021 A 
ATOM     31  C   UNL     1      -1.324  -1.962  -9.066  0.00  0.00    +0.014 A 
ATOM     32  C   UNL     1      -1.328  -2.216  -7.726  0.00  0.00    +0.026 A 
ATOM     33  C   UNL     1      -1.369  -3.529  -7.256  0.00  0.00    +0.039 A 
ATOM     34  C   UNL     1      -1.419  -4.594  -8.145  0.00  0.00    +0.072 A 
ATOM     35  N   UNL     1      -1.367  -3.773  -5.886  0.00  0.00    -0.376 N 
ATOM     36  H   UNL     1      -1.404  -4.806  -5.511  0.00  0.00    +0.160 HD
BRANCH  27  37
ATOM     37  O   UNL     1      -1.517  -6.109 -12.473  0.00  0.00    -0.480 OA
ATOM     38  H   UNL     1      -1.554  -7.131 -12.070  0.00  0.00    +0.295 HD
ENDBRANCH  27  37
ENDBRANCH  23  35
ENDBRANCH   1  23
TORSDOF 10
