REMARK  Name = ZINC09723400
REMARK  9 active torsions:
REMARK  status: ('A' for Active; 'I' for Inactive)
REMARK    1  A    between atoms: C_1  and  C_2
REMARK    2  A    between atoms: C_2  and  C_3
REMARK    3  A    between atoms: C_3  and  C_4
REMARK    4  A    between atoms: C_4  and  N_5
REMARK    5  A    between atoms: C_6  and  N_34
REMARK    6  A    between atoms: C_7  and  N_14
REMARK    7  A    between atoms: N_14  and  C_15
REMARK    8  A    between atoms: C_20  and  C_22
REMARK    9  A    between atoms: C_22  and  N_71
REMARK                            x       y       z     vdW  Elec       q    Type
REMARK                         _______ _______ _______ _____ _____    ______ ____
ROOT
ATOM      1  N   UNL     1      -1.096  -0.699   0.052  0.00  0.00    -0.263 N 
ATOM      2  C   UNL     1      -1.237  -2.023  -0.171  0.00  0.00    +0.204 C 
ATOM      3  O   UNL     1      -0.256  -2.723  -0.306  0.00  0.00    -0.277 OA
ENDROOT
BRANCH   1   6
ATOM      4  N   UNL     1       2.147   0.518  -1.173  0.00  0.00    -0.280 N 
ATOM      5  C   UNL     1       0.901  -0.063  -1.166  0.00  0.00    +0.127 A 
ATOM      6  C   UNL     1       0.186  -0.110   0.013  0.00  0.00    +0.140 A 
ATOM      7  C   UNL     1       0.756   0.440   1.176  0.00  0.00    +0.277 A 
ATOM      8  O   UNL     1       0.144   0.416   2.231  0.00  0.00    -0.266 OA
ATOM      9  N   UNL     1       1.981   0.998   1.115  0.00  0.00    -0.273 N 
ATOM     10  H   UNL     1       2.388   1.389   1.941  0.00  0.00    +0.173 HD
ATOM     11  C   UNL     1       2.663   1.035  -0.043  0.00  0.00    +0.331 A 
ATOM     12  O   UNL     1       3.767   1.545  -0.070  0.00  0.00    -0.246 OA
BRANCH   5  13
ATOM     13  N   UNL     1       0.373  -0.591  -2.320  0.00  0.00    -0.343 N 
ATOM     14  H   UNL     1      -0.538  -0.924  -2.329  0.00  0.00    +0.144 HD
ATOM     15  H   UNL     1       0.912  -0.630  -3.126  0.00  0.00    +0.144 HD
ENDBRANCH   5  13
BRANCH   4  16
ATOM     16  C   UNL     1       2.918   0.575  -2.418  0.00  0.00    +0.128 C 
BRANCH  16  17
ATOM     17  C   UNL     1       2.589   1.870  -3.162  0.00  0.00    +0.021 C 
BRANCH  17  19
ATOM     18  C   UNL     1       3.065   3.225  -5.206  0.00  0.00    +0.004 C 
ATOM     19  C   UNL     1       3.393   1.930  -4.462  0.00  0.00    -0.002 C 
ENDBRANCH  17  19
ENDBRANCH  16  17
ENDBRANCH   4  16
ENDBRANCH   1   6
BRANCH   1  20
ATOM     20  C   UNL     1      -2.273   0.126   0.336  0.00  0.00    +0.082 C 
ATOM     21  C   UNL     1      -2.975  -0.378   1.614  0.00  0.00    +0.023 C 
ATOM     22  C   UNL     1      -4.485  -0.199   1.312  0.00  0.00    +0.002 C 
ATOM     23  C   UNL     1      -4.582  -0.580  -0.186  0.00  0.00    +0.002 C 
ATOM     24  C   UNL     1      -3.294  -0.002  -0.808  0.00  0.00    +0.023 C 
ENDBRANCH   1  20
BRANCH   2  25
ATOM     25  C   UNL     1      -2.614  -2.630  -0.253  0.00  0.00    +0.019 C 
BRANCH  25  35
ATOM     26  C   UNL     1      -1.885  -4.752   0.655  0.00  0.00    -0.078 C 
ATOM     27  C   UNL     1      -1.905  -6.267   0.433  0.00  0.00    -0.015 C 
ATOM     28  C   UNL     1      -1.139  -6.594  -0.850  0.00  0.00    -0.011 C 
ATOM     29  C   UNL     1      -1.194  -8.098  -1.122  0.00  0.00    +0.004 C 
ATOM     30  C   UNL     1      -0.421  -8.408  -2.406  0.00  0.00    +0.000 C 
ATOM     31  C   UNL     1      -1.045  -7.651  -3.579  0.00  0.00    +0.000 C 
ATOM     32  C   UNL     1      -1.001  -6.146  -3.302  0.00  0.00    +0.002 C 
ATOM     33  C   UNL     1      -1.782  -5.846  -2.022  0.00  0.00    -0.025 C 
ATOM     34  C   UNL     1      -1.756  -4.344  -1.733  0.00  0.00    -0.074 C 
ATOM     35  N   UNL     1      -2.528  -4.084  -0.497  0.00  0.00    +0.386 N 
ATOM     36  H   UNL     1      -3.476  -4.460  -0.613  0.00  0.00    -0.081 HD
ENDBRANCH  25  35
ENDBRANCH   2  25
TORSDOF 8
