REMARK  Name = ZINC39691353
REMARK  8 active torsions:
REMARK  status: ('A' for Active; 'I' for Inactive)
REMARK    1  A    between atoms: C_1  and  N_2
REMARK    2  A    between atoms: C_6  and  C_7
REMARK    3  A    between atoms: C_11  and  C_20
REMARK    4  A    between atoms: N_22  and  C_23
REMARK    5  A    between atoms: C_23  and  C_24
REMARK    6  A    between atoms: C_24  and  N_25
REMARK    7  A    between atoms: C_26  and  C_28
REMARK    8  A    between atoms: C_28  and  C_29
REMARK                            x       y       z     vdW  Elec       q    Type
REMARK                         _______ _______ _______ _____ _____    ______ ____
ROOT
ATOM      1  C   UNL     1      -3.082   2.536   2.027  0.00  0.00    +0.218 C 
ATOM      2  O   UNL     1      -3.288   1.421   1.597  0.00  0.00    -0.275 OA
ATOM      3  N   UNL     1      -4.083   3.438   2.070  0.00  0.00    -0.314 N 
ATOM      4  H   UNL     1      -3.918   4.330   2.414  0.00  0.00    +0.149 HD
ENDROOT
BRANCH   1   9
ATOM      5  C   UNL     1      -0.177  -0.368   2.470  0.00  0.00    +0.263 C 
ATOM      6  O   UNL     1      -0.113  -1.191   3.365  0.00  0.00    -0.268 OA
ATOM      7  N   UNL     1      -0.385   0.931   2.762  0.00  0.00    -0.295 N 
ATOM      8  C   UNL     1      -0.633   2.046   1.818  0.00  0.00    +0.121 C 
ATOM      9  C   UNL     1      -1.706   2.914   2.512  0.00  0.00    +0.100 C 
ATOM     10  C   UNL     1      -1.558   2.597   4.010  0.00  0.00    -0.004 C 
ATOM     11  C   UNL     1      -0.424   1.566   4.101  0.00  0.00    +0.115 C 
ATOM     12  C   UNL     1      -2.852   1.998   4.553  0.00  0.00    -0.010 C 
ATOM     13  C   UNL     1      -2.699   1.745   6.056  0.00  0.00    -0.082 C 
ATOM     14  N   UNL     1      -2.397   3.008   6.739  0.00  0.00    +0.379 N 
ATOM     15  C   UNL     1      -1.105   3.530   6.277  0.00  0.00    -0.082 C 
ATOM     16  C   UNL     1      -1.190   3.859   4.784  0.00  0.00    -0.010 C 
ATOM     17  H   UNL     1      -3.121   3.680   6.537  0.00  0.00    -0.086 HD
ATOM     18  H   UNL     1      -2.357   2.850   7.735  0.00  0.00    -0.086 HD
BRANCH   5  24
ATOM     19  C   UNL     1      -0.035  -3.291   1.453  0.00  0.00    +0.149 C 
ATOM     20  N   UNL     1       0.036  -2.089   0.618  0.00  0.00    -0.346 N 
ATOM     21  C   UNL     1       0.169  -2.070  -0.730  0.00  0.00    +0.086 A 
ATOM     22  C   UNL     1       0.197  -0.782  -1.149  0.00  0.00    +0.020 A 
ATOM     23  C   UNL     1       0.078   0.038  -0.023  0.00  0.00    +0.032 A 
ATOM     24  C   UNL     1      -0.028  -0.791   1.073  0.00  0.00    +0.104 A 
ENDBRANCH   5  24
ENDBRANCH   1   9
BRANCH   3  25
ATOM     25  C   UNL     1      -5.420   3.070   1.599  0.00  0.00    +0.123 C 
BRANCH  25  26
ATOM     26  C   UNL     1      -6.363   4.265   1.756  0.00  0.00    +0.123 C 
BRANCH  26  27
ATOM     27  N   UNL     1      -7.700   3.898   1.284  0.00  0.00    -0.314 N 
ATOM     28  C   UNL     1      -8.701   4.800   1.328  0.00  0.00    +0.217 C 
ATOM     29  O   UNL     1      -8.495   5.915   1.758  0.00  0.00    -0.275 OA
ATOM     30  H   UNL     1      -7.865   3.006   0.941  0.00  0.00    +0.149 HD
BRANCH  28  31
ATOM     31  C   UNL     1     -10.077   4.422   0.842  0.00  0.00    +0.131 C 
BRANCH  31  32
ATOM     32  C   UNL     1     -11.005   5.599   0.998  0.00  0.00    -0.031 A 
ATOM     33  C   UNL     1     -11.780   5.717   2.111  0.00  0.00    +0.005 A 
ATOM     34  C   UNL     1     -12.644   6.798   2.272  0.00  0.00    +0.001 A 
ATOM     35  C   UNL     1     -12.739   7.767   1.321  0.00  0.00    +0.008 A 
ATOM     36  C   UNL     1     -11.954   7.680   0.158  0.00  0.00    -0.018 A 
ATOM     37  C   UNL     1     -11.071   6.583  -0.003  0.00  0.00    -0.014 A 
ATOM     38  C   UNL     1     -10.282   6.499  -1.163  0.00  0.00    +0.009 A 
ATOM     39  C   UNL     1     -10.372   7.471  -2.111  0.00  0.00    +0.001 A 
ATOM     40  C   UNL     1     -11.236   8.553  -1.950  0.00  0.00    +0.001 A 
ATOM     41  C   UNL     1     -12.025   8.661  -0.846  0.00  0.00    +0.008 A 
ENDBRANCH  31  32
ENDBRANCH  28  31
ENDBRANCH  26  27
ENDBRANCH  25  26
ENDBRANCH   3  25
TORSDOF 7
