REMARK  Name = ZINC35794451
REMARK  6 active torsions:
REMARK  status: ('A' for Active; 'I' for Inactive)
REMARK    1  A    between atoms: C_1  and  C_2
REMARK    2  A    between atoms: C_2  and  C_4
REMARK    3  A    between atoms: C_2  and  N_7
REMARK    4  A    between atoms: N_7  and  S_8
REMARK    5  A    between atoms: S_8  and  C_11
REMARK    6  A    between atoms: C_15  and  C_18
REMARK                            x       y       z     vdW  Elec       q    Type
REMARK                         _______ _______ _______ _____ _____    ______ ____
ROOT
ATOM      1  S   UNL     1      -0.188  -0.875  -2.551  0.00  0.00    +0.062 S 
ATOM      2  O   UNL     1       0.751  -1.265  -3.545  0.00  0.00    -0.153 OA
ATOM      3  O   UNL     1      -1.236  -1.730  -2.117  0.00  0.00    -0.153 OA
ENDROOT
BRANCH   1   4
ATOM      4  C   UNL     1      -0.951   0.603  -3.133  0.00  0.00    +0.142 A 
ATOM      5  C   UNL     1      -0.599   1.122  -4.365  0.00  0.00    +0.051 A 
ATOM      6  C   UNL     1      -1.193   2.284  -4.831  0.00  0.00    +0.044 A 
ATOM      7  C   UNL     1      -2.142   2.933  -4.067  0.00  0.00    +0.038 A 
ATOM      8  C   UNL     1      -2.503   2.416  -2.820  0.00  0.00    +0.102 A 
ATOM      9  C   UNL     1      -1.903   1.238  -2.358  0.00  0.00    +0.164 A 
ATOM     10  F   UNL     1      -2.251   0.727  -1.157  0.00  0.00    -0.203 F 
ATOM     11 CL   UNL     1      -0.743   2.925  -6.380  0.00  0.00    -0.083 Cl
BRANCH   8  12
ATOM     12  C   UNL     1      -3.515   3.103  -1.999  0.00  0.00    +0.389 C 
ATOM     13  O   UNL     1      -4.041   4.129  -2.408  0.00  0.00    -0.240 OA
ATOM     14  O   UNL     1      -3.830   2.648  -0.908  0.00  0.00    -0.240 OA
ENDBRANCH   8  12
ENDBRANCH   1   4
BRANCH   1  15
ATOM     15  N   UNL     1       0.688  -0.476  -1.203  0.00  0.00    -0.178 NA
ATOM     16  H   UNL     1       1.655  -0.556  -1.212  0.00  0.00    +0.149 HD
BRANCH  15  18
ATOM     17  C   UNL     1      -0.019   1.526   0.010  0.00  0.00    +0.035 C 
ATOM     18  C   UNL     1       0.002  -0.004   0.002  0.00  0.00    +0.159 C 
BRANCH  18  19
ATOM     19  C   UNL     1       0.731  -0.503   1.223  0.00  0.00    +0.229 C 
ATOM     20  O   UNL     1       1.725  -1.187   1.099  0.00  0.00    -0.274 OA
ATOM     21  N   UNL     1       0.278  -0.191   2.453  0.00  0.00    -0.328 N 
ATOM     22  H   UNL     1      -0.517   0.356   2.553  0.00  0.00    +0.145 HD
ATOM     23  H   UNL     1       0.747  -0.512   3.239  0.00  0.00    +0.145 HD
ENDBRANCH  18  19
ENDBRANCH  15  18
ENDBRANCH   1  15
TORSDOF 5
