REMARK  Name = ZINC30940890
REMARK  3 active torsions:
REMARK  status: ('A' for Active; 'I' for Inactive)
REMARK    1  A    between atoms: C_12  and  C_14
REMARK    2  A    between atoms: N_19  and  C_21
REMARK    3  A    between atoms: C_21  and  C_22
REMARK                            x       y       z     vdW  Elec       q    Type
REMARK                         _______ _______ _______ _____ _____    ______ ____
ROOT
ATOM      1  C   UNL     1      -3.318   2.869   1.864  0.00  0.00    +0.059 C 
ATOM      2  C   UNL     1      -4.108   2.659   0.569  0.00  0.00    +0.009 C 
ATOM      3  C   UNL     1      -5.388   1.880   0.882  0.00  0.00    -0.018 C 
ATOM      4  C   UNL     1      -6.205   2.649   1.923  0.00  0.00    -0.078 C 
ATOM      5  N   UNL     1      -5.406   2.823   3.143  0.00  0.00    +0.383 N 
ATOM      6  C   UNL     1      -4.194   3.609   2.876  0.00  0.00    -0.066 C 
ATOM      7  H   UNL     1      -5.090   1.826   3.483  0.00  0.00    -0.081 HD
ENDROOT
BRANCH   1  19
ATOM      8  C   UNL     1       2.298   5.382  -0.169  0.00  0.00    +0.002 A 
ATOM      9  C   UNL     1       1.145   6.056   0.190  0.00  0.00    +0.002 A 
ATOM     10  C   UNL     1      -0.009   5.352   0.484  0.00  0.00    +0.025 A 
ATOM     11  C   UNL     1      -0.006   3.970   0.418  0.00  0.00    +0.058 A 
ATOM     12  C   UNL     1       1.157   3.287   0.059  0.00  0.00    +0.055 A 
ATOM     13  C   UNL     1       2.308   4.001  -0.236  0.00  0.00    +0.025 A 
ATOM     14  N   UNL     1       1.147   1.889   0.001  0.00  0.00    -0.283 N 
ATOM     15  C   UNL     1      -0.014   1.209   0.009  0.00  0.00    +0.235 C 
ATOM     16  O   UNL     1       0.002  -0.004   0.002  0.00  0.00    -0.274 OA
ATOM     17  C   UNL     1      -1.335   1.935   0.019  0.00  0.00    +0.209 C 
ATOM     18  N   UNL     1      -1.162   3.228   0.704  0.00  0.00    -0.261 N 
ATOM     19  C   UNL     1      -2.085   3.686   1.574  0.00  0.00    +0.222 C 
ATOM     20  O   UNL     1      -1.923   4.755   2.123  0.00  0.00    -0.275 OA
ATOM     21  H   UNL     1       2.095   1.334  -0.051  0.00  0.00    +0.155 HD
ENDBRANCH   1  19
BRANCH   5  22
ATOM     22  C   UNL     1      -6.205   3.435   4.213  0.00  0.00    -0.043 C 
BRANCH  22  23
ATOM     23  C   UNL     1      -7.300   2.486   4.628  0.00  0.00    -0.064 A 
ATOM     24  C   UNL     1      -8.532   2.536   4.003  0.00  0.00    +0.003 A 
ATOM     25  C   UNL     1      -9.534   1.663   4.379  0.00  0.00    +0.015 A 
ATOM     26  C   UNL     1      -9.309   0.745   5.389  0.00  0.00    +0.018 A 
ATOM     27  C   UNL     1      -8.077   0.698   6.018  0.00  0.00    +0.015 A 
ATOM     28  C   UNL     1      -7.074   1.569   5.637  0.00  0.00    +0.003 A 
ATOM     29 BR   UNL     1     -10.682  -0.446   5.910  0.00  0.00    -0.050 Br
ENDBRANCH  22  23
ENDBRANCH   5  22
TORSDOF 3
