REMARK  Name = ZINC09355037
REMARK  7 active torsions:
REMARK  status: ('A' for Active; 'I' for Inactive)
REMARK    1  A    between atoms: C_1  and  O_2
REMARK    2  A    between atoms: O_2  and  C_3
REMARK    3  A    between atoms: C_3  and  C_5
REMARK    4  A    between atoms: C_5  and  N_50
REMARK    5  A    between atoms: C_6  and  C_25
REMARK    6  A    between atoms: C_15  and  C_17
REMARK    7  A    between atoms: C_20  and  O_23
REMARK                            x       y       z     vdW  Elec       q    Type
REMARK                         _______ _______ _______ _____ _____    ______ ____
ROOT
ATOM      1  C   UNL     1       0.776  -2.606  -0.240  0.00  0.00    -0.001 C 
ATOM      2  C   UNL     1       0.469  -1.150  -0.469  0.00  0.00    -0.035 A 
ATOM      3  C   UNL     1      -0.832  -0.760  -0.733  0.00  0.00    +0.019 A 
ATOM      4  C   UNL     1      -1.129   0.575  -0.939  0.00  0.00    +0.018 A 
ATOM      5  C   UNL     1      -0.127   1.528  -0.883  0.00  0.00    +0.017 A 
ATOM      6  C   UNL     1       1.174   1.146  -0.621  0.00  0.00    +0.024 A 
ATOM      7  C   UNL     1       1.473  -0.194  -0.415  0.00  0.00    +0.028 A 
ATOM      8  N   UNL     1       2.793  -0.583  -0.153  0.00  0.00    -0.353 N 
ATOM      9  C   UNL     1       3.030  -1.947   0.342  0.00  0.00    +0.049 C 
ATOM     10 BR   UNL     1      -2.909   1.098  -1.306  0.00  0.00    -0.050 Br
ATOM     11  H   UNL     1       3.531   0.031  -0.294  0.00  0.00    +0.145 HD
ATOM     12  N   UNL     1       2.209  -2.863  -0.482  0.00  0.00    +0.409 N 
ATOM     13  H   UNL     1       2.416  -2.697  -1.474  0.00  0.00    -0.076 HD
ENDROOT
BRANCH   9  14
ATOM     14  C   UNL     1       4.486  -2.301   0.185  0.00  0.00    -0.044 A 
ATOM     15  C   UNL     1       5.232  -2.663   1.291  0.00  0.00    +0.007 A 
ATOM     16  C   UNL     1       6.566  -2.994   1.149  0.00  0.00    +0.045 A 
ATOM     17  C   UNL     1       7.160  -2.950  -0.104  0.00  0.00    +0.117 A 
ATOM     18  C   UNL     1       6.411  -2.581  -1.212  0.00  0.00    +0.045 A 
ATOM     19  C   UNL     1       5.076  -2.258  -1.065  0.00  0.00    +0.007 A 
BRANCH  17  20
ATOM     20  O   UNL     1       8.474  -3.268  -0.246  0.00  0.00    -0.507 OA
ATOM     21  H   UNL     1       9.073  -2.515  -0.154  0.00  0.00    +0.292 HD
ENDBRANCH  17  20
ENDBRANCH   9  14
BRANCH   1  22
ATOM     22  C   UNL     1      -0.034  -3.443  -1.198  0.00  0.00    -0.057 A 
ATOM     23  C   UNL     1       0.380  -3.589  -2.508  0.00  0.00    +0.002 A 
ATOM     24  C   UNL     1      -0.361  -4.359  -3.385  0.00  0.00    +0.000 A 
ATOM     25  C   UNL     1      -1.520  -4.976  -2.954  0.00  0.00    +0.000 A 
ATOM     26  C   UNL     1      -1.937  -4.826  -1.644  0.00  0.00    +0.000 A 
ATOM     27  C   UNL     1      -1.194  -4.059  -0.766  0.00  0.00    +0.002 A 
ENDBRANCH   1  22
BRANCH  12  28
ATOM     28  C   UNL     1       2.533  -4.268  -0.153  0.00  0.00    +0.048 C 
BRANCH  28  29
ATOM     29  C   UNL     1       2.170  -4.571   1.278  0.00  0.00    +0.290 C 
ATOM     30  O   UNL     1       1.786  -3.685   2.005  0.00  0.00    -0.253 OA
BRANCH  29  32
ATOM     31  C   UNL     1       1.905  -6.044   3.133  0.00  0.00    +0.280 C 
ATOM     32  O   UNL     1       2.272  -5.825   1.745  0.00  0.00    -0.469 OA
ENDBRANCH  29  32
ENDBRANCH  28  29
ENDBRANCH  12  28
TORSDOF 6
