REMARK  Name = ZINC39455267
REMARK  8 active torsions:
REMARK  status: ('A' for Active; 'I' for Inactive)
REMARK    1  A    between atoms: C_5  and  C_7
REMARK    2  A    between atoms: C_9  and  C_21
REMARK    3  A    between atoms: N_12  and  C_14
REMARK    4  A    between atoms: C_21  and  N_22
REMARK    5  A    between atoms: N_22  and  C_23
REMARK    6  A    between atoms: C_23  and  C_24
REMARK    7  A    between atoms: C_24  and  S_25
REMARK    8  A    between atoms: S_25  and  C_26
REMARK                            x       y       z     vdW  Elec       q    Type
REMARK                         _______ _______ _______ _____ _____    ______ ____
ROOT
ATOM      1  C   UNL     1       1.226  -2.358   0.032  0.00  0.00    +0.107 C 
ATOM      2  C   UNL     1       1.270  -2.733  -1.475  0.00  0.00    +0.014 C 
ATOM      3  C   UNL     1       0.523  -4.088  -1.468  0.00  0.00    +0.127 C 
ATOM      4  N   UNL     1      -0.249  -4.103  -0.215  0.00  0.00    -0.266 N 
ATOM      5  N   UNL     1      -0.088  -2.912   0.445  0.00  0.00    -0.232 NA
ATOM      6  H   UNL     1      -0.836  -2.272   0.223  0.00  0.00    +0.145 HD
ENDROOT
BRANCH   1  11
ATOM      7  C   UNL     1       0.131   1.244   0.310  0.00  0.00    +0.000 A 
ATOM      8  C   UNL     1       1.333   1.880   0.557  0.00  0.00    +0.001 A 
ATOM      9  C   UNL     1       2.501   1.146   0.634  0.00  0.00    +0.020 A 
ATOM     10  C   UNL     1       2.467  -0.227   0.464  0.00  0.00    +0.046 A 
ATOM     11  C   UNL     1       1.264  -0.863   0.217  0.00  0.00    -0.010 A 
ATOM     12  C   UNL     1       0.097  -0.128   0.140  0.00  0.00    +0.006 A 
ATOM     13 CL   UNL     1       3.934  -1.150   0.560  0.00  0.00    -0.083 Cl
ENDBRANCH   1  11
BRANCH   4  14
ATOM     14  C   UNL     1      -1.030  -5.173   0.234  0.00  0.00    +0.045 A 
ATOM     15  C   UNL     1      -1.114  -6.337  -0.518  0.00  0.00    +0.027 A 
ATOM     16  C   UNL     1      -1.886  -7.392  -0.071  0.00  0.00    +0.040 A 
ATOM     17  C   UNL     1      -2.575  -7.289   1.126  0.00  0.00    +0.124 A 
ATOM     18  C   UNL     1      -2.492  -6.129   1.877  0.00  0.00    +0.040 A 
ATOM     19  C   UNL     1      -1.718  -5.074   1.437  0.00  0.00    +0.027 A 
ATOM     20  F   UNL     1      -3.329  -8.322   1.560  0.00  0.00    -0.205 F 
ENDBRANCH   4  14
BRANCH   2  21
ATOM     21  C   UNL     1       2.712  -2.900  -1.959  0.00  0.00    -0.076 C 
BRANCH  21  22
ATOM     22  N   UNL     1       2.714  -3.186  -3.400  0.00  0.00    +0.380 N 
ATOM     23  H   UNL     1       2.200  -4.036  -3.575  0.00  0.00    -0.086 HD
ATOM     24  H   UNL     1       2.280  -2.421  -3.895  0.00  0.00    -0.086 HD
BRANCH  22  25
ATOM     25  C   UNL     1       4.099  -3.346  -3.865  0.00  0.00    -0.071 C 
BRANCH  25  26
ATOM     26  C   UNL     1       4.101  -3.644  -5.365  0.00  0.00    +0.058 C 
BRANCH  26  27
ATOM     27  S   UNL     1       5.811  -3.842  -5.939  0.00  0.00    -0.086 S 
BRANCH  27  28
ATOM     28  C   UNL     1       5.646  -4.175  -7.662  0.00  0.00    +0.208 A 
ATOM     29  H   UNL     1       4.221  -4.648 -10.395  0.00  0.00    +0.190 HD
ATOM     30  N   UNL     1       6.654  -4.394  -8.512  0.00  0.00    -0.210 NA
ATOM     31  C   UNL     1       6.181  -4.609  -9.713  0.00  0.00    +0.217 A 
ATOM     32  N   UNL     1       4.841  -4.532  -9.657  0.00  0.00    -0.264 N 
ATOM     33  N   UNL     1       4.513  -4.255  -8.320  0.00  0.00    -0.146 NA
ENDBRANCH  27  28
ENDBRANCH  26  27
ENDBRANCH  25  26
ENDBRANCH  22  25
ENDBRANCH  21  22
ENDBRANCH   2  21
TORSDOF 8
