REMARK  Name = ZINC35644814
REMARK  12 active torsions:
REMARK  status: ('A' for Active; 'I' for Inactive)
REMARK    1  A    between atoms: C_1  and  C_2
REMARK    2  A    between atoms: C_2  and  O_3
REMARK    3  A    between atoms: O_3  and  C_4
REMARK    4  A    between atoms: C_4  and  C_6
REMARK    5  A    between atoms: C_7  and  C_23
REMARK    6  A    between atoms: N_8  and  C_22
REMARK    7  A    between atoms: C_12  and  C_14
REMARK    8  A    between atoms: C_17  and  O_20
REMARK    9  A    between atoms: O_20  and  C_21
REMARK   10  A    between atoms: C_23  and  N_24
REMARK   11  A    between atoms: C_31  and  C_33
REMARK   12  A    between atoms: C_36  and  C_39
REMARK                            x       y       z     vdW  Elec       q    Type
REMARK                         _______ _______ _______ _____ _____    ______ ____
ROOT
ATOM      1  C   UNL     1      -2.379  -2.802   0.528  0.00  0.00    +0.076 C 
ATOM      2  C   UNL     1      -2.962  -3.904   0.008  0.00  0.00    +0.010 C 
ATOM      3  N   UNL     1      -4.312  -3.962  -0.187  0.00  0.00    -0.264 N 
ATOM      4  C   UNL     1      -5.149  -2.961   0.111  0.00  0.00    +0.307 C 
ATOM      5  O   UNL     1      -6.338  -3.106  -0.098  0.00  0.00    -0.252 OA
ATOM      6  N   UNL     1      -4.717  -1.797   0.637  0.00  0.00    -0.288 N 
ATOM      7  C   UNL     1      -3.276  -1.635   0.892  0.00  0.00    +0.143 C 
ATOM      8  C   UNL     1      -4.876  -5.189  -0.754  0.00  0.00    +0.139 C 
ATOM      9  H   UNL     1      -5.341  -1.084   0.845  0.00  0.00    +0.151 HD
ENDROOT
BRANCH   7  10
ATOM     10  C   UNL     1      -3.088  -1.346   2.359  0.00  0.00    -0.022 A 
ATOM     11  C   UNL     1      -3.732  -2.123   3.304  0.00  0.00    +0.009 A 
ATOM     12  C   UNL     1      -3.562  -1.859   4.649  0.00  0.00    +0.046 A 
ATOM     13  C   UNL     1      -2.745  -0.814   5.052  0.00  0.00    +0.120 A 
ATOM     14  C   UNL     1      -2.100  -0.035   4.102  0.00  0.00    +0.046 A 
ATOM     15  C   UNL     1      -2.268  -0.306   2.758  0.00  0.00    +0.009 A 
BRANCH  13  16
ATOM     16  O   UNL     1      -2.576  -0.552   6.375  0.00  0.00    -0.495 OA
ATOM     17  C   UNL     1      -1.720   0.540   6.716  0.00  0.00    +0.277 C 
ENDBRANCH  13  16
ENDBRANCH   7  10
BRANCH   1  18
ATOM     18  C   UNL     1      -0.981  -2.740   0.731  0.00  0.00    +0.339 C 
ATOM     19  O   UNL     1      -0.295  -3.728   0.546  0.00  0.00    -0.245 OA
BRANCH  18  20
ATOM     20  O   UNL     1      -0.407  -1.586   1.130  0.00  0.00    -0.462 OA
BRANCH  20  22
ATOM     21  C   UNL     1       1.475  -0.209   1.764  0.00  0.00    +0.048 C 
ATOM     22  C   UNL     1       1.010  -1.596   1.315  0.00  0.00    +0.229 C 
ENDBRANCH  20  22
ENDBRANCH  18  20
ENDBRANCH   1  18
BRANCH   2  23
ATOM     23  C   UNL     1      -2.107  -5.088  -0.363  0.00  0.00    -0.026 C 
BRANCH  23  24
ATOM     24  N   UNL     1      -1.885  -5.923   0.825  0.00  0.00    +0.384 N 
ATOM     25  C   UNL     1      -0.838  -6.895   0.517  0.00  0.00    -0.077 C 
ATOM     26  C   UNL     1      -0.095  -7.247   1.786  0.00  0.00    +0.000 C 
ATOM     27  C   UNL     1      -0.723  -8.504   2.416  0.00  0.00    +0.106 C 
ATOM     28  N   UNL     1      -2.196  -8.472   2.309  0.00  0.00    -0.299 N 
ATOM     29  C   UNL     1      -2.963  -7.265   2.538  0.00  0.00    +0.089 C 
ATOM     30  C   UNL     1      -3.122  -6.484   1.213  0.00  0.00    -0.059 C 
ATOM     31  C   UNL     1      -2.849  -9.605   1.986  0.00  0.00    +0.247 C 
ATOM     32  O   UNL     1      -4.046  -9.579   1.778  0.00  0.00    -0.270 OA
ATOM     33  H   UNL     1      -1.556  -5.331   1.572  0.00  0.00    -0.081 HD
BRANCH  31  34
ATOM     34  C   UNL     1      -2.109 -10.881   1.885  0.00  0.00    +0.037 A 
ATOM     35  C   UNL     1      -1.070 -11.161   2.775  0.00  0.00    +0.013 A 
ATOM     36  C   UNL     1      -0.384 -12.354   2.676  0.00  0.00    +0.004 A 
ATOM     37  C   UNL     1      -0.723 -13.271   1.697  0.00  0.00    -0.050 A 
ATOM     38  C   UNL     1      -1.751 -13.000   0.812  0.00  0.00    +0.004 A 
ATOM     39  C   UNL     1      -2.449 -11.814   0.904  0.00  0.00    +0.013 A 
ATOM     40  C   UNL     1       0.032 -14.572   1.594  0.00  0.00    +0.044 C 
ENDBRANCH  31  34
ENDBRANCH  23  24
ENDBRANCH   2  23
TORSDOF 8
