REMARK  Name = ZINC36549080
REMARK  18 active torsions:
REMARK  status: ('A' for Active; 'I' for Inactive)
REMARK    1  A    between atoms: C_1  and  C_2
REMARK    2  A    between atoms: C_2  and  C_3
REMARK    3  A    between atoms: C_2  and  C_4
REMARK    4  A    between atoms: C_2  and  C_5
REMARK    5  A    between atoms: C_5  and  C_6
REMARK    6  A    between atoms: C_6  and  C_7
REMARK    7  A    between atoms: C_6  and  C_8
REMARK    8  A    between atoms: C_6  and  N_9
REMARK    9  A    between atoms: C_10  and  C_12
REMARK   10  A    between atoms: C_12  and  C_14
REMARK   11  A    between atoms: C_12  and  N_23
REMARK   12  A    between atoms: C_15  and  O_22
REMARK   13  A    between atoms: C_17  and  O_21
REMARK   14  A    between atoms: C_19  and  O_20
REMARK   15  A    between atoms: N_23  and  C_24
REMARK   16  A    between atoms: C_31  and  C_33
REMARK   17  A    between atoms: C_33  and  O_34
REMARK   18  A    between atoms: O_34  and  C_35
REMARK                            x       y       z     vdW  Elec       q    Type
REMARK                         _______ _______ _______ _____ _____    ______ ____
ROOT
ATOM      1  C   UNL     1       4.746   1.122  -4.927  0.00  0.00    +0.204 C 
ENDROOT
BRANCH   1   2
ATOM      2  C   UNL     1       4.414  -0.284  -5.356  0.00  0.00    +0.065 A 
ATOM      3  C   UNL     1       5.085  -1.358  -4.790  0.00  0.00    +0.129 A 
ATOM      4  C   UNL     1       4.780  -2.652  -5.184  0.00  0.00    +0.091 A 
ATOM      5  C   UNL     1       3.803  -2.872  -6.144  0.00  0.00    +0.124 A 
ATOM      6  C   UNL     1       3.132  -1.798  -6.709  0.00  0.00    +0.091 A 
ATOM      7  C   UNL     1       3.434  -0.504  -6.311  0.00  0.00    +0.129 A 
BRANCH   7   8
ATOM      8  O   UNL     1       2.773   0.548  -6.862  0.00  0.00    -0.506 OA
ATOM      9  H   UNL     1       3.191   0.902  -7.658  0.00  0.00    +0.292 HD
ENDBRANCH   7   8
BRANCH   5  10
ATOM     10  O   UNL     1       3.505  -4.140  -6.531  0.00  0.00    -0.507 OA
ATOM     11  H   UNL     1       2.806  -4.556  -6.008  0.00  0.00    +0.292 HD
ENDBRANCH   5  10
BRANCH   3  12
ATOM     12  O   UNL     1       6.042  -1.142  -3.850  0.00  0.00    -0.506 OA
ATOM     13  H   UNL     1       5.721  -1.205  -2.940  0.00  0.00    +0.292 HD
ENDBRANCH   3  12
ENDBRANCH   1   2
BRANCH   1  15
ATOM     14  N   UNL     1       3.034   1.148  -3.142  0.00  0.00    -0.308 N 
ATOM     15  C   UNL     1       4.323   1.324  -3.495  0.00  0.00    +0.239 C 
ATOM     16  O   UNL     1       5.142   1.645  -2.660  0.00  0.00    -0.273 OA
ATOM     17  H   UNL     1       2.379   0.892  -3.810  0.00  0.00    +0.149 HD
BRANCH  14  18
ATOM     18  C   UNL     1       2.623   1.345  -1.750  0.00  0.00    +0.030 C 
ATOM     19  C   UNL     1       3.014   2.752  -1.296  0.00  0.00    +0.031 C 
ATOM     20  C   UNL     1       3.318   0.311  -0.862  0.00  0.00    +0.031 C 
BRANCH  18  21
ATOM     21  C   UNL     1       1.106   1.176  -1.638  0.00  0.00    +0.031 C 
BRANCH  21  23
ATOM     22  C   UNL     1       0.407   0.968  -4.027  0.00  0.00    +0.010 C 
ATOM     23  C   UNL     1       0.426   1.891  -2.807  0.00  0.00    -0.036 C 
ATOM     24  C   UNL     1       1.199   3.167  -3.144  0.00  0.00    +0.010 C 
ATOM     25  C   UNL     1      -1.009   2.252  -2.418  0.00  0.00    +0.010 C 
ENDBRANCH  21  23
ENDBRANCH  18  21
ENDBRANCH  14  18
ENDBRANCH   1  15
BRANCH   1  26
ATOM     26  N   UNL     1       6.190   1.341  -5.045  0.00  0.00    -0.252 N 
ATOM     27  C   UNL     1       6.813   1.111  -6.218  0.00  0.00    +0.247 C 
ATOM     28  O   UNL     1       8.021   1.193  -6.290  0.00  0.00    -0.273 OA
BRANCH  26  29
ATOM     29  C   UNL     1       6.923   1.789  -3.940  0.00  0.00    +0.056 A 
ATOM     30  C   UNL     1       7.668   0.890  -3.189  0.00  0.00    +0.025 A 
ATOM     31  C   UNL     1       8.390   1.334  -2.098  0.00  0.00    +0.002 A 
ATOM     32  C   UNL     1       8.371   2.674  -1.754  0.00  0.00    +0.002 A 
ATOM     33  C   UNL     1       7.630   3.572  -2.499  0.00  0.00    +0.022 A 
ATOM     34  C   UNL     1       6.910   3.135  -3.595  0.00  0.00    +0.062 A 
ATOM     35 CL   UNL     1       5.986   4.264  -4.535  0.00  0.00    -0.082 Cl
ENDBRANCH  26  29
BRANCH  27  36
ATOM     36  C   UNL     1       6.008   0.752  -7.441  0.00  0.00    +0.255 C 
BRANCH  36  37
ATOM     37  O   UNL     1       6.870   0.700  -8.580  0.00  0.00    -0.374 OA
ATOM     38  C   UNL     1       6.203   0.366  -9.798  0.00  0.00    +0.194 C 
ENDBRANCH  36  37
ENDBRANCH  27  36
ENDBRANCH   1  26
TORSDOF 12
