REMARK  Name = ZINC43758941
REMARK  11 active torsions:
REMARK  status: ('A' for Active; 'I' for Inactive)
REMARK    1  A    between atoms: C_1  and  C_2
REMARK    2  A    between atoms: C_2  and  C_4
REMARK    3  A    between atoms: C_2  and  C_10
REMARK    4  A    between atoms: C_4  and  C_5
REMARK    5  A    between atoms: C_5  and  C_6
REMARK    6  A    between atoms: C_6  and  C_7
REMARK    7  A    between atoms: C_7  and  C_8
REMARK    8  A    between atoms: C_7  and  C_9
REMARK    9  A    between atoms: C_16  and  C_36
REMARK   10  A    between atoms: C_28  and  C_35
REMARK   11  A    between atoms: C_31  and  O_34
REMARK                            x       y       z     vdW  Elec       q    Type
REMARK                         _______ _______ _______ _____ _____    ______ ____
ROOT
ATOM      1  C   UNL     1       0.847  -0.514   1.172  0.00  0.00    -0.002 C 
ATOM      2  C   UNL     1       1.062  -2.041   1.063  0.00  0.00    +0.004 C 
ATOM      3  C   UNL     1       2.507  -2.315   1.518  0.00  0.00    +0.005 C 
ATOM      4  C   UNL     1       3.104  -0.942   1.926  0.00  0.00    +0.006 C 
ATOM      5  C   UNL     1       2.274   0.060   1.100  0.00  0.00    -0.026 C 
ATOM      6  C   UNL     1       2.354   1.481   1.603  0.00  0.00    +0.007 C 
ATOM      7  C   UNL     1       2.046   1.571   3.098  0.00  0.00    +0.005 C 
ATOM      8  C   UNL     1       3.052   0.688   3.841  0.00  0.00    +0.006 C 
ATOM      9  C   UNL     1       2.831  -0.769   3.421  0.00  0.00    +0.062 C 
ATOM     10  C   UNL     1       3.757  -1.658   4.220  0.00  0.00    +0.137 C 
ATOM     11  O   UNL     1       4.471  -2.464   3.674  0.00  0.00    -0.297 OA
ATOM     12  C   UNL     1       3.762  -1.506   5.726  0.00  0.00    +0.078 C 
ATOM     13  C   UNL     1       3.954  -0.025   6.074  0.00  0.00    +0.005 C 
ATOM     14  C   UNL     1       2.863   0.824   5.350  0.00  0.00    -0.025 C 
ATOM     15  C   UNL     1       1.469   0.338   5.748  0.00  0.00    +0.010 C 
ATOM     16  C   UNL     1       1.285   0.507   7.258  0.00  0.00    +0.032 C 
ATOM     17  C   UNL     1       2.346  -0.309   7.998  0.00  0.00    +0.115 C 
ATOM     18  C   UNL     1       3.787   0.155   7.586  0.00  0.00    +0.035 C 
ATOM     19  C   UNL     1       3.013   2.293   5.750  0.00  0.00    +0.012 C 
ATOM     20  C   UNL     1       2.754   0.028  -0.352  0.00  0.00    +0.012 C 
ENDROOT
BRANCH   1  22
ATOM     21  C   UNL     1      -0.194   1.507   0.135  0.00  0.00    +0.008 C 
ATOM     22  C   UNL     1       0.002  -0.004   0.002  0.00  0.00    -0.010 C 
BRANCH  22  23
ATOM     23  C   UNL     1      -1.361  -0.699   0.017  0.00  0.00    +0.003 C 
BRANCH  23  24
ATOM     24  C   UNL     1      -2.158  -0.283  -1.222  0.00  0.00    +0.001 C 
BRANCH  24  25
ATOM     25  C   UNL     1      -3.521  -0.978  -1.207  0.00  0.00    +0.003 C 
BRANCH  25  26
ATOM     26  C   UNL     1      -4.319  -0.563  -2.445  0.00  0.00    -0.017 C 
ATOM     27  C   UNL     1      -5.629  -1.351  -2.496  0.00  0.00    +0.007 C 
ATOM     28  C   UNL     1      -4.627   0.934  -2.375  0.00  0.00    +0.007 C 
ENDBRANCH  25  26
ENDBRANCH  24  25
ENDBRANCH  23  24
ENDBRANCH  22  23
ENDBRANCH   1  22
BRANCH  17  29
ATOM     29  O   UNL     1       2.204  -1.690   7.661  0.00  0.00    -0.392 OA
ATOM     30  H   UNL     1       1.343  -2.065   7.892  0.00  0.00    +0.210 HD
ENDBRANCH  17  29
TORSDOF 6
