REMARK  Name = ZINC09467850
REMARK  11 active torsions:
REMARK  status: ('A' for Active; 'I' for Inactive)
REMARK    1  A    between atoms: C_1  and  C_2
REMARK    2  A    between atoms: C_5  and  N_20
REMARK    3  A    between atoms: C_7  and  S_8
REMARK    4  A    between atoms: S_8  and  N_11
REMARK    5  A    between atoms: N_11  and  C_12
REMARK    6  A    between atoms: C_15  and  O_18
REMARK    7  A    between atoms: O_18  and  C_19
REMARK    8  A    between atoms: C_21  and  C_23
REMARK    9  A    between atoms: C_25  and  C_32
REMARK   10  A    between atoms: N_26  and  C_29
REMARK   11  A    between atoms: C_27  and  C_28
REMARK                            x       y       z     vdW  Elec       q    Type
REMARK                         _______ _______ _______ _____ _____    ______ ____
ROOT
ATOM      1  C   UNL     1       0.589   0.811   0.346  0.00  0.00    +0.046 C 
ATOM      2  C   UNL     1       0.183  -0.639   0.419  0.00  0.00    -0.024 A 
ATOM      3  C   UNL     1      -0.007  -1.242   1.649  0.00  0.00    +0.007 A 
ATOM      4  C   UNL     1      -0.379  -2.569   1.719  0.00  0.00    +0.024 A 
ATOM      5  C   UNL     1      -0.562  -3.300   0.552  0.00  0.00    +0.036 A 
ATOM      6  C   UNL     1      -0.370  -2.692  -0.682  0.00  0.00    +0.052 A 
ATOM      7  C   UNL     1      -0.003  -1.362  -0.745  0.00  0.00    +0.113 A 
ENDROOT
BRANCH   5   8
ATOM      8  N   UNL     1      -0.939  -4.645   0.619  0.00  0.00    -0.281 N 
ATOM      9  C   UNL     1      -0.489  -5.518  -0.304  0.00  0.00    +0.250 C 
ATOM     10  O   UNL     1       0.321  -5.159  -1.137  0.00  0.00    -0.270 OA
ATOM     11  H   UNL     1      -1.524  -4.950   1.330  0.00  0.00    +0.155 HD
BRANCH   9  12
ATOM     12  C   UNL     1      -0.979  -6.907  -0.305  0.00  0.00    +0.058 A 
ATOM     13  C   UNL     1      -1.944  -7.502   0.626  0.00  0.00    +0.035 A 
ATOM     14  C   UNL     1      -2.093  -8.784   0.248  0.00  0.00    +0.017 A 
ATOM     15  N   UNL     1      -1.292  -9.021  -0.831  0.00  0.00    -0.344 N 
ATOM     16  C   UNL     1      -0.621  -7.904  -1.169  0.00  0.00    +0.028 A 
ATOM     17  C   UNL     1       0.357  -7.775  -2.308  0.00  0.00    +0.064 C 
ATOM     18  C   UNL     1      -2.993  -9.794   0.912  0.00  0.00    +0.063 C 
BRANCH  15  19
ATOM     19  C   UNL     1      -1.179 -10.308  -1.521  0.00  0.00    +0.087 C 
ATOM     20  C   UNL     1      -1.000 -11.559  -0.659  0.00  0.00    +0.027 C 
ATOM     21  C   UNL     1       0.176 -11.017  -1.476  0.00  0.00    +0.027 C 
ENDBRANCH  15  19
ENDBRANCH   9  12
ENDBRANCH   5   8
BRANCH   7  22
ATOM     22  S   UNL     1       0.234  -0.588  -2.310  0.00  0.00    +0.073 S 
ATOM     23  O   UNL     1       1.486   0.080  -2.247  0.00  0.00    -0.150 OA
ATOM     24  O   UNL     1      -0.059  -1.568  -3.296  0.00  0.00    -0.150 OA
BRANCH  22  25
ATOM     25  N   UNL     1      -0.923   0.589  -2.454  0.00  0.00    -0.216 N 
ATOM     26  H   UNL     1      -0.662   1.521  -2.509  0.00  0.00    +0.174 HD
BRANCH  25  27
ATOM     27  C   UNL     1      -2.277   0.237  -2.495  0.00  0.00    +0.048 A 
ATOM     28  C   UNL     1      -2.699  -0.808  -3.306  0.00  0.00    +0.028 A 
ATOM     29  C   UNL     1      -4.035  -1.158  -3.342  0.00  0.00    +0.047 A 
ATOM     30  C   UNL     1      -4.956  -0.458  -2.578  0.00  0.00    +0.120 A 
ATOM     31  C   UNL     1      -4.536   0.590  -1.772  0.00  0.00    +0.047 A 
ATOM     32  C   UNL     1      -3.200   0.938  -1.730  0.00  0.00    +0.028 A 
BRANCH  30  33
ATOM     33  O   UNL     1      -6.272  -0.799  -2.618  0.00  0.00    -0.495 OA
ATOM     34  C   UNL     1      -6.634  -1.887  -3.470  0.00  0.00    +0.277 C 
ENDBRANCH  30  33
ENDBRANCH  25  27
ENDBRANCH  22  25
ENDBRANCH   7  22
TORSDOF 7
