REMARK  Name = ZINC39673411
REMARK  11 active torsions:
REMARK  status: ('A' for Active; 'I' for Inactive)
REMARK    1  A    between atoms: C_1  and  C_2
REMARK    2  A    between atoms: C_2  and  C_3
REMARK    3  A    between atoms: C_2  and  C_4
REMARK    4  A    between atoms: C_4  and  C_6
REMARK    5  A    between atoms: C_4  and  O_33
REMARK    6  A    between atoms: C_10  and  C_19
REMARK    7  A    between atoms: N_21  and  C_22
REMARK    8  A    between atoms: C_22  and  C_23
REMARK    9  A    between atoms: C_26  and  O_29
REMARK   10  A    between atoms: O_29  and  C_30
REMARK   11  A    between atoms: O_33  and  C_34
REMARK                            x       y       z     vdW  Elec       q    Type
REMARK                         _______ _______ _______ _____ _____    ______ ____
ROOT
ATOM      1  C   UNL     1      -0.277  -2.189  -2.118  0.00  0.00    +0.257 C 
ATOM      2  O   UNL     1       0.563  -3.050  -1.965  0.00  0.00    -0.272 OA
ATOM      3  N   UNL     1      -1.579  -2.526  -2.205  0.00  0.00    -0.297 N 
ATOM      4  C   UNL     1      -2.728  -1.641  -2.509  0.00  0.00    +0.121 C 
ATOM      5  C   UNL     1      -3.641  -2.487  -3.425  0.00  0.00    +0.100 C 
ATOM      6  C   UNL     1      -3.281  -3.946  -3.097  0.00  0.00    -0.004 C 
ATOM      7  C   UNL     1      -2.184  -3.868  -2.026  0.00  0.00    +0.115 C 
ATOM      8  C   UNL     1      -2.747  -4.651  -4.340  0.00  0.00    -0.010 C 
ATOM      9  C   UNL     1      -2.450  -6.114  -4.004  0.00  0.00    -0.082 C 
ATOM     10  N   UNL     1      -3.677  -6.769  -3.536  0.00  0.00    +0.379 N 
ATOM     11  C   UNL     1      -4.134  -6.145  -2.289  0.00  0.00    -0.082 C 
ATOM     12  C   UNL     1      -4.502  -4.682  -2.552  0.00  0.00    -0.010 C 
ATOM     13  H   UNL     1      -4.395  -6.677  -4.239  0.00  0.00    -0.086 HD
ATOM     14  H   UNL     1      -3.493  -7.748  -3.373  0.00  0.00    -0.086 HD
ENDROOT
BRANCH   5  15
ATOM     15  C   UNL     1      -3.356  -2.187  -4.874  0.00  0.00    +0.218 C 
ATOM     16  O   UNL     1      -2.231  -1.896  -5.222  0.00  0.00    -0.275 OA
ATOM     17  N   UNL     1      -4.350  -2.241  -5.782  0.00  0.00    -0.311 N 
ATOM     18  H   UNL     1      -5.249  -2.473  -5.503  0.00  0.00    +0.149 HD
BRANCH  17  19
ATOM     19  C   UNL     1      -4.072  -1.948  -7.190  0.00  0.00    +0.139 C 
BRANCH  19  20
ATOM     20  C   UNL     1      -5.343  -2.078  -7.990  0.00  0.00    -0.030 A 
ATOM     21  C   UNL     1      -5.688  -3.296  -8.545  0.00  0.00    +0.009 A 
ATOM     22  C   UNL     1      -6.852  -3.417  -9.279  0.00  0.00    +0.046 A 
ATOM     23  C   UNL     1      -7.675  -2.315  -9.459  0.00  0.00    +0.127 A 
ATOM     24  C   UNL     1      -7.327  -1.094  -8.901  0.00  0.00    +0.046 A 
ATOM     25  C   UNL     1      -6.164  -0.979  -8.163  0.00  0.00    +0.009 A 
BRANCH  23  26
ATOM     26  O   UNL     1      -8.820  -2.432 -10.181  0.00  0.00    -0.434 OA
BRANCH  26  27
ATOM     27  C   UNL     1      -9.619  -1.255 -10.325  0.00  0.00    +0.541 C 
ATOM     28  F   UNL     1     -10.015  -0.803  -9.062  0.00  0.00    -0.166 F 
ATOM     29  F   UNL     1      -8.871  -0.260 -10.964  0.00  0.00    -0.166 F 
ENDBRANCH  26  27
ENDBRANCH  23  26
ENDBRANCH  19  20
ENDBRANCH  17  19
ENDBRANCH   5  15
BRANCH   1  30
ATOM     30  C   UNL     1       0.134  -0.742  -2.209  0.00  0.00    +0.261 C 
BRANCH  30  32
ATOM     31  C   UNL     1       0.342   1.403  -0.945  0.00  0.00    +0.011 C 
ATOM     32  C   UNL     1      -0.020  -0.080  -0.839  0.00  0.00    +0.033 C 
ATOM     33  C   UNL     1      -1.469  -0.218  -0.366  0.00  0.00    +0.011 C 
ENDBRANCH  30  32
BRANCH  30  34
ATOM     34  O   UNL     1       1.498  -0.660  -2.627  0.00  0.00    -0.479 OA
BRANCH  34  35
ATOM     35  C   UNL     1       1.807   0.297  -3.541  0.00  0.00    +0.122 A 
ATOM     36  C   UNL     1       3.082   0.352  -4.085  0.00  0.00    +0.045 A 
ATOM     37  C   UNL     1       3.394   1.327  -5.014  0.00  0.00    +0.004 A 
ATOM     38  C   UNL     1       2.437   2.246  -5.401  0.00  0.00    +0.000 A 
ATOM     39  C   UNL     1       1.165   2.194  -4.859  0.00  0.00    +0.004 A 
ATOM     40  C   UNL     1       0.847   1.218  -3.935  0.00  0.00    +0.045 A 
ENDBRANCH  34  35
ENDBRANCH  30  34
ENDBRANCH   1  30
TORSDOF 9
