REMARK  Name = ZINC39606939
REMARK  6 active torsions:
REMARK  status: ('A' for Active; 'I' for Inactive)
REMARK    1  A    between atoms: C_1  and  C_2
REMARK    2  A    between atoms: C_5  and  C_9
REMARK    3  A    between atoms: C_6  and  C_8
REMARK    4  A    between atoms: C_9  and  N_10
REMARK    5  A    between atoms: C_11  and  C_13
REMARK    6  A    between atoms: C_24  and  C_26
REMARK                            x       y       z     vdW  Elec       q    Type
REMARK                         _______ _______ _______ _____ _____    ______ ____
ROOT
ATOM      1  C   UNL     1      -3.584  -6.613   0.652  0.00  0.00    +0.100 C 
ATOM      2  C   UNL     1      -4.258  -6.014  -0.603  0.00  0.00    +0.121 C 
ATOM      3  N   UNL     1      -4.230  -7.109  -1.601  0.00  0.00    -0.296 N 
ATOM      4  C   UNL     1      -4.527  -8.331  -0.816  0.00  0.00    +0.115 C 
ATOM      5  C   UNL     1      -3.766  -8.133   0.510  0.00  0.00    -0.004 C 
ATOM      6  C   UNL     1      -2.407  -8.824   0.446  0.00  0.00    -0.010 C 
ATOM      7  C   UNL     1      -2.614 -10.339   0.362  0.00  0.00    -0.082 C 
ATOM      8  N   UNL     1      -3.364 -10.798   1.538  0.00  0.00    +0.379 N 
ATOM      9  C   UNL     1      -4.704 -10.200   1.542  0.00  0.00    -0.082 C 
ATOM     10  C   UNL     1      -4.586  -8.679   1.676  0.00  0.00    -0.010 C 
ATOM     11  C   UNL     1      -3.990  -7.015  -2.924  0.00  0.00    +0.247 C 
ATOM     12  O   UNL     1      -3.639  -5.955  -3.404  0.00  0.00    -0.270 OA
ATOM     13  H   UNL     1      -3.446 -11.803   1.511  0.00  0.00    -0.086 HD
ATOM     14  H   UNL     1      -2.872 -10.526   2.376  0.00  0.00    -0.086 HD
ENDROOT
BRANCH  11  15
ATOM     15  C   UNL     1      -4.153  -8.201  -3.791  0.00  0.00    +0.040 A 
ATOM     16  C   UNL     1      -4.947  -9.271  -3.373  0.00  0.00    +0.033 A 
ATOM     17  C   UNL     1      -5.095 -10.376  -4.187  0.00  0.00    +0.043 A 
ATOM     18  C   UNL     1      -4.460 -10.424  -5.416  0.00  0.00    +0.040 A 
ATOM     19  C   UNL     1      -3.671  -9.367  -5.836  0.00  0.00    +0.043 A 
ATOM     20  C   UNL     1      -3.520  -8.253  -5.033  0.00  0.00    +0.033 A 
ATOM     21 CL   UNL     1      -2.877  -9.437  -7.378  0.00  0.00    -0.083 Cl
ATOM     22 CL   UNL     1      -6.081 -11.707  -3.668  0.00  0.00    -0.083 Cl
ENDBRANCH  11  15
BRANCH   1  24
ATOM     23  N   UNL     1      -1.457  -6.225   1.854  0.00  0.00    -0.311 N 
ATOM     24  C   UNL     1      -2.119  -6.260   0.681  0.00  0.00    +0.218 C 
ATOM     25  O   UNL     1      -1.536  -6.007  -0.352  0.00  0.00    -0.275 OA
ATOM     26  H   UNL     1      -1.924  -6.427   2.680  0.00  0.00    +0.149 HD
BRANCH  23  27
ATOM     27  C   UNL     1      -0.033  -5.882   1.882  0.00  0.00    +0.139 C 
BRANCH  27  32
ATOM     28  C   UNL     1       1.869  -6.006   7.337  0.00  0.00    +0.044 C 
ATOM     29  C   UNL     1       1.373  -5.974   5.915  0.00  0.00    -0.050 A 
ATOM     30  C   UNL     1       1.059  -4.766   5.319  0.00  0.00    +0.004 A 
ATOM     31  C   UNL     1       0.605  -4.736   4.014  0.00  0.00    +0.006 A 
ATOM     32  C   UNL     1       0.464  -5.914   3.304  0.00  0.00    -0.027 A 
ATOM     33  C   UNL     1       0.778  -7.122   3.900  0.00  0.00    -0.046 A 
ATOM     34  C   UNL     1       1.237  -7.151   5.203  0.00  0.00    +0.007 A 
ATOM     35  C   UNL     1       0.623  -8.406   3.126  0.00  0.00    +0.044 C 
ENDBRANCH  27  32
ENDBRANCH  23  27
ENDBRANCH   1  24
TORSDOF 4
