REMARK  Name = ZINC60266203
REMARK  8 active torsions:
REMARK  status: ('A' for Active; 'I' for Inactive)
REMARK    1  A    between atoms: C_1  and  N_2
REMARK    2  A    between atoms: C_6  and  S_13
REMARK    3  A    between atoms: N_9  and  C_12
REMARK    4  A    between atoms: S_13  and  N_16
REMARK    5  A    between atoms: N_16  and  C_17
REMARK    6  A    between atoms: C_20  and  S_23
REMARK    7  A    between atoms: S_23  and  N_26
REMARK    8  A    between atoms: N_26  and  C_27
REMARK                            x       y       z     vdW  Elec       q    Type
REMARK                         _______ _______ _______ _____ _____    ______ ____
ROOT
ATOM      1  N   UNL     1      -4.231  -4.639  -1.611  0.00  0.00    -0.216 N 
ATOM      2  H   UNL     1      -4.847  -4.019  -2.031  0.00  0.00    +0.174 HD
ENDROOT
BRANCH   1   3
ATOM      3  C   UNL     1      -3.166  -5.170  -2.342  0.00  0.00    +0.048 A 
ATOM      4  C   UNL     1      -1.874  -4.707  -2.128  0.00  0.00    +0.026 A 
ATOM      5  C   UNL     1      -0.824  -5.235  -2.854  0.00  0.00    +0.030 A 
ATOM      6  C   UNL     1      -1.058  -6.223  -3.792  0.00  0.00    +0.105 A 
ATOM      7  C   UNL     1      -2.342  -6.687  -4.008  0.00  0.00    +0.030 A 
ATOM      8  C   UNL     1      -3.396  -6.167  -3.282  0.00  0.00    +0.026 A 
BRANCH   6   9
ATOM      9  S   UNL     1       0.285  -6.893  -4.716  0.00  0.00    +0.059 S 
ATOM     10  O   UNL     1      -0.268  -7.417  -5.915  0.00  0.00    -0.153 OA
ATOM     11  O   UNL     1       1.309  -5.908  -4.716  0.00  0.00    -0.153 OA
BRANCH   9  12
ATOM     12  N   UNL     1       0.871  -8.184  -3.862  0.00  0.00    -0.187 NA
ATOM     13  H   UNL     1       1.770  -8.157  -3.496  0.00  0.00    +0.148 HD
BRANCH  12  14
ATOM     14  C   UNL     1       0.033  -9.369  -3.657  0.00  0.00    +0.077 C 
ATOM     15  C   UNL     1       0.197 -10.131  -2.341  0.00  0.00    +0.022 C 
ATOM     16  C   UNL     1       0.728 -10.732  -3.644  0.00  0.00    +0.022 C 
ENDBRANCH  12  14
ENDBRANCH   9  12
ENDBRANCH   6   9
ENDBRANCH   1   3
BRANCH   1  17
ATOM     17  S   UNL     1      -4.440  -5.067  -0.025  0.00  0.00    +0.072 S 
ATOM     18  O   UNL     1      -5.635  -4.435   0.412  0.00  0.00    -0.150 OA
ATOM     19  O   UNL     1      -3.190  -4.863   0.620  0.00  0.00    -0.150 OA
BRANCH  17  25
ATOM     20  C   UNL     1      -5.015 -12.062   0.233  0.00  0.00    +0.154 C 
ATOM     21  N   UNL     1      -5.757 -10.814   0.040  0.00  0.00    -0.295 N 
ATOM     22  C   UNL     1      -5.216  -9.531   0.068  0.00  0.00    +0.070 A 
ATOM     23  C   UNL     1      -3.933  -9.043   0.266  0.00  0.00    +0.030 A 
ATOM     24  C   UNL     1      -3.702  -7.682   0.237  0.00  0.00    +0.031 A 
ATOM     25  C   UNL     1      -4.747  -6.802   0.011  0.00  0.00    +0.111 A 
ATOM     26  C   UNL     1      -6.028  -7.278  -0.187  0.00  0.00    +0.056 A 
ATOM     27  C   UNL     1      -6.269  -8.643  -0.160  0.00  0.00    +0.071 A 
ATOM     28  N   UNL     1      -7.418  -9.415  -0.320  0.00  0.00    -0.295 N 
ATOM     29  C   UNL     1      -7.078 -10.712  -0.201  0.00  0.00    +0.330 A 
ATOM     30  O   UNL     1      -7.848 -11.649  -0.292  0.00  0.00    -0.246 OA
ATOM     31  C   UNL     1      -8.765  -8.902  -0.581  0.00  0.00    +0.154 C 
ENDBRANCH  17  25
ENDBRANCH   1  17
TORSDOF 6
