REMARK  Name = ZINC39529938
REMARK  8 active torsions:
REMARK  status: ('A' for Active; 'I' for Inactive)
REMARK    1  A    between atoms: C_1  and  O_2
REMARK    2  A    between atoms: O_2  and  C_3
REMARK    3  A    between atoms: C_6  and  N_16
REMARK    4  A    between atoms: C_7  and  C_9
REMARK    5  A    between atoms: C_14  and  O_15
REMARK    6  A    between atoms: C_20  and  S_23
REMARK    7  A    between atoms: S_23  and  O_26
REMARK    8  A    between atoms: O_26  and  C_27
REMARK                            x       y       z     vdW  Elec       q    Type
REMARK                         _______ _______ _______ _____ _____    ______ ____
ROOT
ATOM      1  N   UNL     1       2.260  -2.353  -3.858  0.00  0.00    -0.331 N 
ATOM      2  C   UNL     1       1.409  -2.531  -5.045  0.00  0.00    +0.086 C 
ATOM      3  C   UNL     1       1.749  -3.879  -5.689  0.00  0.00    -0.061 C 
ATOM      4  N   UNL     1       3.190  -3.940  -5.962  0.00  0.00    +0.398 N 
ATOM      5  C   UNL     1       3.941  -3.905  -4.700  0.00  0.00    +0.133 C 
ATOM      6  C   UNL     1       3.710  -2.552  -4.008  0.00  0.00    +0.115 C 
ATOM      7  H   UNL     1       3.402  -4.795  -6.454  0.00  0.00    -0.083 HD
ATOM      8  H   UNL     1       3.457  -3.152  -6.532  0.00  0.00    -0.083 HD
ENDROOT
BRANCH   1  12
ATOM      9  C   UNL     1       0.611  -1.298  -0.171  0.00  0.00    +0.121 A 
ATOM     10  C   UNL     1       0.622  -2.625  -0.578  0.00  0.00    +0.047 A 
ATOM     11  C   UNL     1       1.168  -2.974  -1.798  0.00  0.00    +0.027 A 
ATOM     12  C   UNL     1       1.708  -1.999  -2.624  0.00  0.00    +0.038 A 
ATOM     13  C   UNL     1       1.698  -0.660  -2.218  0.00  0.00    +0.010 A 
ATOM     14  C   UNL     1       1.141  -0.315  -0.988  0.00  0.00    +0.056 A 
BRANCH  13  15
ATOM     15  C   UNL     1       2.273   0.388  -3.095  0.00  0.00    +0.025 A 
ATOM     16  C   UNL     1       3.434   1.059  -2.715  0.00  0.00    +0.012 A 
ATOM     17  C   UNL     1       3.965   2.033  -3.535  0.00  0.00    +0.001 A 
ATOM     18  C   UNL     1       3.349   2.348  -4.733  0.00  0.00    +0.004 A 
ATOM     19  C   UNL     1       2.198   1.688  -5.120  0.00  0.00    +0.046 A 
ATOM     20  C   UNL     1       1.657   0.704  -4.309  0.00  0.00    +0.125 A 
BRANCH  20  21
ATOM     21  O   UNL     1       0.528   0.051  -4.691  0.00  0.00    -0.506 OA
ATOM     22  H   UNL     1      -0.290   0.472  -4.394  0.00  0.00    +0.292 HD
ENDBRANCH  20  21
ENDBRANCH  13  15
BRANCH   9  24
ATOM     23  C   UNL     1      -0.459  -2.027   1.825  0.00  0.00    +0.277 C 
ATOM     24  O   UNL     1       0.071  -0.963   1.032  0.00  0.00    -0.495 OA
ENDBRANCH   9  24
ENDBRANCH   1  12
BRANCH   5  25
ATOM     25  S   UNL     1       5.710  -4.113  -5.042  0.00  0.00    +0.109 S 
ATOM     26  O   UNL     1       6.137  -3.162  -6.008  0.00  0.00    -0.138 OA
ATOM     27  O   UNL     1       6.426  -4.284  -3.827  0.00  0.00    -0.138 OA
BRANCH  25  28
ATOM     28  O   UNL     1       5.816  -5.457  -5.748  0.00  0.00    -0.347 OA
BRANCH  28  29
ATOM     29  C   UNL     1       5.668  -6.528  -4.923  0.00  0.00    +0.156 A 
ATOM     30  C   UNL     1       6.760  -7.028  -4.231  0.00  0.00    +0.048 A 
ATOM     31  C   UNL     1       6.607  -8.116  -3.393  0.00  0.00    +0.004 A 
ATOM     32  C   UNL     1       5.365  -8.706  -3.245  0.00  0.00    +0.000 A 
ATOM     33  C   UNL     1       4.274  -8.209  -3.934  0.00  0.00    +0.004 A 
ATOM     34  C   UNL     1       4.422  -7.118  -4.769  0.00  0.00    +0.048 A 
ENDBRANCH  28  29
ENDBRANCH  25  28
ENDBRANCH   5  25
TORSDOF 7
