REMARK  Name = ZINC25517084
REMARK  10 active torsions:
REMARK  status: ('A' for Active; 'I' for Inactive)
REMARK    1  A    between atoms: C_1  and  C_2
REMARK    2  A    between atoms: C_2  and  C_4
REMARK    3  A    between atoms: C_2  and  S_18
REMARK    4  A    between atoms: N_6  and  C_7
REMARK    5  A    between atoms: C_7  and  C_8
REMARK    6  A    between atoms: C_8  and  N_9
REMARK    7  A    between atoms: C_10  and  C_12
REMARK    8  A    between atoms: S_18  and  C_19
REMARK    9  A    between atoms: C_19  and  C_20
REMARK   10  A    between atoms: C_26  and  C_31
REMARK                            x       y       z     vdW  Elec       q    Type
REMARK                         _______ _______ _______ _____ _____    ______ ____
ROOT
ATOM      1  S   UNL     1       0.879  -0.605   1.472  0.00  0.00    -0.141 S 
ENDROOT
BRANCH   1   3
ATOM      2  C   UNL     1      -0.019   1.526   0.010  0.00  0.00    +0.029 C 
ATOM      3  C   UNL     1       0.002  -0.004   0.002  0.00  0.00    +0.129 C 
BRANCH   3   4
ATOM      4  C   UNL     1      -1.412  -0.526   0.013  0.00  0.00    +0.226 C 
ATOM      5  O   UNL     1      -1.939  -0.827   1.062  0.00  0.00    -0.275 OA
ATOM      6  N   UNL     1      -2.090  -0.657  -1.144  0.00  0.00    -0.313 N 
ATOM      7  H   UNL     1      -1.669  -0.416  -1.984  0.00  0.00    +0.149 HD
BRANCH   6   8
ATOM      8  C   UNL     1      -3.465  -1.164  -1.134  0.00  0.00    +0.123 C 
BRANCH   8   9
ATOM      9  C   UNL     1      -4.000  -1.215  -2.566  0.00  0.00    +0.123 C 
BRANCH   9  10
ATOM     10  N   UNL     1      -5.375  -1.722  -2.556  0.00  0.00    -0.310 N 
ATOM     11  C   UNL     1      -6.053  -1.854  -3.713  0.00  0.00    +0.244 C 
ATOM     12  O   UNL     1      -5.525  -1.552  -4.765  0.00  0.00    -0.270 OA
ATOM     13  H   UNL     1      -5.796  -1.963  -1.716  0.00  0.00    +0.149 HD
BRANCH  11  14
ATOM     14  C   UNL     1      -7.440  -2.366  -3.702  0.00  0.00    +0.037 A 
ATOM     15  C   UNL     1      -8.052  -2.708  -2.495  0.00  0.00    +0.013 A 
ATOM     16  C   UNL     1      -9.347  -3.184  -2.493  0.00  0.00    +0.001 A 
ATOM     17  C   UNL     1     -10.038  -3.324  -3.683  0.00  0.00    +0.000 A 
ATOM     18  C   UNL     1      -9.438  -2.987  -4.883  0.00  0.00    +0.001 A 
ATOM     19  C   UNL     1      -8.146  -2.503  -4.899  0.00  0.00    +0.013 A 
ENDBRANCH  11  14
ENDBRANCH   9  10
ENDBRANCH   8   9
ENDBRANCH   6   8
ENDBRANCH   3   4
ENDBRANCH   1   3
BRANCH   1  20
ATOM     20  C   UNL     1       2.582  -0.025   1.234  0.00  0.00    +0.144 C 
BRANCH  20  21
ATOM     21  C   UNL     1       3.429  -0.463   2.401  0.00  0.00    +0.121 A 
ATOM     22  N   UNL     1       4.745  -0.130   2.432  0.00  0.00    -0.310 N 
ATOM     23  H   UNL     1       5.122   0.385   1.702  0.00  0.00    +0.170 HD
ATOM     24  C   UNL     1       5.536  -0.501   3.456  0.00  0.00    +0.260 A 
ATOM     25  O   UNL     1       6.715  -0.194   3.470  0.00  0.00    -0.267 OA
ATOM     26  C   UNL     1       4.971  -1.262   4.529  0.00  0.00    +0.080 A 
ATOM     27  C   UNL     1       5.612  -1.775   5.734  0.00  0.00    +0.004 A 
ATOM     28  C   UNL     1       4.866  -2.478   6.620  0.00  0.00    +0.056 A 
ATOM     29  S   UNL     1       3.245  -2.489   5.878  0.00  0.00    -0.076 S 
ATOM     30  C   UNL     1       3.603  -1.559   4.410  0.00  0.00    +0.116 A 
ATOM     31  N   UNL     1       2.884  -1.152   3.367  0.00  0.00    -0.226 NA
BRANCH  27  32
ATOM     32  C   UNL     1       7.053  -1.533   5.984  0.00  0.00    -0.017 A 
ATOM     33  C   UNL     1       7.991  -1.804   4.989  0.00  0.00    +0.008 A 
ATOM     34  C   UNL     1       9.331  -1.576   5.227  0.00  0.00    +0.001 A 
ATOM     35  C   UNL     1       9.744  -1.080   6.451  0.00  0.00    +0.000 A 
ATOM     36  C   UNL     1       8.818  -0.810   7.442  0.00  0.00    +0.001 A 
ATOM     37  C   UNL     1       7.475  -1.028   7.213  0.00  0.00    +0.008 A 
ENDBRANCH  27  32
ENDBRANCH  20  21
ENDBRANCH   1  20
TORSDOF 9
