REMARK  Name = ZINC13644409
REMARK  5 active torsions:
REMARK  status: ('A' for Active; 'I' for Inactive)
REMARK    1  A    between atoms: C_6  and  S_7
REMARK    2  A    between atoms: S_7  and  C_8
REMARK    3  A    between atoms: C_8  and  C_9
REMARK    4  A    between atoms: C_9  and  C_20
REMARK    5  A    between atoms: N_12  and  C_15
REMARK                            x       y       z     vdW  Elec       q    Type
REMARK                         _______ _______ _______ _____ _____    ______ ____
ROOT
ATOM      1  S   UNL     1      -0.289   5.280   2.176  0.00  0.00    -0.124 S 
ENDROOT
BRANCH   1   7
ATOM      2  C   UNL     1      -0.588   6.066   4.782  0.00  0.00    +0.015 A 
ATOM      3  C   UNL     1      -1.308   6.234   5.945  0.00  0.00    +0.005 A 
ATOM      4  C   UNL     1      -2.637   5.833   6.021  0.00  0.00    -0.041 A 
ATOM      5  C   UNL     1      -3.244   5.275   4.917  0.00  0.00    -0.026 A 
ATOM      6  C   UNL     1      -2.525   5.104   3.744  0.00  0.00    +0.020 A 
ATOM      7  C   UNL     1      -1.197   5.500   3.669  0.00  0.00    +0.008 A 
ATOM      8  C   UNL     1      -4.690   4.846   4.922  0.00  0.00    +0.143 C 
ATOM      9  N   UNL     1      -5.203   4.856   6.296  0.00  0.00    -0.301 N 
ATOM     10  C   UNL     1      -4.865   6.018   7.136  0.00  0.00    +0.112 C 
ATOM     11  C   UNL     1      -3.350   6.029   7.333  0.00  0.00    +0.054 C 
ATOM     12  C   UNL     1      -5.969   3.823   6.781  0.00  0.00    +0.151 C 
ATOM     13  N   UNL     1      -6.269   2.751   5.973  0.00  0.00    -0.333 N 
ATOM     14  H   UNL     1      -6.959   3.177   8.440  0.00  0.00    +0.158 HD
ATOM     15  H   UNL     1      -5.940   2.725   5.061  0.00  0.00    +0.145 HD
ATOM     16  H   UNL     1      -6.809   2.022   6.316  0.00  0.00    +0.145 HD
ATOM     17  N   UNL     1      -6.388   3.919   8.035  0.00  0.00    -0.375 N 
ATOM     18  H   UNL     1      -6.137   4.740   8.598  0.00  0.00    +0.158 HD
ENDBRANCH   1   7
BRANCH   1  19
ATOM     19  C   UNL     1       1.358   5.934   2.564  0.00  0.00    +0.092 C 
BRANCH  19  20
ATOM     20  C   UNL     1       2.261   5.803   1.336  0.00  0.00    +0.084 C 
ATOM     21  C   UNL     1       1.662   6.597   0.172  0.00  0.00    +0.038 C 
ATOM     22  C   UNL     1       2.602   6.511  -1.034  0.00  0.00    +0.106 C 
ATOM     23  N   UNL     1       3.917   7.054  -0.672  0.00  0.00    -0.330 N 
ATOM     24  C   UNL     1       4.532   6.278   0.412  0.00  0.00    +0.106 C 
ATOM     25  C   UNL     1       3.651   6.357   1.661  0.00  0.00    +0.038 C 
BRANCH  23  26
ATOM     26  C   UNL     1       4.755   7.112  -1.782  0.00  0.00    +0.032 A 
ATOM     27  C   UNL     1       6.002   6.487  -1.769  0.00  0.00    +0.040 A 
ATOM     28  C   UNL     1       6.801   6.563  -2.891  0.00  0.00    +0.084 A 
ATOM     29  C   UNL     1       5.232   7.833  -4.011  0.00  0.00    +0.084 A 
ATOM     30  C   UNL     1       4.372   7.800  -2.933  0.00  0.00    +0.040 A 
ATOM     31  N   UNL     1       6.451   7.228  -4.026  0.00  0.00    -0.367 N 
ATOM     32  H   UNL     1       7.069   7.270  -4.845  0.00  0.00    +0.165 HD
ENDBRANCH  23  26
BRANCH  20  33
ATOM     33  C   UNL     1       2.377   4.351   0.949  0.00  0.00    +0.363 C 
ATOM     34  O   UNL     1       3.459   3.813   0.936  0.00  0.00    -0.246 OA
ATOM     35  O   UNL     1       1.278   3.655   0.618  0.00  0.00    -0.246 OA
ENDBRANCH  20  33
ENDBRANCH  19  20
ENDBRANCH   1  19
TORSDOF 5
