REMARK  Name = ZINC32772055
REMARK  11 active torsions:
REMARK  status: ('A' for Active; 'I' for Inactive)
REMARK    1  A    between atoms: C_1  and  C_2
REMARK    2  A    between atoms: C_2  and  C_4
REMARK    3  A    between atoms: C_2  and  N_33
REMARK    4  A    between atoms: C_7  and  S_16
REMARK    5  A    between atoms: N_8  and  C_9
REMARK    6  A    between atoms: S_16  and  C_17
REMARK    7  A    between atoms: C_17  and  C_19
REMARK    8  A    between atoms: C_17  and  C_20
REMARK    9  A    between atoms: N_22  and  C_23
REMARK   10  A    between atoms: N_33  and  C_34
REMARK   11  A    between atoms: N_33  and  C_35
REMARK                            x       y       z     vdW  Elec       q    Type
REMARK                         _______ _______ _______ _____ _____    ______ ____
ROOT
ATOM      1  C   UNL     1      -2.184  11.762  -2.636  0.00  0.00    +0.125 A 
ATOM      2  N   UNL     1      -1.936  11.464  -1.392  0.00  0.00    -0.135 NA
ATOM      3  N   UNL     1      -1.993  10.191  -1.221  0.00  0.00    -0.122 NA
ATOM      4  C   UNL     1      -2.275   9.600  -2.359  0.00  0.00    +0.197 A 
ATOM      5  N   UNL     1      -2.410  10.585  -3.299  0.00  0.00    -0.275 N 
ENDROOT
BRANCH   5   6
ATOM      6  C   UNL     1      -2.716  10.423  -4.658  0.00  0.00    +0.050 A 
ATOM      7  C   UNL     1      -1.787  10.778  -5.627  0.00  0.00    +0.028 A 
ATOM      8  C   UNL     1      -2.089  10.613  -6.965  0.00  0.00    +0.022 A 
ATOM      9  C   UNL     1      -3.320  10.105  -7.340  0.00  0.00    +0.041 A 
ATOM     10  C   UNL     1      -4.249   9.755  -6.376  0.00  0.00    +0.022 A 
ATOM     11  C   UNL     1      -3.950   9.913  -5.037  0.00  0.00    +0.028 A 
ATOM     12 CL   UNL     1      -3.698   9.905  -9.022  0.00  0.00    -0.084 Cl
ENDBRANCH   5   6
BRANCH   1  14
ATOM     13  C   UNL     1      -3.505  13.854  -2.809  0.00  0.00    -0.005 C 
ATOM     14  C   UNL     1      -2.217  13.145  -3.234  0.00  0.00    -0.003 C 
BRANCH  14  15
ATOM     15  N   UNL     1      -1.057  13.911  -2.760  0.00  0.00    +0.382 N 
ATOM     16  C   UNL     1       0.198  13.211  -3.068  0.00  0.00    -0.096 C 
ATOM     17  C   UNL     1      -1.056  15.267  -3.323  0.00  0.00    -0.096 C 
ATOM     18  H   UNL     1      -1.135  13.999  -1.666  0.00  0.00    -0.082 HD
ENDBRANCH  14  15
ENDBRANCH   1  14
BRANCH   4  19
ATOM     19  S   UNL     1      -2.453   7.867  -2.624  0.00  0.00    -0.073 S 
BRANCH  19  20
ATOM     20  C   UNL     1      -2.132   7.259  -0.950  0.00  0.00    +0.137 C 
ATOM     21  C   UNL     1      -3.235   7.749  -0.009  0.00  0.00    +0.029 C 
BRANCH  20  22
ATOM     22  C   UNL     1      -2.112   5.752  -0.958  0.00  0.00    +0.227 C 
ATOM     23  O   UNL     1      -2.637   5.143  -1.866  0.00  0.00    -0.275 OA
ATOM     24  N   UNL     1      -1.510   5.081   0.044  0.00  0.00    -0.309 N 
ATOM     25  H   UNL     1      -1.033   5.633   0.867  0.00  0.00    +0.149 HD
BRANCH  24  26
ATOM     26  C   UNL     1      -1.490   3.616   0.036  0.00  0.00    +0.035 C 
ATOM     27  C   UNL     1      -0.773   3.123  -1.223  0.00  0.00    +0.029 C 
ATOM     28  C   UNL     1      -0.753   1.593  -1.232  0.00  0.00    -0.008 C 
ATOM     29  C   UNL     1      -0.013   1.086   0.008  0.00  0.00    +0.007 C 
ATOM     30  C   UNL     1      -0.729   1.579   1.267  0.00  0.00    -0.008 C 
ATOM     31  C   UNL     1      -0.750   3.109   1.275  0.00  0.00    +0.029 C 
ATOM     32  C   UNL     1      -2.164   1.050   1.278  0.00  0.00    +0.007 C 
ATOM     33  C   UNL     1      -2.904   1.556   0.038  0.00  0.00    -0.008 C 
ATOM     34  C   UNL     1      -2.188   1.063  -1.221  0.00  0.00    +0.007 C 
ATOM     35  C   UNL     1      -2.925   3.086   0.047  0.00  0.00    +0.029 C 
ENDBRANCH  24  26
ENDBRANCH  20  22
ENDBRANCH  19  20
ENDBRANCH   4  19
TORSDOF 7
