REMARK  Name = ZINC46919904
REMARK  10 active torsions:
REMARK  status: ('A' for Active; 'I' for Inactive)
REMARK    1  A    between atoms: C_1  and  N_2
REMARK    2  A    between atoms: N_2  and  C_3
REMARK    3  A    between atoms: N_2  and  S_4
REMARK    4  A    between atoms: S_4  and  C_7
REMARK    5  A    between atoms: C_9  and  C_14
REMARK    6  A    between atoms: N_16  and  C_17
REMARK    7  A    between atoms: C_17  and  C_18
REMARK    8  A    between atoms: C_21  and  C_24
REMARK    9  A    between atoms: N_26  and  C_27
REMARK   10  A    between atoms: C_27  and  C_28
REMARK                            x       y       z     vdW  Elec       q    Type
REMARK                         _______ _______ _______ _____ _____    ______ ____
ROOT
ATOM      1  C   UNL     1       4.105  -3.881  -2.422  0.00  0.00    +0.244 C 
ATOM      2  O   UNL     1       3.410  -4.844  -2.162  0.00  0.00    -0.270 OA
ATOM      3  N   UNL     1       5.392  -4.056  -2.781  0.00  0.00    -0.307 N 
ATOM      4  H   UNL     1       5.947  -3.288  -2.990  0.00  0.00    +0.149 HD
ENDROOT
BRANCH   1   7
ATOM      5  C   UNL     1       1.682  -1.059  -1.905  0.00  0.00    +0.120 A 
ATOM      6  C   UNL     1       2.205  -2.334  -1.975  0.00  0.00    +0.042 A 
ATOM      7  C   UNL     1       3.538  -2.518  -2.346  0.00  0.00    +0.039 A 
ATOM      8  C   UNL     1       4.333  -1.410  -2.645  0.00  0.00    +0.014 A 
ATOM      9  C   UNL     1       3.799  -0.141  -2.571  0.00  0.00    +0.018 A 
ATOM     10  C   UNL     1       2.474   0.035  -2.208  0.00  0.00    +0.044 A 
ATOM     11 BR   UNL     1       1.747   1.778  -2.117  0.00  0.00    -0.048 Br
BRANCH   5  12
ATOM     12  S   UNL     1      -0.000  -0.824  -1.437  0.00  0.00    +0.061 S 
ATOM     13  O   UNL     1      -0.531  -2.115  -1.167  0.00  0.00    -0.153 OA
ATOM     14  O   UNL     1      -0.572   0.049  -2.401  0.00  0.00    -0.153 OA
BRANCH  12  16
ATOM     15  C   UNL     1      -0.018   1.461   0.010  0.00  0.00    +0.131 C 
ATOM     16  N   UNL     1       0.002  -0.004   0.002  0.00  0.00    -0.183 NA
ATOM     17  C   UNL     1       0.024  -0.743   1.267  0.00  0.00    +0.131 C 
ENDBRANCH  12  16
ENDBRANCH   5  12
ENDBRANCH   1   7
BRANCH   3  18
ATOM     18  C   UNL     1       5.955  -5.407  -2.857  0.00  0.00    +0.139 C 
BRANCH  18  19
ATOM     19  C   UNL     1       7.399  -5.327  -3.277  0.00  0.00    -0.030 A 
ATOM     20  C   UNL     1       7.729  -5.358  -4.621  0.00  0.00    +0.006 A 
ATOM     21  C   UNL     1       9.049  -5.285  -5.012  0.00  0.00    +0.013 A 
ATOM     22  C   UNL     1      10.055  -5.180  -4.050  0.00  0.00    +0.037 A 
ATOM     23  C   UNL     1       9.716  -5.149  -2.696  0.00  0.00    +0.013 A 
ATOM     24  C   UNL     1       8.391  -5.217  -2.318  0.00  0.00    +0.006 A 
BRANCH  22  25
ATOM     25  C   UNL     1      11.472  -5.102  -4.462  0.00  0.00    +0.244 C 
ATOM     26  O   UNL     1      11.764  -5.129  -5.642  0.00  0.00    -0.270 OA
ATOM     27  N   UNL     1      12.441  -5.000  -3.530  0.00  0.00    -0.303 N 
ATOM     28  H   UNL     1      12.207  -4.978  -2.589  0.00  0.00    +0.150 HD
BRANCH  27  29
ATOM     29  C   UNL     1      13.845  -4.923  -3.939  0.00  0.00    +0.200 C 
BRANCH  29  30
ATOM     30  C   UNL     1      14.719  -4.816  -2.716  0.00  0.00    +0.228 C 
ATOM     31  O   UNL     1      14.218  -4.806  -1.611  0.00  0.00    -0.274 OA
ATOM     32  N   UNL     1      16.058  -4.732  -2.849  0.00  0.00    -0.328 N 
ATOM     33  H   UNL     1      16.459  -4.741  -3.732  0.00  0.00    +0.145 HD
ATOM     34  H   UNL     1      16.620  -4.664  -2.062  0.00  0.00    +0.145 HD
ENDBRANCH  29  30
ENDBRANCH  27  29
ENDBRANCH  22  25
ENDBRANCH  18  19
ENDBRANCH   3  18
TORSDOF 8
