REMARK  Name = ZINC39597919
REMARK  10 active torsions:
REMARK  status: ('A' for Active; 'I' for Inactive)
REMARK    1  A    between atoms: C_1  and  C_2
REMARK    2  A    between atoms: C_2  and  C_3
REMARK    3  A    between atoms: C_2  and  C_4
REMARK    4  A    between atoms: C_4  and  C_6
REMARK    5  A    between atoms: C_4  and  O_33
REMARK    6  A    between atoms: C_10  and  C_19
REMARK    7  A    between atoms: N_21  and  C_22
REMARK    8  A    between atoms: C_22  and  C_23
REMARK    9  A    between atoms: C_23  and  C_24
REMARK   10  A    between atoms: O_33  and  C_34
REMARK                            x       y       z     vdW  Elec       q    Type
REMARK                         _______ _______ _______ _____ _____    ______ ____
ROOT
ATOM      1  C   UNL     1      -1.136  -1.602   0.252  0.00  0.00    +0.257 C 
ATOM      2  O   UNL     1      -1.456  -2.381  -0.621  0.00  0.00    -0.272 OA
ATOM      3  N   UNL     1      -0.662  -2.064   1.426  0.00  0.00    -0.297 N 
ATOM      4  C   UNL     1      -0.336  -1.285   2.644  0.00  0.00    +0.121 C 
ATOM      5  C   UNL     1      -0.819  -2.170   3.815  0.00  0.00    +0.100 C 
ATOM      6  C   UNL     1      -0.824  -3.600   3.249  0.00  0.00    -0.004 C 
ATOM      7  C   UNL     1      -0.355  -3.467   1.793  0.00  0.00    +0.115 C 
ATOM      8  C   UNL     1      -2.234  -4.181   3.292  0.00  0.00    -0.010 C 
ATOM      9  C   UNL     1      -2.203  -5.623   2.779  0.00  0.00    -0.082 C 
ATOM     10  N   UNL     1      -1.298  -6.422   3.613  0.00  0.00    +0.379 N 
ATOM     11  C   UNL     1       0.074  -5.913   3.493  0.00  0.00    -0.082 C 
ATOM     12  C   UNL     1       0.139  -4.483   4.037  0.00  0.00    -0.010 C 
ATOM     13  H   UNL     1      -1.593  -6.366   4.576  0.00  0.00    -0.086 HD
ATOM     14  H   UNL     1      -1.326  -7.384   3.311  0.00  0.00    -0.086 HD
ENDROOT
BRANCH   5  15
ATOM     15  C   UNL     1       0.133  -2.066   4.978  0.00  0.00    +0.218 C 
ATOM     16  O   UNL     1       1.297  -1.785   4.787  0.00  0.00    -0.275 OA
ATOM     17  N   UNL     1      -0.309  -2.287   6.232  0.00  0.00    -0.315 N 
ATOM     18  H   UNL     1      -1.240  -2.512   6.386  0.00  0.00    +0.149 HD
BRANCH  17  19
ATOM     19  C   UNL     1       0.616  -2.186   7.364  0.00  0.00    +0.109 C 
BRANCH  19  20
ATOM     20  C   UNL     1      -0.134  -2.480   8.664  0.00  0.00    +0.056 C 
BRANCH  20  21
ATOM     21  C   UNL     1       0.818  -2.377   9.828  0.00  0.00    -0.021 A 
ATOM     22  C   UNL     1       1.187  -1.154  10.545  0.00  0.00    +0.003 A 
ATOM     23  C   UNL     1       0.830   0.190  10.421  0.00  0.00    +0.010 A 
ATOM     24  C   UNL     1       1.365   1.116  11.271  0.00  0.00    +0.001 A 
ATOM     25  C   UNL     1       2.262   0.731  12.258  0.00  0.00    +0.002 A 
ATOM     26  C   UNL     1       2.628  -0.590  12.399  0.00  0.00    +0.026 A 
ATOM     27  C   UNL     1       2.095  -1.549  11.545  0.00  0.00    +0.047 A 
ATOM     28  N   UNL     1       2.256  -2.912  11.431  0.00  0.00    -0.360 N 
ATOM     29  C   UNL     1       1.484  -3.388  10.407  0.00  0.00    +0.087 A 
ATOM     30  H   UNL     1       2.830  -3.454  11.995  0.00  0.00    +0.165 HD
ENDBRANCH  20  21
ENDBRANCH  19  20
ENDBRANCH  17  19
ENDBRANCH   5  15
BRANCH   1  31
ATOM     31  C   UNL     1      -1.268  -0.118   0.025  0.00  0.00    +0.261 C 
BRANCH  31  33
ATOM     32  C   UNL     1      -0.038   1.967  -0.594  0.00  0.00    +0.011 C 
ATOM     33  C   UNL     1       0.081   0.452  -0.418  0.00  0.00    +0.033 C 
ATOM     34  C   UNL     1       1.139   0.143   0.644  0.00  0.00    +0.011 C 
ENDBRANCH  31  33
BRANCH  31  35
ATOM     35  O   UNL     1      -2.243   0.123  -0.992  0.00  0.00    -0.479 OA
BRANCH  35  36
ATOM     36  C   UNL     1      -3.105   1.153  -0.787  0.00  0.00    +0.122 A 
ATOM     37  C   UNL     1      -4.156   1.365  -1.668  0.00  0.00    +0.045 A 
ATOM     38  C   UNL     1      -5.031   2.413  -1.458  0.00  0.00    +0.004 A 
ATOM     39  C   UNL     1      -4.861   3.250  -0.371  0.00  0.00    +0.000 A 
ATOM     40  C   UNL     1      -3.814   3.041   0.508  0.00  0.00    +0.004 A 
ATOM     41  C   UNL     1      -2.940   1.991   0.306  0.00  0.00    +0.045 A 
ENDBRANCH  35  36
ENDBRANCH  31  35
ENDBRANCH   1  31
TORSDOF 8
