REMARK  Name = ZINC16647366
REMARK  13 active torsions:
REMARK  status: ('A' for Active; 'I' for Inactive)
REMARK    1  A    between atoms: C_1  and  C_2
REMARK    2  A    between atoms: C_2  and  C_3
REMARK    3  A    between atoms: C_3  and  C_4
REMARK    4  A    between atoms: C_4  and  C_5
REMARK    5  A    between atoms: C_5  and  C_7
REMARK    6  A    between atoms: C_5  and  C_9
REMARK    7  A    between atoms: C_7  and  C_8
REMARK    8  A    between atoms: N_19  and  C_28
REMARK    9  A    between atoms: N_21  and  C_22
REMARK   10  A    between atoms: C_28  and  C_29
REMARK   11  A    between atoms: N_31  and  C_32
REMARK   12  A    between atoms: N_31  and  C_33
REMARK   13  A    between atoms: C_38  and  N_85
REMARK                            x       y       z     vdW  Elec       q    Type
REMARK                         _______ _______ _______ _____ _____    ______ ____
ROOT
ATOM      1  C   UNL     1       5.193   5.852   0.155  0.00  0.00    +0.219 C 
ATOM      2  O   UNL     1       4.739   6.785  -0.472  0.00  0.00    -0.275 OA
ATOM      3  N   UNL     1       5.058   4.595  -0.313  0.00  0.00    -0.301 N 
ATOM      4  C   UNL     1       4.447   4.348  -1.627  0.00  0.00    +0.110 C 
ATOM      5  C   UNL     1       3.295   3.353  -1.454  0.00  0.00    +0.054 C 
ATOM      6  C   UNL     1       3.806   2.104  -0.741  0.00  0.00    +0.115 C 
ATOM      7  C   UNL     1       4.360   2.459   0.636  0.00  0.00    +0.054 C 
ATOM      8  C   UNL     1       5.520   3.448   0.479  0.00  0.00    +0.110 C 
ATOM      9  C   UNL     1       4.863   1.418  -1.573  0.00  0.00    +0.241 C 
ATOM     10  O   UNL     1       6.019   1.768  -1.680  0.00  0.00    -0.273 OA
ATOM     11  N   UNL     1       4.301   0.350  -2.177  0.00  0.00    -0.275 N 
ATOM     12  C   UNL     1       2.881   0.269  -1.813  0.00  0.00    +0.217 C 
ATOM     13  N   UNL     1       2.715   1.115  -0.608  0.00  0.00    -0.300 N 
ENDROOT
BRANCH  13  14
ATOM     14  C   UNL     1       1.468   1.744  -0.606  0.00  0.00    +0.032 A 
ATOM     15  C   UNL     1       0.511   1.395  -1.551  0.00  0.00    +0.023 A 
ATOM     16  C   UNL     1      -0.719   2.022  -1.550  0.00  0.00    +0.002 A 
ATOM     17  C   UNL     1      -1.004   2.988  -0.602  0.00  0.00    +0.000 A 
ATOM     18  C   UNL     1      -0.054   3.338   0.340  0.00  0.00    +0.002 A 
ATOM     19  C   UNL     1       1.181   2.719   0.341  0.00  0.00    +0.023 A 
ENDBRANCH  13  14
BRANCH   1  20
ATOM     20  C   UNL     1       5.909   6.097   1.459  0.00  0.00    +0.075 C 
BRANCH  20  21
ATOM     21  C   UNL     1       5.336   7.348   2.128  0.00  0.00    +0.009 C 
ATOM     22  C   UNL     1       3.881   7.093   2.526  0.00  0.00    +0.004 C 
ENDBRANCH  20  21
BRANCH  20  23
ATOM     23  C   UNL     1       7.401   6.300   1.191  0.00  0.00    +0.013 C 
BRANCH  23  24
ATOM     24  C   UNL     1       8.146   6.425   2.522  0.00  0.00    +0.000 C 
BRANCH  24  26
ATOM     25  C   UNL     1      10.383   6.752   3.584  0.00  0.00    +0.004 C 
ATOM     26  C   UNL     1       9.639   6.628   2.254  0.00  0.00    -0.003 C 
ENDBRANCH  24  26
ENDBRANCH  23  24
ENDBRANCH  20  23
ENDBRANCH   1  20
BRANCH  11  27
ATOM     27  C   UNL     1       5.001  -0.585  -3.061  0.00  0.00    +0.205 C 
BRANCH  27  28
ATOM     28  C   UNL     1       4.908  -0.097  -4.484  0.00  0.00    +0.233 C 
ATOM     29  O   UNL     1       4.314   0.931  -4.735  0.00  0.00    -0.274 OA
ATOM     30  N   UNL     1       5.483  -0.803  -5.478  0.00  0.00    -0.300 N 
ATOM     31  C   UNL     1       6.200  -2.044  -5.175  0.00  0.00    +0.132 C 
BRANCH  30  32
ATOM     32  C   UNL     1       5.392  -0.328  -6.861  0.00  0.00    +0.072 C 
ATOM     33  C   UNL     1       4.691  -1.385  -7.719  0.00  0.00    +0.004 C 
ATOM     34  C   UNL     1       4.653  -0.911  -9.174  0.00  0.00    -0.077 C 
ATOM     35  C   UNL     1       6.701   0.351  -8.876  0.00  0.00    -0.077 C 
ATOM     36  C   UNL     1       6.800  -0.086  -7.412  0.00  0.00    +0.004 C 
ATOM     37  C   UNL     1       6.033  -0.371 -11.088  0.00  0.00    -0.096 C 
ATOM     38  N   UNL     1       6.039  -0.719  -9.652  0.00  0.00    +0.378 N 
ATOM     39  H   UNL     1       6.559  -1.595  -9.523  0.00  0.00    -0.082 HD
ENDBRANCH  30  32
ENDBRANCH  27  28
ENDBRANCH  11  27
TORSDOF 9
