REMARK  Name = ZINC39666612
REMARK  8 active torsions:
REMARK  status: ('A' for Active; 'I' for Inactive)
REMARK    1  A    between atoms: C_1  and  C_2
REMARK    2  A    between atoms: C_2  and  C_4
REMARK    3  A    between atoms: C_2  and  O_32
REMARK    4  A    between atoms: C_4  and  N_5
REMARK    5  A    between atoms: C_6  and  C_8
REMARK    6  A    between atoms: C_19  and  C_21
REMARK    7  A    between atoms: C_24  and  C_26
REMARK    8  A    between atoms: O_32  and  C_33
REMARK                            x       y       z     vdW  Elec       q    Type
REMARK                         _______ _______ _______ _____ _____    ______ ____
ROOT
ATOM      1  C   UNL     1       1.054  -3.876  -2.721  0.00  0.00    +0.100 C 
ATOM      2  C   UNL     1      -0.400  -4.345  -2.950  0.00  0.00    +0.121 C 
ATOM      3  N   UNL     1      -0.566  -4.346  -4.422  0.00  0.00    -0.294 N 
ATOM      4  C   UNL     1       0.725  -4.862  -4.938  0.00  0.00    +0.115 C 
ATOM      5  C   UNL     1       1.790  -4.220  -4.027  0.00  0.00    -0.004 C 
ATOM      6  C   UNL     1       2.917  -5.211  -3.754  0.00  0.00    -0.010 C 
ATOM      7  C   UNL     1       3.671  -5.493  -5.056  0.00  0.00    -0.082 C 
ATOM      8  N   UNL     1       4.214  -4.238  -5.591  0.00  0.00    +0.379 N 
ATOM      9  C   UNL     1       3.118  -3.326  -5.939  0.00  0.00    -0.082 C 
ATOM     10  C   UNL     1       2.341  -2.952  -4.673  0.00  0.00    -0.010 C 
ATOM     11  C   UNL     1      -1.647  -3.966  -5.132  0.00  0.00    +0.282 C 
ATOM     12  O   UNL     1      -1.661  -4.107  -6.341  0.00  0.00    -0.267 OA
ATOM     13  H   UNL     1       4.803  -3.805  -4.896  0.00  0.00    -0.086 HD
ATOM     14  H   UNL     1       4.761  -4.435  -6.416  0.00  0.00    -0.086 HD
ENDROOT
BRANCH  11  15
ATOM     15  C   UNL     1      -2.804  -3.383  -4.448  0.00  0.00    +0.190 A 
ATOM     16  C   UNL     1      -4.005  -3.047  -5.034  0.00  0.00    +0.055 A 
ATOM     17  C   UNL     1      -4.817  -2.527  -4.021  0.00  0.00    +0.050 A 
ATOM     18  C   UNL     1      -4.090  -2.563  -2.866  0.00  0.00    +0.136 A 
ATOM     19  O   UNL     1      -2.881  -3.086  -3.134  0.00  0.00    -0.450 OA
BRANCH  18  20
ATOM     20  C   UNL     1      -4.556  -2.109  -1.540  0.00  0.00    +0.017 A 
ATOM     21  C   UNL     1      -5.877  -1.691  -1.366  0.00  0.00    +0.011 A 
ATOM     22  C   UNL     1      -6.306  -1.269  -0.126  0.00  0.00    +0.001 A 
ATOM     23  C   UNL     1      -5.431  -1.258   0.946  0.00  0.00    +0.000 A 
ATOM     24  C   UNL     1      -4.120  -1.669   0.781  0.00  0.00    +0.001 A 
ATOM     25  C   UNL     1      -3.679  -2.100  -0.453  0.00  0.00    +0.011 A 
ENDBRANCH  18  20
ENDBRANCH  11  15
BRANCH   1  27
ATOM     26  N   UNL     1       2.151  -1.839  -1.846  0.00  0.00    -0.312 N 
ATOM     27  C   UNL     1       1.093  -2.390  -2.473  0.00  0.00    +0.218 C 
ATOM     28  O   UNL     1       0.173  -1.689  -2.839  0.00  0.00    -0.275 OA
ATOM     29  H   UNL     1       2.853  -2.406  -1.489  0.00  0.00    +0.149 HD
BRANCH  26  30
ATOM     30  C   UNL     1       2.242  -0.384  -1.702  0.00  0.00    +0.148 C 
BRANCH  30  32
ATOM     31  C   UNL     1       3.734   1.506  -1.036  0.00  0.00    +0.053 C 
ATOM     32  C   UNL     1       3.586  -0.016  -1.070  0.00  0.00    +0.187 C 
BRANCH  32  33
ATOM     33  O   UNL     1       3.641  -0.529   0.263  0.00  0.00    -0.486 OA
BRANCH  33  34
ATOM     34  C   UNL     1       4.875  -0.767   0.782  0.00  0.00    +0.139 A 
ATOM     35  C   UNL     1       6.009  -0.404   0.071  0.00  0.00    +0.047 A 
ATOM     36  C   UNL     1       7.262  -0.647   0.600  0.00  0.00    +0.004 A 
ATOM     37  C   UNL     1       7.386  -1.251   1.838  0.00  0.00    +0.002 A 
ATOM     38  C   UNL     1       6.258  -1.615   2.549  0.00  0.00    +0.023 A 
ATOM     39  C   UNL     1       5.001  -1.369   2.026  0.00  0.00    +0.083 A 
ATOM     40 CL   UNL     1       3.584  -1.819   2.922  0.00  0.00    -0.080 Cl
ENDBRANCH  33  34
ENDBRANCH  32  33
ENDBRANCH  30  32
ENDBRANCH  26  30
ENDBRANCH   1  27
TORSDOF 7
