REMARK  Name = ZINC03345503
REMARK  9 active torsions:
REMARK  status: ('A' for Active; 'I' for Inactive)
REMARK    1  A    between atoms: C_1  and  C_2
REMARK    2  A    between atoms: C_5  and  C_30
REMARK    3  A    between atoms: C_6  and  N_8
REMARK    4  A    between atoms: C_9  and  S_13
REMARK    5  A    between atoms: S_13  and  C_14
REMARK    6  A    between atoms: C_14  and  C_15
REMARK    7  A    between atoms: N_17  and  C_18
REMARK    8  A    between atoms: C_21  and  S_25
REMARK    9  A    between atoms: S_25  and  N_28
REMARK                            x       y       z     vdW  Elec       q    Type
REMARK                         _______ _______ _______ _____ _____    ______ ____
ROOT
ATOM      1  C   UNL     1       1.642   6.055   1.129  0.00  0.00    +0.228 C 
ATOM      2  O   UNL     1       0.673   6.718   0.824  0.00  0.00    -0.275 OA
ATOM      3  N   UNL     1       1.483   4.901   1.806  0.00  0.00    -0.282 N 
ATOM      4  H   UNL     1       2.260   4.397   2.095  0.00  0.00    +0.155 HD
ENDROOT
BRANCH   3   5
ATOM      5  C   UNL     1       0.196   4.429   2.094  0.00  0.00    +0.071 A 
ATOM      6  C   UNL     1      -0.799   4.488   1.126  0.00  0.00    +0.065 A 
ATOM      7  C   UNL     1      -2.068   4.022   1.413  0.00  0.00    +0.050 A 
ATOM      8  C   UNL     1      -2.349   3.502   2.664  0.00  0.00    +0.108 A 
ATOM      9  C   UNL     1      -1.360   3.438   3.627  0.00  0.00    +0.050 A 
ATOM     10  C   UNL     1      -0.088   3.902   3.347  0.00  0.00    +0.065 A 
ATOM     11 CL   UNL     1       1.152   3.826   4.560  0.00  0.00    -0.082 Cl
ATOM     12 CL   UNL     1      -0.449   5.147  -0.442  0.00  0.00    -0.082 Cl
BRANCH   8  13
ATOM     13  S   UNL     1      -3.970   2.916   3.028  0.00  0.00    +0.056 S 
ATOM     14  O   UNL     1      -4.119   2.982   4.439  0.00  0.00    -0.153 OA
ATOM     15  O   UNL     1      -4.853   3.584   2.137  0.00  0.00    -0.153 OA
BRANCH  13  16
ATOM     16  N   UNL     1      -4.013   1.311   2.621  0.00  0.00    -0.204 NA
ATOM     17  H   UNL     1      -3.224   0.882   2.257  0.00  0.00    +0.144 HD
ATOM     18  H   UNL     1      -4.828   0.801   2.748  0.00  0.00    +0.144 HD
ENDBRANCH  13  16
ENDBRANCH   8  13
ENDBRANCH   3   5
BRANCH   1  19
ATOM     19  C   UNL     1       3.024   6.522   0.750  0.00  0.00    +0.173 C 
BRANCH  19  20
ATOM     20  S   UNL     1       2.906   8.091  -0.145  0.00  0.00    -0.075 S 
BRANCH  20  22
ATOM     21  N   UNL     1       5.140   9.465  -1.114  0.00  0.00    -0.187 N 
ATOM     22  C   UNL     1       4.614   8.395  -0.456  0.00  0.00    +0.214 A 
ATOM     23  N   UNL     1       5.624   7.635  -0.091  0.00  0.00    -0.101 NA
ATOM     24  N   UNL     1       6.736   8.146  -0.480  0.00  0.00    -0.022 NA
ATOM     25  N   UNL     1       6.530   9.255  -1.103  0.00  0.00    -0.038 NA
BRANCH  21  31
ATOM     26  C   UNL     1       1.496  11.123  -3.972  0.00  0.00    +0.044 C 
ATOM     27  C   UNL     1       2.676  11.375  -3.069  0.00  0.00    -0.048 A 
ATOM     28  C   UNL     1       3.075  12.671  -2.800  0.00  0.00    +0.004 A 
ATOM     29  C   UNL     1       4.158  12.906  -1.972  0.00  0.00    +0.006 A 
ATOM     30  C   UNL     1       4.844  11.846  -1.412  0.00  0.00    -0.025 A 
ATOM     31  C   UNL     1       4.446  10.543  -1.681  0.00  0.00    +0.073 A 
ATOM     32  C   UNL     1       3.362  10.310  -2.517  0.00  0.00    +0.031 A 
ATOM     33  C   UNL     1       6.024  12.102  -0.511  0.00  0.00    +0.046 C 
ENDBRANCH  21  31
ENDBRANCH  20  22
ENDBRANCH  19  20
ENDBRANCH   1  19
TORSDOF 7
