REMARK  Name = ZINC38903832
REMARK  13 active torsions:
REMARK  status: ('A' for Active; 'I' for Inactive)
REMARK    1  A    between atoms: C_1  and  C_2
REMARK    2  A    between atoms: C_2  and  C_41
REMARK    3  A    between atoms: C_4  and  N_15
REMARK    4  A    between atoms: C_9  and  O_13
REMARK    5  A    between atoms: O_13  and  C_14
REMARK    6  A    between atoms: C_16  and  C_18
REMARK    7  A    between atoms: N_23  and  C_25
REMARK    8  A    between atoms: C_25  and  C_26
REMARK    9  A    between atoms: C_28  and  C_31
REMARK   10  A    between atoms: C_34  and  C_37
REMARK   11  A    between atoms: C_37  and  C_38
REMARK   12  A    between atoms: C_37  and  C_39
REMARK   13  A    between atoms: C_37  and  C_40
REMARK                            x       y       z     vdW  Elec       q    Type
REMARK                         _______ _______ _______ _____ _____    ______ ____
ROOT
ATOM      1  C   UNL     1      -4.413  -4.400   0.048  0.00  0.00    +0.058 C 
ATOM      2  C   UNL     1      -4.548  -4.579   1.563  0.00  0.00    +0.009 C 
ATOM      3  C   UNL     1      -5.896  -5.237   1.871  0.00  0.00    -0.018 C 
ATOM      4  C   UNL     1      -5.993  -6.566   1.119  0.00  0.00    -0.078 C 
ATOM      5  N   UNL     1      -5.883  -6.324  -0.325  0.00  0.00    +0.386 N 
ATOM      6  C   UNL     1      -4.565  -5.760  -0.637  0.00  0.00    -0.065 C 
ATOM      7  H   UNL     1      -6.602  -5.677  -0.612  0.00  0.00    -0.081 HD
ENDROOT
BRANCH   1   9
ATOM      8  N   UNL     1      -2.699  -2.625   0.229  0.00  0.00    -0.308 N 
ATOM      9  C   UNL     1      -3.057  -3.824  -0.272  0.00  0.00    +0.215 C 
ATOM     10  O   UNL     1      -2.289  -4.439  -0.980  0.00  0.00    -0.276 OA
ATOM     11  H   UNL     1      -3.314  -2.133   0.795  0.00  0.00    +0.149 HD
BRANCH   8  15
ATOM     12  C   UNL     1      -0.019   1.526   0.010  0.00  0.00    +0.055 C 
ATOM     13  C   UNL     1       0.002  -0.004   0.002  0.00  0.00    +0.107 C 
ATOM     14  C   UNL     1      -1.435  -0.540   0.040  0.00  0.00    +0.074 C 
ATOM     15  C   UNL     1      -1.382  -2.065  -0.082  0.00  0.00    +0.110 C 
ATOM     16  C   UNL     1      -0.363  -2.616   0.884  0.00  0.00    +0.015 A 
ATOM     17  C   UNL     1      -0.415  -3.962   1.210  0.00  0.00    +0.012 A 
ATOM     18  C   UNL     1       0.502  -4.504   2.087  0.00  0.00    +0.046 A 
ATOM     19  C   UNL     1       1.485  -3.699   2.646  0.00  0.00    +0.124 A 
ATOM     20  C   UNL     1       1.540  -2.354   2.323  0.00  0.00    +0.091 A 
ATOM     21  C   UNL     1       0.613  -1.808   1.441  0.00  0.00    +0.130 A 
ATOM     22  O   UNL     1       0.692  -0.482   1.157  0.00  0.00    -0.486 OA
ATOM     23  C   UNL     1       0.706  -0.503  -1.262  0.00  0.00    +0.055 C 
BRANCH  19  24
ATOM     24  O   UNL     1       2.391  -4.230   3.508  0.00  0.00    -0.495 OA
ATOM     25  C   UNL     1       2.274  -5.625   3.795  0.00  0.00    +0.277 C 
ENDBRANCH  19  24
ENDBRANCH   8  15
ENDBRANCH   1   9
BRANCH   5  26
ATOM     26  C   UNL     1      -6.055  -7.593  -1.046  0.00  0.00    +0.022 C 
BRANCH  26  27
ATOM     27  C   UNL     1      -7.455  -8.107  -0.832  0.00  0.00    +0.211 A 
ATOM     28  N   UNL     1      -8.486  -7.841  -1.582  0.00  0.00    -0.193 NA
ATOM     29  C   UNL     1      -9.577  -8.464  -1.103  0.00  0.00    +0.202 A 
ATOM     30  N   UNL     1      -9.238  -9.138  -0.032  0.00  0.00    -0.056 NA
ATOM     31  O   UNL     1      -7.848  -8.919   0.157  0.00  0.00    -0.340 OA
BRANCH  29  32
ATOM     32  C   UNL     1     -10.939  -8.399  -1.689  0.00  0.00    +0.022 A 
ATOM     33  C   UNL     1     -11.170  -7.647  -2.839  0.00  0.00    +0.012 A 
ATOM     34  C   UNL     1     -12.439  -7.590  -3.380  0.00  0.00    +0.005 A 
ATOM     35  C   UNL     1     -13.480  -8.277  -2.782  0.00  0.00    -0.042 A 
ATOM     36  C   UNL     1     -13.256  -9.025  -1.640  0.00  0.00    +0.005 A 
ATOM     37  C   UNL     1     -11.990  -9.094  -1.095  0.00  0.00    +0.012 A 
BRANCH  35  38
ATOM     38  C   UNL     1     -14.863  -8.210  -3.377  0.00  0.00    -0.013 C 
ATOM     39  C   UNL     1     -14.831  -8.755  -4.806  0.00  0.00    +0.015 C 
ATOM     40  C   UNL     1     -15.822  -9.051  -2.532  0.00  0.00    +0.015 C 
ATOM     41  C   UNL     1     -15.340  -6.756  -3.396  0.00  0.00    +0.015 C 
ENDBRANCH  35  38
ENDBRANCH  29  32
ENDBRANCH  26  27
ENDBRANCH   5  26
TORSDOF 7
