REMARK  Name = ZINC36587994
REMARK  18 active torsions:
REMARK  status: ('A' for Active; 'I' for Inactive)
REMARK    1  A    between atoms: C_1  and  C_2
REMARK    2  A    between atoms: C_2  and  C_3
REMARK    3  A    between atoms: C_3  and  C_4
REMARK    4  A    between atoms: C_4  and  N_5
REMARK    5  A    between atoms: C_6  and  C_8
REMARK    6  A    between atoms: C_8  and  C_10
REMARK    7  A    between atoms: C_8  and  N_19
REMARK    8  A    between atoms: C_11  and  O_18
REMARK    9  A    between atoms: C_13  and  O_17
REMARK   10  A    between atoms: C_15  and  O_16
REMARK   11  A    between atoms: N_19  and  C_32
REMARK   12  A    between atoms: C_20  and  C_22
REMARK   13  A    between atoms: C_22  and  C_23
REMARK   14  A    between atoms: C_23  and  C_25
REMARK   15  A    between atoms: C_23  and  C_26
REMARK   16  A    between atoms: C_32  and  C_33
REMARK   17  A    between atoms: C_32  and  C_34
REMARK   18  A    between atoms: C_32  and  C_35
REMARK                            x       y       z     vdW  Elec       q    Type
REMARK                         _______ _______ _______ _____ _____    ______ ____
ROOT
ATOM      1  C   UNL     1       2.606  -3.950   3.329  0.00  0.00    +0.200 C 
ENDROOT
BRANCH   1   2
ATOM      2  C   UNL     1       2.247  -3.346   4.662  0.00  0.00    +0.065 A 
ATOM      3  C   UNL     1       2.874  -3.791   5.816  0.00  0.00    +0.129 A 
ATOM      4  C   UNL     1       2.544  -3.234   7.043  0.00  0.00    +0.091 A 
ATOM      5  C   UNL     1       1.587  -2.232   7.115  0.00  0.00    +0.124 A 
ATOM      6  C   UNL     1       0.961  -1.787   5.960  0.00  0.00    +0.091 A 
ATOM      7  C   UNL     1       1.294  -2.341   4.733  0.00  0.00    +0.129 A 
BRANCH   7   8
ATOM      8  O   UNL     1       0.684  -1.901   3.602  0.00  0.00    -0.506 OA
ATOM      9  H   UNL     1      -0.125  -2.381   3.379  0.00  0.00    +0.292 HD
ENDBRANCH   7   8
BRANCH   5  10
ATOM     10  O   UNL     1       1.263  -1.688   8.317  0.00  0.00    -0.507 OA
ATOM     11  H   UNL     1       1.800  -0.920   8.559  0.00  0.00    +0.292 HD
ENDBRANCH   5  10
BRANCH   3  12
ATOM     12  O   UNL     1       3.811  -4.772   5.745  0.00  0.00    -0.506 OA
ATOM     13  H   UNL     1       4.702  -4.451   5.551  0.00  0.00    +0.292 HD
ENDBRANCH   3  12
ENDBRANCH   1   2
BRANCH   1  15
ATOM     14  N   UNL     1       4.595  -2.632   2.678  0.00  0.00    -0.313 N 
ATOM     15  C   UNL     1       4.088  -3.809   3.095  0.00  0.00    +0.238 C 
ATOM     16  O   UNL     1       4.824  -4.754   3.283  0.00  0.00    -0.273 OA
ATOM     17  H   UNL     1       4.006  -1.876   2.528  0.00  0.00    +0.149 HD
BRANCH  14  18
ATOM     18  C   UNL     1       6.036  -2.495   2.451  0.00  0.00    +0.104 C 
BRANCH  18  19
ATOM     19  C   UNL     1       6.345  -1.071   1.985  0.00  0.00    +0.018 C 
BRANCH  19  21
ATOM     20  C   UNL     1       8.159   0.497   1.282  0.00  0.00    +0.004 C 
ATOM     21  C   UNL     1       7.850  -0.927   1.748  0.00  0.00    -0.002 C 
ENDBRANCH  19  21
ENDBRANCH  18  19
ENDBRANCH  14  18
ENDBRANCH   1  15
BRANCH   1  22
ATOM     22  N   UNL     1       2.244  -5.370   3.323  0.00  0.00    -0.281 N 
ATOM     23  C   UNL     1       1.681  -5.926   4.415  0.00  0.00    +0.217 C 
ATOM     24  O   UNL     1       1.365  -5.230   5.356  0.00  0.00    -0.276 OA
BRANCH  22  25
ATOM     25  C   UNL     1       2.494  -6.185   2.132  0.00  0.00    +0.030 C 
ATOM     26  C   UNL     1       3.321  -5.380   1.128  0.00  0.00    +0.031 C 
ATOM     27  C   UNL     1       3.261  -7.447   2.530  0.00  0.00    +0.031 C 
ATOM     28  C   UNL     1       1.159  -6.579   1.495  0.00  0.00    +0.031 C 
ENDBRANCH  22  25
BRANCH  23  29
ATOM     29  C   UNL     1       1.443  -7.413   4.465  0.00  0.00    +0.104 C 
BRANCH  29  30
ATOM     30  C   UNL     1       0.598  -7.754   5.694  0.00  0.00    +0.025 C 
ATOM     31  C   UNL     1       1.388  -7.427   6.963  0.00  0.00    +0.013 C 
BRANCH  30  32
ATOM     32  C   UNL     1       0.257  -9.222   5.678  0.00  0.00    -0.044 A 
ATOM     33  C   UNL     1       1.267 -10.166   5.701  0.00  0.00    +0.004 A 
ATOM     34  C   UNL     1       0.954 -11.512   5.687  0.00  0.00    +0.000 A 
ATOM     35  C   UNL     1      -0.368 -11.915   5.650  0.00  0.00    +0.000 A 
ATOM     36  C   UNL     1      -1.377 -10.970   5.628  0.00  0.00    +0.000 A 
ATOM     37  C   UNL     1      -1.065  -9.624   5.647  0.00  0.00    +0.004 A 
ENDBRANCH  30  32
ENDBRANCH  29  30
ENDBRANCH  23  29
ENDBRANCH   1  22
TORSDOF 13
