REMARK  Name = ZINC08727602
REMARK  9 active torsions:
REMARK  status: ('A' for Active; 'I' for Inactive)
REMARK    1  A    between atoms: C_1  and  C_2
REMARK    2  A    between atoms: C_2  and  C_4
REMARK    3  A    between atoms: C_2  and  N_68
REMARK    4  A    between atoms: N_6  and  C_7
REMARK    5  A    between atoms: C_7  and  C_8
REMARK    6  A    between atoms: C_8  and  C_9
REMARK    7  A    between atoms: C_12  and  S_15
REMARK    8  A    between atoms: S_15  and  N_18
REMARK    9  A    between atoms: C_21  and  C_24
REMARK                            x       y       z     vdW  Elec       q    Type
REMARK                         _______ _______ _______ _____ _____    ______ ____
ROOT
ATOM      1  C   UNL     1       4.984   3.990  -2.774  0.00  0.00    -0.004 C 
ATOM      2  C   UNL     1       5.132   3.119  -1.525  0.00  0.00    +0.016 C 
ENDROOT
BRANCH   2   8
ATOM      3  C   UNL     1       3.989   1.535  -0.096  0.00  0.00    -0.077 C 
ATOM      4  C   UNL     1       2.725   0.681   0.038  0.00  0.00    -0.006 C 
ATOM      5  C   UNL     1       1.505   1.599   0.153  0.00  0.00    +0.072 C 
ATOM      6  C   UNL     1       1.443   2.510  -1.076  0.00  0.00    -0.006 C 
ATOM      7  C   UNL     1       2.744   3.310  -1.179  0.00  0.00    -0.077 C 
ATOM      8  N   UNL     1       3.877   2.370  -1.311  0.00  0.00    +0.387 N 
ATOM      9  H   UNL     1       3.711   1.760  -2.120  0.00  0.00    -0.081 HD
BRANCH   5  10
ATOM     10  C   UNL     1       0.252   0.764   0.224  0.00  0.00    +0.219 C 
ATOM     11  O   UNL     1       0.281  -0.402  -0.107  0.00  0.00    -0.275 OA
ATOM     12  N   UNL     1      -0.901   1.315   0.652  0.00  0.00    -0.301 N 
ATOM     13  C   UNL     1      -2.060   0.465   0.806  0.00  0.00    +0.108 C 
ATOM     14  C   UNL     1      -2.850   0.409  -0.519  0.00  0.00    +0.019 C 
ATOM     15  C   UNL     1      -3.522   1.694  -0.767  0.00  0.00    +0.002 C 
ATOM     16  C   UNL     1      -2.573   2.876  -0.941  0.00  0.00    +0.002 C 
ATOM     17  C   UNL     1      -2.214   3.432   0.414  0.00  0.00    +0.019 C 
ATOM     18  C   UNL     1      -0.930   2.763   0.938  0.00  0.00    +0.108 C 
ENDBRANCH   5  10
ENDBRANCH   2   8
BRANCH   2  19
ATOM     19  C   UNL     1       5.436   3.994  -0.336  0.00  0.00    +0.199 C 
ATOM     20  O   UNL     1       4.609   4.138   0.538  0.00  0.00    -0.278 OA
ATOM     21  N   UNL     1       6.628   4.617  -0.245  0.00  0.00    -0.316 N 
ATOM     22  H   UNL     1       7.290   4.502  -0.945  0.00  0.00    +0.149 HD
BRANCH  21  23
ATOM     23  C   UNL     1       6.924   5.467   0.910  0.00  0.00    +0.109 C 
BRANCH  23  24
ATOM     24  C   UNL     1       8.332   6.049   0.768  0.00  0.00    +0.054 C 
BRANCH  24  25
ATOM     25  C   UNL     1       8.636   6.924   1.957  0.00  0.00    -0.046 A 
ATOM     26  C   UNL     1       8.332   8.271   1.920  0.00  0.00    +0.005 A 
ATOM     27  C   UNL     1       8.607   9.073   3.012  0.00  0.00    +0.029 A 
ATOM     28  C   UNL     1       9.195   8.529   4.138  0.00  0.00    +0.105 A 
ATOM     29  C   UNL     1       9.504   7.182   4.174  0.00  0.00    +0.029 A 
ATOM     30  C   UNL     1       9.225   6.380   3.083  0.00  0.00    +0.005 A 
BRANCH  28  31
ATOM     31  S   UNL     1       9.549   9.551   5.528  0.00  0.00    +0.056 S 
ATOM     32  O   UNL     1       8.666  10.662   5.452  0.00  0.00    -0.153 OA
ATOM     33  O   UNL     1       9.599   8.694   6.661  0.00  0.00    -0.153 OA
BRANCH  31  34
ATOM     34  N   UNL     1      11.080  10.149   5.319  0.00  0.00    -0.204 NA
ATOM     35  H   UNL     1      11.591   9.907   4.531  0.00  0.00    +0.144 HD
ATOM     36  H   UNL     1      11.464  10.740   5.985  0.00  0.00    +0.144 HD
ENDBRANCH  31  34
ENDBRANCH  28  31
ENDBRANCH  24  25
ENDBRANCH  23  24
ENDBRANCH  21  23
ENDBRANCH   2  19
TORSDOF 8
