REMARK  Name = ZINC29456586
REMARK  4 active torsions:
REMARK  status: ('A' for Active; 'I' for Inactive)
REMARK    1  A    between atoms: C_1  and  S_2
REMARK    2  A    between atoms: S_2  and  C_5
REMARK    3  A    between atoms: C_8  and  C_11
REMARK    4  A    between atoms: C_14  and  N_16
REMARK                            x       y       z     vdW  Elec       q    Type
REMARK                         _______ _______ _______ _____ _____    ______ ____
ROOT
ATOM      1  C   UNL     1       2.498  -3.015  -4.926  0.00  0.00    +0.080 A 
ATOM      2  C   UNL     1       3.834  -3.298  -4.873  0.00  0.00    +0.077 A 
ATOM      3  S   UNL     1       4.266  -3.196  -6.605  0.00  0.00    -0.056 S 
ATOM      4  C   UNL     1       2.637  -2.791  -7.219  0.00  0.00    +0.196 A 
ATOM      5  N   UNL     1       1.929  -2.774  -6.097  0.00  0.00    -0.221 NA
ENDROOT
BRANCH   4   6
ATOM      6  N   UNL     1       2.231  -2.566  -8.496  0.00  0.00    -0.189 NA
ATOM      7  C   UNL     1       0.998  -2.170  -8.735  0.00  0.00    +0.195 C 
ATOM      8  N   UNL     1       0.170  -1.843  -7.693  0.00  0.00    -0.370 N 
ATOM      9  N   UNL     1       0.543  -2.086 -10.025  0.00  0.00    -0.370 N 
ATOM     10  H   UNL     1       0.546  -1.552  -6.848  0.00  0.00    +0.159 HD
ATOM     11  H   UNL     1      -0.792  -1.901  -7.802  0.00  0.00    +0.159 HD
ATOM     12  H   UNL     1       1.129  -2.318 -10.762  0.00  0.00    +0.159 HD
ATOM     13  H   UNL     1      -0.365  -1.795 -10.201  0.00  0.00    +0.159 HD
ENDBRANCH   4   6
BRANCH   1  17
ATOM     14  C   UNL     1       0.182  -2.931  -1.361  0.00  0.00    +0.088 A 
ATOM     15  C   UNL     1      -0.420  -2.676  -2.580  0.00  0.00    +0.027 A 
ATOM     16  C   UNL     1       0.326  -2.702  -3.740  0.00  0.00    +0.012 A 
ATOM     17  C   UNL     1       1.690  -2.986  -3.682  0.00  0.00    +0.001 A 
ATOM     18  C   UNL     1       2.291  -3.241  -2.451  0.00  0.00    +0.012 A 
ATOM     19  C   UNL     1       1.536  -3.207  -1.297  0.00  0.00    +0.027 A 
BRANCH  14  21
ATOM     20  C   UNL     1      -0.692  -1.178   0.688  0.00  0.00    +0.200 C 
ATOM     21  S   UNL     1      -0.778  -2.897   0.116  0.00  0.00    -0.006 S 
ATOM     22  O   UNL     1      -0.085  -3.748   1.019  0.00  0.00    -0.170 OA
ATOM     23  O   UNL     1      -2.100  -3.208  -0.303  0.00  0.00    -0.170 OA
ENDBRANCH  14  21
ENDBRANCH   1  17
TORSDOF 3
