REMARK  Name = ZINC59170410
REMARK  7 active torsions:
REMARK  status: ('A' for Active; 'I' for Inactive)
REMARK    1  A    between atoms: C_1  and  C_2
REMARK    2  A    between atoms: C_5  and  N_8
REMARK    3  A    between atoms: C_9  and  C_11
REMARK    4  A    between atoms: C_16  and  O_32
REMARK    5  A    between atoms: N_21  and  C_22
REMARK    6  A    between atoms: C_25  and  S_28
REMARK    7  A    between atoms: S_28  and  N_31
REMARK                            x       y       z     vdW  Elec       q    Type
REMARK                         _______ _______ _______ _____ _____    ______ ____
ROOT
ATOM      1  C   UNL     1       0.361  -6.286   1.109  0.00  0.00    +0.098 A 
ATOM      2  C   UNL     1       0.364  -6.999   2.299  0.00  0.00    +0.030 A 
ATOM      3  C   UNL     1       0.461  -8.412   2.232  0.00  0.00    +0.018 A 
ATOM      4  C   UNL     1       0.268  -9.192   3.383  0.00  0.00    +0.015 A 
ATOM      5  C   UNL     1       0.321 -10.552   3.299  0.00  0.00    +0.046 A 
ATOM      6  C   UNL     1       0.575 -11.176   2.079  0.00  0.00    +0.120 A 
ATOM      7  C   UNL     1       0.788 -10.422   0.935  0.00  0.00    +0.092 A 
ATOM      8  C   UNL     1       0.744  -9.040   1.004  0.00  0.00    +0.141 A 
ATOM      9  O   UNL     1       0.994  -8.291  -0.100  0.00  0.00    -0.438 OA
ATOM     10  C   UNL     1       0.419  -7.060  -0.147  0.00  0.00    +0.212 A 
ATOM     11  N   UNL     1      -0.064  -6.572  -1.269  0.00  0.00    -0.325 N 
ATOM     12  H   UNL     1      -0.568  -5.744  -1.262  0.00  0.00    +0.169 HD
ENDROOT
BRANCH  11  13
ATOM     13  C   UNL     1       0.145  -7.234  -2.448  0.00  0.00    +0.042 A 
ATOM     14  C   UNL     1       1.411  -7.742  -2.752  0.00  0.00    +0.027 A 
ATOM     15  C   UNL     1       1.614  -8.409  -3.942  0.00  0.00    +0.030 A 
ATOM     16  C   UNL     1       0.569  -8.575  -4.834  0.00  0.00    +0.105 A 
ATOM     17  C   UNL     1      -0.687  -8.075  -4.539  0.00  0.00    +0.030 A 
ATOM     18  C   UNL     1      -0.906  -7.411  -3.350  0.00  0.00    +0.027 A 
BRANCH  16  19
ATOM     19  S   UNL     1       0.839  -9.427  -6.352  0.00  0.00    +0.056 S 
ATOM     20  O   UNL     1      -0.161  -8.975  -7.255  0.00  0.00    -0.153 OA
ATOM     21  O   UNL     1       2.227  -9.321  -6.636  0.00  0.00    -0.153 OA
BRANCH  19  22
ATOM     22  N   UNL     1       0.534 -11.031  -6.074  0.00  0.00    -0.204 NA
ATOM     23  H   UNL     1       0.263 -11.327  -5.191  0.00  0.00    +0.144 HD
ATOM     24  H   UNL     1       0.627 -11.675  -6.794  0.00  0.00    +0.144 HD
ENDBRANCH  19  22
ENDBRANCH  16  19
ENDBRANCH  11  13
BRANCH   1  26
ATOM     25  N   UNL     1       0.438  -4.143  -0.060  0.00  0.00    -0.281 N 
ATOM     26  C   UNL     1       0.296  -4.816   1.099  0.00  0.00    +0.253 C 
ATOM     27  O   UNL     1       0.115  -4.208   2.137  0.00  0.00    -0.270 OA
ATOM     28  H   UNL     1       0.528  -4.628  -0.895  0.00  0.00    +0.155 HD
BRANCH  25  33
ATOM     29  C   UNL     1       0.509   1.529  -0.058  0.00  0.00    +0.044 C 
ATOM     30  C   UNL     1       0.491   0.022  -0.059  0.00  0.00    -0.050 A 
ATOM     31  C   UNL     1       1.271  -0.677  -0.961  0.00  0.00    +0.005 A 
ATOM     32  C   UNL     1       1.256  -2.058  -0.964  0.00  0.00    +0.023 A 
ATOM     33  C   UNL     1       0.456  -2.744  -0.059  0.00  0.00    +0.034 A 
ATOM     34  C   UNL     1      -0.326  -2.039   0.846  0.00  0.00    +0.023 A 
ATOM     35  C   UNL     1      -0.302  -0.658   0.847  0.00  0.00    +0.005 A 
ENDBRANCH  25  33
ENDBRANCH   1  26
BRANCH   6  36
ATOM     36  O   UNL     1       0.613 -12.531   2.010  0.00  0.00    -0.507 OA
ATOM     37  H   UNL     1      -0.242 -12.939   1.818  0.00  0.00    +0.292 HD
ENDBRANCH   6  36
TORSDOF 6
