REMARK  Name = ZINC39867151
REMARK  7 active torsions:
REMARK  status: ('A' for Active; 'I' for Inactive)
REMARK    1  A    between atoms: C_9  and  C_11
REMARK    2  A    between atoms: C_13  and  C_21
REMARK    3  A    between atoms: C_21  and  C_22
REMARK    4  A    between atoms: C_22  and  C_23
REMARK    5  A    between atoms: C_23  and  C_24
REMARK    6  A    between atoms: N_26  and  N_27
REMARK    7  A    between atoms: C_28  and  C_30
REMARK                            x       y       z     vdW  Elec       q    Type
REMARK                         _______ _______ _______ _____ _____    ______ ____
ROOT
ATOM      1  C   UNL     1       4.997  -2.557  -0.060  0.00  0.00    +0.069 A 
ATOM      2  H   UNL     1       4.602  -4.419   0.805  0.00  0.00    +0.166 HD
ATOM      3  C   UNL     1       6.142  -2.005  -0.537  0.00  0.00    -0.013 A 
ATOM      4  C   UNL     1       7.199  -2.998  -0.359  0.00  0.00    +0.003 A 
ATOM      5  C   UNL     1       8.567  -3.018  -0.649  0.00  0.00    +0.010 A 
ATOM      6  C   UNL     1       9.307  -4.127  -0.353  0.00  0.00    +0.001 A 
ATOM      7  C   UNL     1       8.712  -5.236   0.234  0.00  0.00    +0.002 A 
ATOM      8  C   UNL     1       7.366  -5.239   0.528  0.00  0.00    +0.026 A 
ATOM      9  C   UNL     1       6.591  -4.120   0.236  0.00  0.00    +0.047 A 
ATOM     10  N   UNL     1       5.259  -3.824   0.411  0.00  0.00    -0.353 N 
ENDROOT
BRANCH   1  19
ATOM     11  C   UNL     1      -0.016   1.358   0.009  0.00  0.00    +0.001 A 
ATOM     12  C   UNL     1       1.169   2.089   0.002  0.00  0.00    +0.002 A 
ATOM     13  C   UNL     1       2.379   1.465  -0.013  0.00  0.00    +0.028 A 
ATOM     14  C   UNL     1       2.439   0.060  -0.021  0.00  0.00    +0.072 A 
ATOM     15  C   UNL     1       1.231  -0.682  -0.013  0.00  0.00    +0.000 A 
ATOM     16  C   UNL     1       0.002  -0.004   0.002  0.00  0.00    +0.010 A 
ATOM     17  C   UNL     1       1.289  -2.090  -0.021  0.00  0.00    +0.012 A 
ATOM     18  C   UNL     1       2.513  -2.687  -0.036  0.00  0.00    +0.030 A 
ATOM     19  C   UNL     1       3.676  -1.897  -0.044  0.00  0.00    +0.088 A 
ATOM     20  N   UNL     1       3.613  -0.577  -0.036  0.00  0.00    -0.245 NA
ENDBRANCH   1  19
BRANCH   3  21
ATOM     21  C   UNL     1       6.293  -0.631  -1.137  0.00  0.00    +0.038 C 
BRANCH  21  22
ATOM     22  C   UNL     1       6.630   0.373  -0.033  0.00  0.00    +0.014 C 
BRANCH  22  23
ATOM     23  C   UNL     1       6.784   1.769  -0.641  0.00  0.00    +0.097 C 
BRANCH  23  24
ATOM     24  C   UNL     1       7.115   2.758   0.447  0.00  0.00    +0.229 C 
ATOM     25  O   UNL     1       7.218   2.383   1.596  0.00  0.00    -0.274 OA
ATOM     26  N   UNL     1       7.296   4.058   0.143  0.00  0.00    -0.234 N 
ATOM     27  H   UNL     1       7.214   4.357  -0.776  0.00  0.00    +0.173 HD
BRANCH  26  28
ATOM     28  N   UNL     1       7.604   4.977   1.154  0.00  0.00    -0.230 N 
ATOM     29  C   UNL     1       7.786   6.278   0.850  0.00  0.00    +0.262 C 
ATOM     30  O   UNL     1       7.683   6.653  -0.302  0.00  0.00    -0.269 OA
ATOM     31  H   UNL     1       7.687   4.678   2.073  0.00  0.00    +0.173 HD
BRANCH  29  32
ATOM     32  C   UNL     1       8.111   7.247   1.916  0.00  0.00    +0.057 A 
ATOM     33  C   UNL     1       8.236   6.818   3.240  0.00  0.00    +0.016 A 
ATOM     34  C   UNL     1       8.539   7.727   4.230  0.00  0.00    +0.021 A 
ATOM     35  C   UNL     1       8.720   9.065   3.916  0.00  0.00    +0.042 A 
ATOM     36  C   UNL     1       8.598   9.498   2.607  0.00  0.00    +0.040 A 
ATOM     37  C   UNL     1       8.300   8.596   1.604  0.00  0.00    +0.054 A 
ATOM     38 CL   UNL     1       8.154   9.138  -0.038  0.00  0.00    -0.083 Cl
ATOM     39 CL   UNL     1       9.102  10.203   5.170  0.00  0.00    -0.083 Cl
ENDBRANCH  29  32
ENDBRANCH  26  28
ENDBRANCH  23  24
ENDBRANCH  22  23
ENDBRANCH  21  22
ENDBRANCH   3  21
TORSDOF 7
