REMARK  Name = ZINC08645567
REMARK  7 active torsions:
REMARK  status: ('A' for Active; 'I' for Inactive)
REMARK    1  A    between atoms: C_1  and  C_2
REMARK    2  A    between atoms: N_4  and  C_5
REMARK    3  A    between atoms: C_8  and  N_11
REMARK    4  A    between atoms: C_12  and  C_14
REMARK    5  A    between atoms: C_14  and  N_15
REMARK    6  A    between atoms: C_18  and  C_22
REMARK    7  A    between atoms: C_18  and  C_23
REMARK                            x       y       z     vdW  Elec       q    Type
REMARK                         _______ _______ _______ _____ _____    ______ ____
ROOT
ATOM      1  N   UNL     1       4.054   5.896  -0.030  0.00  0.00    -0.215 N 
ATOM      2  C   UNL     1       4.004   6.603   1.116  0.00  0.00    +0.251 C 
ATOM      3  O   UNL     1       4.285   6.215   2.229  0.00  0.00    -0.272 OA
ATOM      4  C   UNL     1       3.525   7.986   0.722  0.00  0.00    +0.136 C 
ATOM      5  N   UNL     1       3.343   7.888  -0.736  0.00  0.00    -0.281 N 
ATOM      6  C   UNL     1       3.682   6.633  -1.082  0.00  0.00    +0.310 C 
ATOM      7  O   UNL     1       3.649   6.215  -2.223  0.00  0.00    -0.252 OA
ATOM      8  C   UNL     1       4.581   9.039   1.064  0.00  0.00    +0.047 C 
ATOM      9  H   UNL     1       3.042   8.592  -1.331  0.00  0.00    +0.152 HD
ENDROOT
BRANCH   4  10
ATOM     10  C   UNL     1       2.219   8.308   1.402  0.00  0.00    -0.008 A 
ATOM     11  C   UNL     1       1.096   8.517   0.662  0.00  0.00    +0.007 A 
ATOM     12  C   UNL     1      -0.121   8.816   1.272  0.00  0.00    +0.001 A 
ATOM     13  C   UNL     1      -0.221   8.906   2.627  0.00  0.00    +0.008 A 
ATOM     14  C   UNL     1       0.916   8.696   3.424  0.00  0.00    -0.018 A 
ATOM     15  C   UNL     1       2.153   8.388   2.803  0.00  0.00    -0.012 A 
ATOM     16  C   UNL     1       3.292   8.184   3.600  0.00  0.00    +0.009 A 
ATOM     17  C   UNL     1       3.191   8.274   4.955  0.00  0.00    +0.001 A 
ATOM     18  C   UNL     1       1.974   8.572   5.565  0.00  0.00    +0.001 A 
ATOM     19  C   UNL     1       0.852   8.781   4.825  0.00  0.00    +0.008 A 
ENDBRANCH   4  10
BRANCH   1  20
ATOM     20  C   UNL     1       4.471   4.494  -0.114  0.00  0.00    +0.214 C 
BRANCH  20  22
ATOM     21  N   UNL     1       3.412   2.262   0.011  0.00  0.00    -0.284 N 
ATOM     22  C   UNL     1       3.268   3.601   0.053  0.00  0.00    +0.235 C 
ATOM     23  O   UNL     1       2.171   4.088   0.225  0.00  0.00    -0.274 OA
ATOM     24  H   UNL     1       4.297   1.871  -0.053  0.00  0.00    +0.155 HD
BRANCH  21  28
ATOM     25  C   UNL     1       0.051  -0.202   0.155  0.00  0.00    +0.033 A 
ATOM     26  C   UNL     1       1.238  -0.612   0.746  0.00  0.00    +0.025 A 
ATOM     27  C   UNL     1       2.351   0.203   0.699  0.00  0.00    +0.025 A 
ATOM     28  C   UNL     1       2.283   1.434   0.059  0.00  0.00    +0.034 A 
ATOM     29  C   UNL     1       1.095   1.845  -0.532  0.00  0.00    +0.025 A 
ATOM     30  C   UNL     1      -0.018   1.029  -0.485  0.00  0.00    +0.025 A 
BRANCH  25  34
ATOM     31  C   UNL     1      -3.513  -1.379   0.470  0.00  0.00    +0.109 C 
ATOM     32  C   UNL     1      -2.307  -0.488   0.317  0.00  0.00    +0.214 C 
ATOM     33  O   UNL     1      -2.442   0.718   0.298  0.00  0.00    -0.276 OA
ATOM     34  N   UNL     1      -1.079  -1.030   0.202  0.00  0.00    -0.286 N 
ATOM     35  H   UNL     1      -0.976  -1.993   0.153  0.00  0.00    +0.155 HD
ENDBRANCH  25  34
ENDBRANCH  21  28
ENDBRANCH  20  22
ENDBRANCH   1  20
TORSDOF 5
