REMARK  Name = ZINC20858262
REMARK  10 active torsions:
REMARK  status: ('A' for Active; 'I' for Inactive)
REMARK    1  A    between atoms: C_1  and  C_2
REMARK    2  A    between atoms: C_5  and  S_9
REMARK    3  A    between atoms: C_6  and  C_8
REMARK    4  A    between atoms: S_9  and  C_12
REMARK    5  A    between atoms: C_12  and  C_13
REMARK    6  A    between atoms: C_14  and  C_28
REMARK    7  A    between atoms: C_15  and  C_21
REMARK    8  A    between atoms: C_24  and  O_27
REMARK    9  A    between atoms: C_28  and  O_30
REMARK   10  A    between atoms: O_30  and  C_31
REMARK                            x       y       z     vdW  Elec       q    Type
REMARK                         _______ _______ _______ _____ _____    ______ ____
ROOT
ATOM      1  C   UNL     1       0.098   1.528  -0.204  0.00  0.00    +0.045 C 
ATOM      2  C   UNL     1       1.171   2.249   0.186  0.00  0.00    +0.080 C 
ATOM      3  C   UNL     1       0.974   3.732   0.428  0.00  0.00    +0.144 C 
ATOM      4  N   UNL     1      -0.382   4.269   0.216  0.00  0.00    -0.288 N 
ATOM      5  C   UNL     1      -1.353   3.420  -0.175  0.00  0.00    +0.304 C 
ATOM      6  O   UNL     1      -2.475   3.853  -0.352  0.00  0.00    -0.252 OA
ATOM      7  N   UNL     1      -1.122   2.118  -0.379  0.00  0.00    -0.271 N 
ATOM      8  H   UNL     1      -0.581   5.338   0.377  0.00  0.00    +0.151 HD
ATOM      9  H   UNL     1      -1.982   1.515  -0.707  0.00  0.00    +0.156 HD
ENDROOT
BRANCH   3  10
ATOM     10  C   UNL     1       1.916   4.480  -0.479  0.00  0.00    -0.022 A 
ATOM     11  C   UNL     1       1.592   4.664  -1.811  0.00  0.00    +0.009 A 
ATOM     12  C   UNL     1       2.452   5.354  -2.643  0.00  0.00    +0.046 A 
ATOM     13  C   UNL     1       3.647   5.853  -2.145  0.00  0.00    +0.117 A 
ATOM     14  C   UNL     1       3.972   5.662  -0.809  0.00  0.00    +0.046 A 
ATOM     15  C   UNL     1       3.106   4.976   0.020  0.00  0.00    +0.009 A 
BRANCH  13  16
ATOM     16  O   UNL     1       4.497   6.526  -2.963  0.00  0.00    -0.507 OA
ATOM     17  H   UNL     1       5.444   6.921  -2.567  0.00  0.00    +0.292 HD
ENDBRANCH  13  16
ENDBRANCH   3  10
BRANCH   2  18
ATOM     18  C   UNL     1       2.436   1.641   0.363  0.00  0.00    +0.339 C 
ATOM     19  O   UNL     1       2.545   0.432   0.290  0.00  0.00    -0.245 OA
BRANCH  18  20
ATOM     20  O   UNL     1       3.521   2.403   0.612  0.00  0.00    -0.465 OA
ATOM     21  C   UNL     1       4.767   1.722   0.779  0.00  0.00    +0.280 C 
ENDBRANCH  18  20
ENDBRANCH   2  18
BRANCH   1  22
ATOM     22  C   UNL     1       0.249   0.050  -0.455  0.00  0.00    +0.223 C 
BRANCH  22  23
ATOM     23  S   UNL     1      -0.134  -0.864   1.064  0.00  0.00    +0.002 S 
ATOM     24  O   UNL     1       0.857  -0.611   2.051  0.00  0.00    -0.169 OA
ATOM     25  O   UNL     1      -1.515  -0.740   1.375  0.00  0.00    -0.169 OA
BRANCH  23  30
ATOM     26  C   UNL     1       0.599  -6.673  -0.396  0.00  0.00    +0.044 C 
ATOM     27  C   UNL     1       0.416  -5.222  -0.031  0.00  0.00    -0.050 A 
ATOM     28  C   UNL     1       1.248  -4.634   0.903  0.00  0.00    +0.005 A 
ATOM     29  C   UNL     1       1.082  -3.302   1.235  0.00  0.00    +0.027 A 
ATOM     30  C   UNL     1       0.080  -2.560   0.638  0.00  0.00    +0.091 A 
ATOM     31  C   UNL     1      -0.751  -3.148  -0.297  0.00  0.00    -0.025 A 
ATOM     32  C   UNL     1      -0.584  -4.479  -0.631  0.00  0.00    +0.008 A 
ATOM     33  C   UNL     1      -1.841  -2.338  -0.952  0.00  0.00    +0.046 C 
ENDBRANCH  23  30
ENDBRANCH  22  23
ENDBRANCH   1  22
TORSDOF 7
