REMARK  Name = ZINC19855045
REMARK  11 active torsions:
REMARK  status: ('A' for Active; 'I' for Inactive)
REMARK    1  A    between atoms: C_1  and  C_2
REMARK    2  A    between atoms: C_3  and  C_26
REMARK    3  A    between atoms: C_4  and  C_16
REMARK    4  A    between atoms: C_10  and  C_14
REMARK    5  A    between atoms: C_10  and  C_15
REMARK    6  A    between atoms: C_18  and  O_24
REMARK    7  A    between atoms: C_19  and  O_23
REMARK    8  A    between atoms: O_24  and  C_25
REMARK    9  A    between atoms: C_26  and  O_28
REMARK   10  A    between atoms: O_28  and  C_29
REMARK   11  A    between atoms: C_29  and  C_30
REMARK                            x       y       z     vdW  Elec       q    Type
REMARK                         _______ _______ _______ _____ _____    ______ ____
ROOT
ATOM      1  C   UNL     1       4.963   2.653   2.462  0.00  0.00    +0.061 C 
ATOM      2  C   UNL     1       4.253   2.291   1.183  0.00  0.00    +0.016 C 
ATOM      3  C   UNL     1       3.411   1.244   1.160  0.00  0.00    +0.065 C 
ATOM      4  C   UNL     1       2.681   0.858  -0.093  0.00  0.00    +0.092 C 
ATOM      5  C   UNL     1       3.328   1.477  -1.306  0.00  0.00    +0.024 C 
ATOM      6  C   UNL     1       4.172   2.522  -1.182  0.00  0.00    +0.016 C 
ATOM      7  N   UNL     1       4.469   3.031   0.054  0.00  0.00    -0.321 N 
ATOM      8  C   UNL     1       4.806   3.158  -2.394  0.00  0.00    +0.058 C 
ATOM      9  C   UNL     1       5.006   2.103  -3.482  0.00  0.00    -0.023 C 
ATOM     10  C   UNL     1       3.642   1.494  -3.823  0.00  0.00    +0.086 C 
ATOM     11  C   UNL     1       3.027   0.936  -2.569  0.00  0.00    +0.162 C 
ATOM     12  O   UNL     1       2.258  -0.001  -2.648  0.00  0.00    -0.292 OA
ATOM     13  C   UNL     1       5.945   1.008  -2.972  0.00  0.00    +0.011 C 
ATOM     14  C   UNL     1       5.605   2.754  -4.730  0.00  0.00    +0.011 C 
ATOM     15  H   UNL     1       4.885   4.046   0.133  0.00  0.00    +0.152 HD
ENDROOT
BRANCH   4  16
ATOM     16  C   UNL     1       1.253   1.329   0.002  0.00  0.00    -0.030 A 
ATOM     17  C   UNL     1       0.219   0.412  -0.048  0.00  0.00    +0.054 A 
ATOM     18  C   UNL     1      -1.095   0.844   0.033  0.00  0.00    +0.163 A 
ATOM     19  C   UNL     1      -1.371   2.200   0.175  0.00  0.00    +0.173 A 
ATOM     20  C   UNL     1      -0.331   3.115   0.224  0.00  0.00    +0.063 A 
ATOM     21  C   UNL     1       0.979   2.677   0.137  0.00  0.00    +0.023 A 
ATOM     22 BR   UNL     1      -0.701   4.960   0.407  0.00  0.00    -0.046 Br
BRANCH  19  23
ATOM     23  O   UNL     1      -2.659   2.628   0.259  0.00  0.00    -0.503 OA
ATOM     24  H   UNL     1      -2.876   3.701   0.372  0.00  0.00    +0.292 HD
ENDBRANCH  19  23
BRANCH  18  25
ATOM     25  O   UNL     1      -2.112  -0.057  -0.022  0.00  0.00    -0.491 OA
ATOM     26  C   UNL     1      -1.754  -1.433  -0.163  0.00  0.00    +0.277 C 
ENDBRANCH  18  25
ENDBRANCH   4  16
BRANCH   3  27
ATOM     27  C   UNL     1       3.210   0.490   2.340  0.00  0.00    +0.338 C 
ATOM     28  O   UNL     1       3.885   0.714   3.328  0.00  0.00    -0.245 OA
BRANCH  27  29
ATOM     29  O   UNL     1       2.269  -0.477   2.371  0.00  0.00    -0.457 OA
BRANCH  29  30
ATOM     30  C   UNL     1       2.120  -1.199   3.595  0.00  0.00    +0.268 C 
BRANCH  30  31
ATOM     31  C   UNL     1       1.032  -2.230   3.442  0.00  0.00    -0.010 A 
ATOM     32  C   UNL     1      -0.277  -1.905   3.749  0.00  0.00    +0.007 A 
ATOM     33  C   UNL     1      -1.276  -2.849   3.603  0.00  0.00    +0.000 A 
ATOM     34  C   UNL     1      -0.965  -4.121   3.160  0.00  0.00    +0.000 A 
ATOM     35  C   UNL     1       0.344  -4.447   2.858  0.00  0.00    +0.000 A 
ATOM     36  C   UNL     1       1.342  -3.502   2.999  0.00  0.00    +0.007 A 
ENDBRANCH  30  31
ENDBRANCH  29  30
ENDBRANCH  27  29
ENDBRANCH   3  27
TORSDOF 7
