REMARK  Name = ZINC19848731
REMARK  6 active torsions:
REMARK  status: ('A' for Active; 'I' for Inactive)
REMARK    1  A    between atoms: C_4  and  C_7
REMARK    2  A    between atoms: C_7  and  C_8
REMARK    3  A    between atoms: C_8  and  C_9
REMARK    4  A    between atoms: C_11  and  C_29
REMARK    5  A    between atoms: C_11  and  C_33
REMARK    6  A    between atoms: N_19  and  C_22
REMARK                            x       y       z     vdW  Elec       q    Type
REMARK                         _______ _______ _______ _____ _____    ______ ____
ROOT
ATOM      1  C   UNL     1       6.672  -0.652   1.551  0.00  0.00    +0.097 C 
ATOM      2  N   UNL     1       7.335  -1.037   0.522  0.00  0.00    -0.244 NA
ATOM      3  C   UNL     1       8.146  -2.247   0.501  0.00  0.00    +0.285 C 
ATOM      4  C   UNL     1       7.801  -3.151   1.650  0.00  0.00    +0.100 A 
ATOM      5  C   UNL     1       8.209  -4.496   1.645  0.00  0.00    +0.262 A 
ATOM      6  O   UNL     1       8.844  -4.943   0.705  0.00  0.00    -0.267 OA
ATOM      7  N   UNL     1       7.892  -5.288   2.689  0.00  0.00    -0.274 N 
ATOM      8  H   UNL     1       8.172  -6.217   2.689  0.00  0.00    +0.173 HD
ATOM      9  C   UNL     1       7.192  -4.803   3.731  0.00  0.00    +0.335 A 
ATOM     10  O   UNL     1       6.921  -5.536   4.663  0.00  0.00    -0.246 OA
ATOM     11  N   UNL     1       6.789  -3.519   3.758  0.00  0.00    -0.250 N 
ATOM     12  C   UNL     1       7.089  -2.680   2.713  0.00  0.00    +0.124 A 
ATOM     13  N   UNL     1       6.678  -1.366   2.724  0.00  0.00    -0.289 N 
ATOM     14  H   UNL     1       6.392  -0.948   3.551  0.00  0.00    +0.155 HD
ENDROOT
BRANCH  11  15
ATOM     15  C   UNL     1       6.061  -3.037   4.855  0.00  0.00    +0.053 A 
ATOM     16  C   UNL     1       4.674  -3.095   4.848  0.00  0.00    +0.029 A 
ATOM     17  C   UNL     1       3.959  -2.620   5.930  0.00  0.00    +0.040 A 
ATOM     18  C   UNL     1       4.624  -2.086   7.020  0.00  0.00    +0.124 A 
ATOM     19  C   UNL     1       6.008  -2.027   7.029  0.00  0.00    +0.040 A 
ATOM     20  C   UNL     1       6.727  -2.507   5.952  0.00  0.00    +0.029 A 
ATOM     21  F   UNL     1       3.923  -1.621   8.077  0.00  0.00    -0.205 F 
ENDBRANCH  11  15
BRANCH   3  22
ATOM     22  C   UNL     1       7.902  -2.992  -0.814  0.00  0.00    +0.428 C 
ATOM     23  F   UNL     1       7.886  -2.076  -1.872  0.00  0.00    -0.167 F 
ATOM     24  F   UNL     1       8.925  -3.923  -1.018  0.00  0.00    -0.167 F 
ATOM     25  F   UNL     1       6.672  -3.655  -0.753  0.00  0.00    -0.167 F 
ENDBRANCH   3  22
BRANCH   3  26
ATOM     26  C   UNL     1       9.624  -1.862   0.591  0.00  0.00    +0.428 C 
ATOM     27  F   UNL     1       9.852  -1.164   1.782  0.00  0.00    -0.167 F 
ATOM     28  F   UNL     1      10.409  -3.020   0.572  0.00  0.00    -0.167 F 
ATOM     29  F   UNL     1       9.962  -1.051  -0.497  0.00  0.00    -0.167 F 
ENDBRANCH   3  26
BRANCH   1  30
ATOM     30  C   UNL     1       5.870   0.622   1.473  0.00  0.00    +0.076 C 
BRANCH  30  31
ATOM     31  C   UNL     1       6.019   1.233   0.078  0.00  0.00    +0.042 C 
BRANCH  31  35
ATOM     32  C   UNL     1       3.747   4.843  -0.147  0.00  0.00    +0.000 A 
ATOM     33  C   UNL     1       5.066   4.881   0.264  0.00  0.00    +0.000 A 
ATOM     34  C   UNL     1       5.801   3.713   0.337  0.00  0.00    +0.003 A 
ATOM     35  C   UNL     1       5.217   2.506  -0.001  0.00  0.00    -0.047 A 
ATOM     36  C   UNL     1       3.897   2.468  -0.411  0.00  0.00    +0.003 A 
ATOM     37  C   UNL     1       3.162   3.637  -0.485  0.00  0.00    +0.000 A 
ENDBRANCH  31  35
ENDBRANCH  30  31
ENDBRANCH   1  30
TORSDOF 6
