REMARK  Name = ZINC06421717
REMARK  8 active torsions:
REMARK  status: ('A' for Active; 'I' for Inactive)
REMARK    1  A    between atoms: C_1  and  C_2
REMARK    2  A    between atoms: C_2  and  C_4
REMARK    3  A    between atoms: C_2  and  N_12
REMARK    4  A    between atoms: C_13  and  C_15
REMARK    5  A    between atoms: C_15  and  O_16
REMARK    6  A    between atoms: O_16  and  C_17
REMARK    7  A    between atoms: C_17  and  C_19
REMARK    8  A    between atoms: C_23  and  N_25
REMARK                            x       y       z     vdW  Elec       q    Type
REMARK                         _______ _______ _______ _____ _____    ______ ____
ROOT
ATOM      1  N   UNL     1       2.329   5.747   0.900  0.00  0.00    -0.306 N 
ATOM      2  C   UNL     1       3.435   6.283   1.452  0.00  0.00    +0.251 C 
ATOM      3  O   UNL     1       4.525   5.810   1.208  0.00  0.00    -0.272 OA
ATOM      4  H   UNL     1       1.457   6.125   1.095  0.00  0.00    +0.149 HD
ENDROOT
BRANCH   1   6
ATOM      5  C   UNL     1       2.739   5.077  -1.416  0.00  0.00    +0.033 C 
ATOM      6  C   UNL     1       2.442   4.593   0.004  0.00  0.00    +0.100 C 
BRANCH   6   7
ATOM      7  C   UNL     1       1.148   3.822   0.012  0.00  0.00    -0.026 A 
ATOM      8  C   UNL     1      -0.059   4.497   0.028  0.00  0.00    +0.007 A 
ATOM      9  C   UNL     1      -1.247   3.791   0.035  0.00  0.00    +0.022 A 
ATOM     10  C   UNL     1      -1.230   2.408   0.021  0.00  0.00    +0.059 A 
ATOM     11  C   UNL     1      -0.021   1.732   0.012  0.00  0.00    +0.060 A 
ATOM     12  C   UNL     1       1.167   2.440   0.004  0.00  0.00    +0.027 A 
ATOM     13 CL   UNL     1       0.002  -0.004   0.002  0.00  0.00    -0.082 Cl
ATOM     14 CL   UNL     1      -2.722   1.521   0.023  0.00  0.00    -0.082 Cl
ENDBRANCH   6   7
ENDBRANCH   1   6
BRANCH   2  15
ATOM     15  C   UNL     1       3.319   7.470   2.374  0.00  0.00    +0.328 C 
BRANCH  15  16
ATOM     16  O   UNL     1       4.640   7.857   2.834  0.00  0.00    -0.452 OA
BRANCH  16  17
ATOM     17  C   UNL     1       4.712   8.909   3.672  0.00  0.00    +0.340 C 
ATOM     18  O   UNL     1       3.698   9.488   4.008  0.00  0.00    -0.245 OA
BRANCH  17  19
ATOM     19  C   UNL     1       6.023   9.360   4.181  0.00  0.00    +0.061 A 
ATOM     20  C   UNL     1       7.189   8.693   3.800  0.00  0.00    +0.016 A 
ATOM     21  C   UNL     1       8.413   9.118   4.272  0.00  0.00    +0.022 A 
ATOM     22  C   UNL     1       8.490  10.200   5.133  0.00  0.00    +0.062 A 
ATOM     23  C   UNL     1       7.333  10.867   5.523  0.00  0.00    +0.044 A 
ATOM     24  C   UNL     1       6.100  10.450   5.049  0.00  0.00    +0.039 A 
ATOM     25 CL   UNL     1      10.034  10.724   5.727  0.00  0.00    -0.082 Cl
BRANCH  23  26
ATOM     26  N   UNL     1       7.416  11.959   6.392  0.00  0.00    -0.357 N 
ATOM     27  H   UNL     1       6.609  12.425   6.663  0.00  0.00    +0.142 HD
ATOM     28  H   UNL     1       8.279  12.251   6.723  0.00  0.00    +0.142 HD
ENDBRANCH  23  26
ENDBRANCH  17  19
ENDBRANCH  16  17
ENDBRANCH  15  16
ENDBRANCH   2  15
TORSDOF 7
