REMARK  Name = ZINC15678261
REMARK  7 active torsions:
REMARK  status: ('A' for Active; 'I' for Inactive)
REMARK    1  A    between atoms: C_1  and  C_2
REMARK    2  A    between atoms: C_2  and  C_25
REMARK    3  A    between atoms: C_5  and  C_20
REMARK    4  A    between atoms: N_11  and  C_12
REMARK    5  A    between atoms: C_12  and  C_13
REMARK    6  A    between atoms: C_13  and  N_78
REMARK    7  A    between atoms: N_27  and  C_28
REMARK                            x       y       z     vdW  Elec       q    Type
REMARK                         _______ _______ _______ _____ _____    ______ ____
ROOT
ATOM      1  C   UNL     1       0.020  -0.905   7.123  0.00  0.00    +0.043 C 
ATOM      2  C   UNL     1      -0.281  -1.339   5.687  0.00  0.00    +0.128 C 
ATOM      3  C   UNL     1       0.168  -2.791   5.498  0.00  0.00    +0.157 C 
ATOM      4  N   UNL     1       1.632  -2.835   5.436  0.00  0.00    -0.331 N 
ATOM      5  C   UNL     1       2.491  -3.818   5.797  0.00  0.00    +0.085 A 
ATOM      6  C   UNL     1       3.780  -3.393   5.513  0.00  0.00    +0.032 A 
ATOM      7  C   UNL     1       3.695  -2.110   4.971  0.00  0.00    +0.033 A 
ATOM      8  C   UNL     1       2.373  -1.767   4.941  0.00  0.00    +0.105 A 
ATOM      9  C   UNL     1       1.708  -0.544   4.479  0.00  0.00    +0.264 C 
ATOM     10  O   UNL     1       2.309   0.321   3.867  0.00  0.00    -0.268 OA
ATOM     11  N   UNL     1       0.391  -0.427   4.768  0.00  0.00    -0.282 N 
ENDROOT
BRANCH   5  12
ATOM     12  C   UNL     1       2.122  -5.112   6.387  0.00  0.00    +0.151 A 
ATOM     13  C   UNL     1       2.989  -6.066   6.834  0.00  0.00    +0.051 A 
ATOM     14  C   UNL     1       2.205  -7.130   7.318  0.00  0.00    +0.042 A 
ATOM     15  C   UNL     1       0.914  -6.785   7.139  0.00  0.00    +0.196 A 
ATOM     16  O   UNL     1       0.867  -5.567   6.577  0.00  0.00    -0.461 OA
ENDBRANCH   5  12
BRANCH   2  17
ATOM     17  C   UNL     1      -1.768  -1.254   5.457  0.00  0.00    +0.238 C 
ATOM     18  O   UNL     1      -2.322  -2.079   4.761  0.00  0.00    -0.273 OA
ATOM     19  N   UNL     1      -2.482  -0.262   6.025  0.00  0.00    -0.311 N 
ATOM     20  H   UNL     1      -2.031   0.437   6.523  0.00  0.00    +0.149 HD
BRANCH  19  21
ATOM     21  C   UNL     1      -3.941  -0.240   5.889  0.00  0.00    +0.073 C 
ATOM     22  C   UNL     1      -4.319   0.369   4.537  0.00  0.00    +0.022 C 
ATOM     23  C   UNL     1      -5.778   0.039   4.219  0.00  0.00    +0.002 C 
ATOM     24  C   UNL     1      -6.053  -1.429   4.548  0.00  0.00    +0.000 C 
ATOM     25  C   UNL     1      -7.025  -1.514   5.727  0.00  0.00    +0.000 C 
ATOM     26  C   UNL     1      -6.280  -1.196   7.025  0.00  0.00    +0.000 C 
ATOM     27  C   UNL     1      -6.043   0.312   7.121  0.00  0.00    +0.002 C 
ATOM     28  C   UNL     1      -4.545   0.602   7.015  0.00  0.00    +0.022 C 
ENDBRANCH  19  21
ENDBRANCH   2  17
BRANCH  11  29
ATOM     29  C   UNL     1      -0.382   0.650   4.144  0.00  0.00    +0.091 C 
BRANCH  29  30
ATOM     30  C   UNL     1      -0.840   0.209   2.752  0.00  0.00    -0.060 C 
BRANCH  30  37
ATOM     31  C   UNL     1      -0.683   2.442   1.806  0.00  0.00    -0.079 C 
ATOM     32  C   UNL     1       0.029   2.283   0.490  0.00  0.00    -0.019 C 
ATOM     33  C   UNL     1      -0.793   2.994  -0.605  0.00  0.00    -0.002 C 
ATOM     34  C   UNL     1      -1.936   2.198  -1.040  0.00  0.00    -0.002 C 
ATOM     35  C   UNL     1      -2.924   1.919   0.111  0.00  0.00    -0.019 C 
ATOM     36  C   UNL     1      -2.368   0.808   0.960  0.00  0.00    -0.079 C 
ATOM     37  N   UNL     1      -1.611   1.311   2.158  0.00  0.00    +0.381 N 
ATOM     38  H   UNL     1      -2.290   1.652   2.849  0.00  0.00    -0.082 HD
ENDBRANCH  30  37
ENDBRANCH  29  30
ENDBRANCH  11  29
TORSDOF 6
