REMARK  Name = ZINC08767555
REMARK  11 active torsions:
REMARK  status: ('A' for Active; 'I' for Inactive)
REMARK    1  A    between atoms: C_1  and  C_2
REMARK    2  A    between atoms: C_2  and  C_3
REMARK    3  A    between atoms: C_2  and  C_4
REMARK    4  A    between atoms: C_4  and  C_5
REMARK    5  A    between atoms: C_8  and  C_11
REMARK    6  A    between atoms: C_11  and  C_13
REMARK    7  A    between atoms: C_15  and  C_37
REMARK    8  A    between atoms: C_37  and  C_39
REMARK    9  A    between atoms: C_39  and  C_40
REMARK   10  A    between atoms: C_39  and  C_41
REMARK   11  A    between atoms: C_39  and  C_42
REMARK                            x       y       z     vdW  Elec       q    Type
REMARK                         _______ _______ _______ _____ _____    ______ ____
ROOT
ATOM      1  C   UNL     1       0.183   6.177   1.479  0.00  0.00    +0.108 C 
ATOM      2  C   UNL     1       1.685   6.498   1.233  0.00  0.00    +0.136 C 
ATOM      3  C   UNL     1       2.561   7.731  -0.844  0.00  0.00    +0.054 C 
ATOM      4  C   UNL     1       2.010   8.404  -1.874  0.00  0.00    +0.022 C 
ATOM      5  C   UNL     1       0.596   8.157  -2.225  0.00  0.00    -0.019 A 
ATOM      6  C   UNL     1      -0.096   9.067  -3.028  0.00  0.00    +0.008 A 
ATOM      7  C   UNL     1      -1.414   8.829  -3.354  0.00  0.00    +0.001 A 
ATOM      8  C   UNL     1      -2.055   7.694  -2.890  0.00  0.00    +0.000 A 
ATOM      9  C   UNL     1      -1.377   6.786  -2.095  0.00  0.00    +0.006 A 
ATOM     10  C   UNL     1      -0.061   7.011  -1.762  0.00  0.00    -0.020 A 
ATOM     11  C   UNL     1       0.699   6.041  -0.896  0.00  0.00    +0.107 C 
ATOM     12  C   UNL     1      -0.192   5.429   0.184  0.00  0.00    +0.107 C 
ATOM     13  C   UNL     1      -0.002   3.958   0.319  0.00  0.00    -0.008 A 
ATOM     14  C   UNL     1       1.110   3.193   0.599  0.00  0.00    +0.006 A 
ATOM     15  C   UNL     1       0.933   1.815   0.652  0.00  0.00    +0.000 A 
ATOM     16  C   UNL     1      -0.303   1.240   0.434  0.00  0.00    +0.002 A 
ATOM     17  C   UNL     1      -1.425   2.001   0.147  0.00  0.00    +0.023 A 
ATOM     18  C   UNL     1      -1.263   3.386   0.096  0.00  0.00    +0.038 A 
ATOM     19  N   UNL     1      -2.200   4.372  -0.164  0.00  0.00    -0.284 N 
ATOM     20  C   UNL     1      -1.654   5.608  -0.133  0.00  0.00    +0.231 C 
ATOM     21  O   UNL     1      -2.231   6.658  -0.324  0.00  0.00    -0.274 OA
ATOM     22  H   UNL     1      -3.136   4.196  -0.346  0.00  0.00    +0.155 HD
ATOM     23  N   UNL     1       1.897   6.498  -0.243  0.00  0.00    -0.384 NA
ATOM     24  H   UNL     1       2.581   5.750  -0.408  0.00  0.00    +0.127 HD
ENDROOT
BRANCH   1  25
ATOM     25  C   UNL     1      -0.622   7.443   1.624  0.00  0.00    +0.170 C 
ATOM     26  O   UNL     1      -0.291   8.444   1.026  0.00  0.00    -0.292 OA
BRANCH  25  30
ATOM     27  C   UNL     1      -4.047   7.502   4.125  0.00  0.00    -0.047 A 
ATOM     28  C   UNL     1      -3.689   8.638   3.421  0.00  0.00    +0.004 A 
ATOM     29  C   UNL     1      -2.577   8.627   2.606  0.00  0.00    +0.011 A 
ATOM     30  C   UNL     1      -1.810   7.463   2.492  0.00  0.00    +0.018 A 
ATOM     31  C   UNL     1      -2.181   6.317   3.203  0.00  0.00    +0.011 A 
ATOM     32  C   UNL     1      -3.293   6.346   4.018  0.00  0.00    +0.004 A 
BRANCH  27  33
ATOM     33  C   UNL     1      -5.264   7.523   5.014  0.00  0.00    +0.038 C 
BRANCH  33  35
ATOM     34  C   UNL     1      -6.337   5.642   3.767  0.00  0.00    +0.007 C 
ATOM     35  C   UNL     1      -6.493   7.100   4.206  0.00  0.00    -0.013 C 
ATOM     36  C   UNL     1      -7.746   7.240   5.072  0.00  0.00    +0.007 C 
ENDBRANCH  33  35
ENDBRANCH  27  33
ENDBRANCH  25  30
ENDBRANCH   1  25
BRANCH   2  37
ATOM     37  C   UNL     1       2.120   7.679   2.061  0.00  0.00    +0.158 C 
ATOM     38  O   UNL     1       2.085   8.791   1.591  0.00  0.00    -0.295 OA
BRANCH  37  39
ATOM     39  C   UNL     1       2.598   7.473   3.475  0.00  0.00    +0.022 C 
ATOM     40  C   UNL     1       2.858   8.832   4.129  0.00  0.00    +0.018 C 
ATOM     41  C   UNL     1       1.528   6.721   4.271  0.00  0.00    +0.018 C 
ATOM     42  C   UNL     1       3.892   6.657   3.463  0.00  0.00    +0.018 C 
ENDBRANCH  37  39
ENDBRANCH   2  37
TORSDOF 6
