REMARK  Name = ZINC63628285
REMARK  5 active torsions:
REMARK  status: ('A' for Active; 'I' for Inactive)
REMARK    1  A    between atoms: C_1  and  C_2
REMARK    2  A    between atoms: C_5  and  N_8
REMARK    3  A    between atoms: C_13  and  N_16
REMARK    4  A    between atoms: N_20  and  S_23
REMARK    5  A    between atoms: S_23  and  C_26
REMARK                            x       y       z     vdW  Elec       q    Type
REMARK                         _______ _______ _______ _____ _____    ______ ____
ROOT
ATOM      1  N   UNL     1       2.472  -5.762   1.071  0.00  0.00    -0.281 NA
ATOM      2  C   UNL     1       3.020  -5.446   2.389  0.00  0.00    +0.087 C 
ATOM      3  C   UNL     1       4.434  -5.977   2.478  0.00  0.00    +0.032 C 
ATOM      4  C   UNL     1       5.426  -4.881   2.054  0.00  0.00    +0.111 C 
ATOM      5  N   UNL     1       4.917  -4.116   0.898  0.00  0.00    -0.174 NA
ATOM      6  C   UNL     1       4.257  -4.750  -0.225  0.00  0.00    +0.125 C 
ATOM      7  C   UNL     1       2.735  -4.829   0.041  0.00  0.00    +0.103 C 
ENDROOT
BRANCH   1  13
ATOM      8  N   UNL     1       1.064  -7.675  -0.557  0.00  0.00    -0.200 N 
ATOM      9  C   UNL     1       1.245  -8.675   0.329  0.00  0.00    +0.257 C 
ATOM     10  O   UNL     1       1.669  -9.755  -0.035  0.00  0.00    -0.269 OA
ATOM     11  C   UNL     1       0.919  -8.436   1.748  0.00  0.00    +0.068 C 
ATOM     12  C   UNL     1       0.816  -7.168   2.158  0.00  0.00    +0.014 C 
ATOM     13  C   UNL     1       1.037  -6.063   1.156  0.00  0.00    +0.166 C 
ATOM     14  N   UNL     1       0.555  -6.475  -0.162  0.00  0.00    -0.212 NA
ATOM     15  H   UNL     1      -0.454  -6.484  -0.187  0.00  0.00    +0.147 HD
BRANCH   8  20
ATOM     16  C   UNL     1       2.466  -8.466  -5.996  0.00  0.00    +0.044 C 
ATOM     17  C   UNL     1       2.093  -8.256  -4.551  0.00  0.00    -0.050 A 
ATOM     18  C   UNL     1       2.983  -8.604  -3.552  0.00  0.00    +0.005 A 
ATOM     19  C   UNL     1       2.645  -8.413  -2.227  0.00  0.00    +0.025 A 
ATOM     20  C   UNL     1       1.410  -7.869  -1.898  0.00  0.00    +0.053 A 
ATOM     21  C   UNL     1       0.518  -7.520  -2.905  0.00  0.00    +0.025 A 
ATOM     22  C   UNL     1       0.865  -7.710  -4.228  0.00  0.00    +0.005 A 
ENDBRANCH   8  20
ENDBRANCH   1  13
BRANCH   5  23
ATOM     23  S   UNL     1       5.109  -2.471   0.884  0.00  0.00    +0.080 S 
ATOM     24  O   UNL     1       4.102  -1.952   0.027  0.00  0.00    -0.151 OA
ATOM     25  O   UNL     1       5.238  -2.066   2.240  0.00  0.00    -0.151 OA
BRANCH  23  26
ATOM     26  C   UNL     1       6.654  -2.133   0.109  0.00  0.00    +0.211 A 
ATOM     27  H   UNL     1       8.642  -1.523  -2.217  0.00  0.00    +0.166 HD
ATOM     28  C   UNL     1       6.851  -1.931  -1.208  0.00  0.00    +0.133 A 
ATOM     29  N   UNL     1       8.190  -1.702  -1.378  0.00  0.00    -0.349 N 
ATOM     30  C   UNL     1       8.765  -1.773  -0.158  0.00  0.00    +0.198 A 
ATOM     31  N   UNL     1       7.840  -2.026   0.727  0.00  0.00    -0.217 NA
ENDBRANCH  23  26
ENDBRANCH   5  23
TORSDOF 4
