REMARK  Name = ZINC39912238
REMARK  16 active torsions:
REMARK  status: ('A' for Active; 'I' for Inactive)
REMARK    1  A    between atoms: C_1  and  C_2
REMARK    2  A    between atoms: C_2  and  O_3
REMARK    3  A    between atoms: O_3  and  C_4
REMARK    4  A    between atoms: C_6  and  C_16
REMARK    5  A    between atoms: C_9  and  O_10
REMARK    6  A    between atoms: O_10  and  C_11
REMARK    7  A    between atoms: C_11  and  C_12
REMARK    8  A    between atoms: C_12  and  C_13
REMARK    9  A    between atoms: C_13  and  C_14
REMARK   10  A    between atoms: C_13  and  C_15
REMARK   11  A    between atoms: C_19  and  C_33
REMARK   12  A    between atoms: N_26  and  C_27
REMARK   13  A    between atoms: C_27  and  C_28
REMARK   14  A    between atoms: C_35  and  C_41
REMARK   15  A    between atoms: C_37  and  C_40
REMARK   16  A    between atoms: C_38  and  O_39
REMARK                            x       y       z     vdW  Elec       q    Type
REMARK                         _______ _______ _______ _____ _____    ______ ____
ROOT
ATOM      1  C   UNL     1       0.137  -4.974  -0.016  0.00  0.00    +0.142 C 
ATOM      2  C   UNL     1       0.805  -5.309  -1.321  0.00  0.00    +0.035 A 
ATOM      3  C   UNL     1       1.431  -4.838  -2.480  0.00  0.00    +0.102 A 
ATOM      4  N   UNL     1       1.764  -5.890  -3.203  0.00  0.00    -0.173 NA
ATOM      5  N   UNL     1       1.410  -6.977  -2.616  0.00  0.00    -0.272 N 
ATOM      6  H   UNL     1       1.555  -7.871  -2.964  0.00  0.00    +0.189 HD
ATOM      7  C   UNL     1       0.802  -6.687  -1.428  0.00  0.00    +0.126 A 
ATOM      8  C   UNL     1       0.154  -7.245  -0.236  0.00  0.00    +0.266 C 
ATOM      9  O   UNL     1      -0.007  -8.432  -0.025  0.00  0.00    -0.268 OA
ATOM     10  N   UNL     1      -0.236  -6.258   0.593  0.00  0.00    -0.278 N 
ENDROOT
BRANCH   3  11
ATOM     11  C   UNL     1       1.676  -3.417  -2.832  0.00  0.00    +0.044 A 
ATOM     12  C   UNL     1       1.392  -2.411  -1.912  0.00  0.00    +0.017 A 
ATOM     13  C   UNL     1       1.621  -1.091  -2.244  0.00  0.00    -0.049 A 
ATOM     14  C   UNL     1       2.132  -0.763  -3.487  0.00  0.00    +0.010 A 
ATOM     15  C   UNL     1       2.416  -1.754  -4.407  0.00  0.00    -0.008 A 
ATOM     16  C   UNL     1       2.197  -3.084  -4.085  0.00  0.00    +0.129 A 
ATOM     17  C   UNL     1       2.971  -1.389  -5.760  0.00  0.00    +0.047 C 
ATOM     18  C   UNL     1       1.313  -0.002  -1.248  0.00  0.00    +0.044 C 
BRANCH  16  19
ATOM     19  O   UNL     1       2.482  -4.060  -4.986  0.00  0.00    -0.506 OA
ATOM     20  H   UNL     1       1.745  -4.282  -5.572  0.00  0.00    +0.292 HD
ENDBRANCH  16  19
ENDBRANCH   3  11
BRANCH   1  23
ATOM     21  C   UNL     1      -3.291  -3.907  -1.193  0.00  0.00    +0.162 A 
ATOM     22  C   UNL     1      -2.158  -4.673  -0.965  0.00  0.00    +0.055 A 
ATOM     23  C   UNL     1      -1.094  -4.140  -0.262  0.00  0.00    -0.019 A 
ATOM     24  C   UNL     1      -1.156  -2.845   0.216  0.00  0.00    +0.009 A 
ATOM     25  C   UNL     1      -2.283  -2.076  -0.007  0.00  0.00    +0.050 A 
ATOM     26  C   UNL     1      -3.351  -2.601  -0.716  0.00  0.00    +0.162 A 
BRANCH  21  27
ATOM     27  O   UNL     1      -4.339  -4.429  -1.885  0.00  0.00    -0.489 OA
BRANCH  27  29
ATOM     28  C   UNL     1      -5.544  -6.237  -2.944  0.00  0.00    +0.048 C 
ATOM     29  C   UNL     1      -4.236  -5.798  -2.282  0.00  0.00    +0.226 C 
ENDBRANCH  27  29
ENDBRANCH  21  27
BRANCH  26  30
ATOM     30  O   UNL     1      -4.458  -1.844  -0.942  0.00  0.00    -0.488 OA
BRANCH  30  31
ATOM     31  C   UNL     1      -4.450  -0.513  -0.423  0.00  0.00    +0.229 C 
BRANCH  31  32
ATOM     32  C   UNL     1      -5.769   0.179  -0.773  0.00  0.00    +0.044 C 
BRANCH  32  33
ATOM     33  C   UNL     1      -5.761   1.605  -0.218  0.00  0.00    -0.014 C 
ATOM     34  C   UNL     1      -7.025   2.337  -0.673  0.00  0.00    +0.007 C 
ATOM     35  C   UNL     1      -5.722   1.556   1.311  0.00  0.00    +0.007 C 
ENDBRANCH  32  33
ENDBRANCH  31  32
ENDBRANCH  30  31
ENDBRANCH  26  30
ENDBRANCH   1  23
BRANCH  10  36
ATOM     36  C   UNL     1      -0.915  -6.433   1.879  0.00  0.00    +0.183 C 
BRANCH  36  37
ATOM     37  C   UNL     1      -2.406  -6.439   1.663  0.00  0.00    +0.122 A 
ATOM     38  C   UNL     1      -3.161  -7.525   1.421  0.00  0.00    +0.046 A 
ATOM     39  C   UNL     1      -4.495  -7.075   1.284  0.00  0.00    +0.041 A 
ATOM     40  C   UNL     1      -4.474  -5.741   1.450  0.00  0.00    +0.195 A 
ATOM     41  O   UNL     1      -3.208  -5.361   1.685  0.00  0.00    -0.466 OA
ENDBRANCH  36  37
ENDBRANCH  10  36
TORSDOF 11
