REMARK  Name = ZINC60475399
REMARK  8 active torsions:
REMARK  status: ('A' for Active; 'I' for Inactive)
REMARK    1  A    between atoms: C_1  and  C_2
REMARK    2  A    between atoms: C_11  and  C_14
REMARK    3  A    between atoms: C_14  and  N_15
REMARK    4  A    between atoms: C_16  and  C_18
REMARK    5  A    between atoms: C_18  and  N_19
REMARK    6  A    between atoms: C_20  and  C_22
REMARK    7  A    between atoms: C_26  and  O_28
REMARK    8  A    between atoms: O_28  and  C_29
REMARK                            x       y       z     vdW  Elec       q    Type
REMARK                         _______ _______ _______ _____ _____    ______ ____
ROOT
ATOM      1  N   UNL     1      -3.377  -5.796  -4.362  0.00  0.00    -0.310 N 
ATOM      2  C   UNL     1      -3.837  -6.645  -5.302  0.00  0.00    +0.230 C 
ATOM      3  O   UNL     1      -4.923  -7.167  -5.169  0.00  0.00    -0.274 OA
ATOM      4  H   UNL     1      -2.508  -5.379  -4.468  0.00  0.00    +0.149 HD
ENDROOT
BRANCH   1   5
ATOM      5  C   UNL     1      -4.190  -5.503  -3.179  0.00  0.00    +0.141 C 
BRANCH   5  16
ATOM      6  C   UNL     1       0.024   1.508  -0.007  0.00  0.00    +0.039 C 
ATOM      7  C   UNL     1       0.027  -0.022  -0.001  0.00  0.00    +0.132 C 
ATOM      8  C   UNL     1      -1.417  -0.537   0.005  0.00  0.00    +0.137 C 
ATOM      9  N   UNL     1      -1.389  -1.995   0.200  0.00  0.00    -0.312 N 
ATOM     10  C   UNL     1      -0.594  -2.529   1.318  0.00  0.00    +0.134 C 
ATOM     11  C   UNL     1       0.810  -1.917   1.248  0.00  0.00    +0.179 C 
ATOM     12  O   UNL     1       0.700  -0.493   1.170  0.00  0.00    -0.374 OA
ATOM     13  C   UNL     1      -2.091  -2.844  -0.647  0.00  0.00    +0.099 A 
ATOM     14  C   UNL     1      -2.930  -2.308  -1.620  0.00  0.00    +0.042 A 
ATOM     15  C   UNL     1      -3.623  -3.164  -2.456  0.00  0.00    +0.010 A 
ATOM     16  C   UNL     1      -3.455  -4.533  -2.291  0.00  0.00    -0.014 A 
ATOM     17  C   UNL     1      -2.607  -4.996  -1.305  0.00  0.00    +0.089 A 
ATOM     18  N   UNL     1      -1.953  -4.155  -0.525  0.00  0.00    -0.349 N 
ATOM     19  H   UNL     1      -1.360  -4.507   0.158  0.00  0.00    +0.167 HD
ENDBRANCH   5  16
ENDBRANCH   1   5
BRANCH   2  20
ATOM     20  C   UNL     1      -3.000  -6.946  -6.519  0.00  0.00    +0.200 C 
BRANCH  20  21
ATOM     21  N   UNL     1      -3.716  -7.889  -7.382  0.00  0.00    -0.303 N 
ATOM     22  C   UNL     1      -3.156  -8.305  -8.535  0.00  0.00    +0.245 C 
ATOM     23  O   UNL     1      -2.058  -7.897  -8.860  0.00  0.00    -0.270 OA
ATOM     24  H   UNL     1      -4.592  -8.215  -7.123  0.00  0.00    +0.150 HD
BRANCH  22  25
ATOM     25  C   UNL     1      -3.878  -9.257  -9.407  0.00  0.00    +0.040 A 
ATOM     26  C   UNL     1      -5.142  -9.722  -9.040  0.00  0.00    +0.013 A 
ATOM     27  C   UNL     1      -5.813 -10.610  -9.855  0.00  0.00    +0.004 A 
ATOM     28  C   UNL     1      -5.237 -11.042 -11.036  0.00  0.00    +0.045 A 
ATOM     29  C   UNL     1      -3.981 -10.585 -11.409  0.00  0.00    +0.121 A 
ATOM     30  C   UNL     1      -3.301  -9.688 -10.601  0.00  0.00    +0.058 A 
BRANCH  29  31
ATOM     31  O   UNL     1      -3.419 -11.013 -12.570  0.00  0.00    -0.495 OA
ATOM     32  C   UNL     1      -4.179 -11.933 -13.357  0.00  0.00    +0.277 C 
ENDBRANCH  29  31
ENDBRANCH  22  25
ENDBRANCH  20  21
ENDBRANCH   2  20
TORSDOF 6
