REMARK  Name = ZINC36083098
REMARK  10 active torsions:
REMARK  status: ('A' for Active; 'I' for Inactive)
REMARK    1  A    between atoms: C_1  and  C_2
REMARK    2  A    between atoms: C_2  and  C_4
REMARK    3  A    between atoms: C_2  and  N_10
REMARK    4  A    between atoms: N_10  and  C_11
REMARK    5  A    between atoms: N_10  and  C_20
REMARK    6  A    between atoms: C_11  and  C_12
REMARK    7  A    between atoms: C_20  and  C_21
REMARK    8  A    between atoms: C_23  and  C_26
REMARK    9  A    between atoms: N_28  and  C_29
REMARK   10  A    between atoms: C_29  and  C_30
REMARK                            x       y       z     vdW  Elec       q    Type
REMARK                         _______ _______ _______ _____ _____    ______ ____
ROOT
ATOM      1  N   UNL     1       0.746  -0.054  -1.551  0.00  0.00    +0.393 N 
ATOM      2  H   UNL     1       1.506   0.568  -1.783  0.00  0.00    -0.080 HD
ENDROOT
BRANCH   1   4
ATOM      3  C   UNL     1      -0.417   1.434   0.008  0.00  0.00    -0.008 C 
ATOM      4  C   UNL     1       0.373   0.133  -0.143  0.00  0.00    -0.040 C 
BRANCH   4   5
ATOM      5  C   UNL     1       1.619   0.201   0.702  0.00  0.00    -0.061 A 
ATOM      6  C   UNL     1       2.741   0.854   0.227  0.00  0.00    +0.002 A 
ATOM      7  C   UNL     1       3.884   0.916   1.002  0.00  0.00    +0.000 A 
ATOM      8  C   UNL     1       3.905   0.327   2.252  0.00  0.00    +0.000 A 
ATOM      9  C   UNL     1       2.783  -0.325   2.728  0.00  0.00    +0.000 A 
ATOM     10  C   UNL     1       1.638  -0.384   1.954  0.00  0.00    +0.002 A 
ENDBRANCH   4   5
ENDBRANCH   1   4
BRANCH   1  11
ATOM     11  C   UNL     1       1.168  -1.444  -1.766  0.00  0.00    -0.041 C 
BRANCH  11  12
ATOM     12  C   UNL     1       2.459  -1.697  -1.030  0.00  0.00    -0.062 A 
ATOM     13  C   UNL     1       3.662  -1.311  -1.592  0.00  0.00    +0.003 A 
ATOM     14  C   UNL     1       4.846  -1.542  -0.918  0.00  0.00    +0.021 A 
ATOM     15  C   UNL     1       4.828  -2.160   0.320  0.00  0.00    +0.059 A 
ATOM     16  C   UNL     1       3.624  -2.546   0.883  0.00  0.00    +0.059 A 
ATOM     17  C   UNL     1       2.439  -2.309   0.209  0.00  0.00    +0.023 A 
ATOM     18 CL   UNL     1       3.600  -3.322   2.436  0.00  0.00    -0.082 Cl
ATOM     19 CL   UNL     1       6.315  -2.451   1.167  0.00  0.00    -0.082 Cl
ENDBRANCH  11  12
ENDBRANCH   1  11
BRANCH   1  20
ATOM     20  C   UNL     1      -0.410   0.245  -2.407  0.00  0.00    +0.020 C 
BRANCH  20  21
ATOM     21  C   UNL     1      -0.411   1.711  -2.757  0.00  0.00    +0.179 A 
ATOM     22  N   UNL     1       0.322   2.266  -3.674  0.00  0.00    -0.210 NA
ATOM     23  C   UNL     1       0.047   3.598  -3.699  0.00  0.00    +0.163 A 
ATOM     24  C   UNL     1      -0.896   3.829  -2.746  0.00  0.00    +0.230 A 
ATOM     25  O   UNL     1      -1.173   2.647  -2.174  0.00  0.00    -0.449 OA
BRANCH  23  26
ATOM     26  C   UNL     1       0.655   4.602  -4.591  0.00  0.00    +0.266 C 
ATOM     27  O   UNL     1       0.320   5.768  -4.512  0.00  0.00    -0.268 OA
ATOM     28  N   UNL     1       1.584   4.227  -5.493  0.00  0.00    -0.306 N 
ATOM     29  H   UNL     1       1.851   3.297  -5.556  0.00  0.00    +0.149 HD
BRANCH  28  30
ATOM     30  C   UNL     1       2.189   5.225  -6.379  0.00  0.00    +0.140 C 
BRANCH  30  31
ATOM     31  C   UNL     1       3.187   4.552  -7.285  0.00  0.00    -0.030 A 
ATOM     32  C   UNL     1       4.507   4.432  -6.891  0.00  0.00    +0.008 A 
ATOM     33  C   UNL     1       5.424   3.815  -7.721  0.00  0.00    +0.038 A 
ATOM     34  C   UNL     1       5.020   3.317  -8.948  0.00  0.00    +0.123 A 
ATOM     35  C   UNL     1       3.698   3.437  -9.342  0.00  0.00    +0.038 A 
ATOM     36  C   UNL     1       2.782   4.050  -8.508  0.00  0.00    +0.008 A 
ATOM     37  F   UNL     1       5.915   2.714  -9.760  0.00  0.00    -0.205 F 
ENDBRANCH  30  31
ENDBRANCH  28  30
ENDBRANCH  23  26
ENDBRANCH  20  21
ENDBRANCH   1  20
TORSDOF 9
