REMARK  Name = ZINC66923520
REMARK  9 active torsions:
REMARK  status: ('A' for Active; 'I' for Inactive)
REMARK    1  A    between atoms: C_1  and  C_2
REMARK    2  A    between atoms: C_2  and  C_4
REMARK    3  A    between atoms: C_2  and  N_11
REMARK    4  A    between atoms: N_6  and  C_7
REMARK    5  A    between atoms: C_7  and  C_8
REMARK    6  A    between atoms: C_7  and  C_9
REMARK    7  A    between atoms: C_7  and  C_10
REMARK    8  A    between atoms: C_12  and  C_14
REMARK    9  A    between atoms: N_22  and  C_25
REMARK                            x       y       z     vdW  Elec       q    Type
REMARK                         _______ _______ _______ _____ _____    ______ ____
ROOT
ATOM      1  N   UNL     1      -1.372  -0.511   0.012  0.00  0.00    -0.300 N 
ATOM      2  C   UNL     1      -2.029  -0.655   1.181  0.00  0.00    +0.245 C 
ATOM      3  O   UNL     1      -1.480  -0.364   2.225  0.00  0.00    -0.270 OA
ATOM      4  H   UNL     1      -1.810  -0.743  -0.822  0.00  0.00    +0.150 HD
ENDROOT
BRANCH   2   5
ATOM      5  C   UNL     1      -3.418  -1.168   1.191  0.00  0.00    +0.039 A 
ATOM      6  C   UNL     1      -4.043  -1.507  -0.019  0.00  0.00    +0.014 A 
ATOM      7  C   UNL     1      -5.320  -1.980  -0.035  0.00  0.00    +0.016 A 
ATOM      8  C   UNL     1      -6.024  -2.133   1.168  0.00  0.00    +0.065 A 
ATOM      9  C   UNL     1      -5.404  -1.794   2.399  0.00  0.00    +0.080 A 
ATOM     10  C   UNL     1      -4.087  -1.313   2.396  0.00  0.00    +0.041 A 
ATOM     11  N   UNL     1      -6.091  -1.946   3.540  0.00  0.00    -0.222 NA
ATOM     12  C   UNL     1      -7.333  -2.407   3.526  0.00  0.00    +0.183 A 
ATOM     13  N   UNL     1      -7.963  -2.742   2.389  0.00  0.00    -0.290 N 
ATOM     14  C   UNL     1      -7.348  -2.621   1.193  0.00  0.00    +0.262 A 
ATOM     15  O   UNL     1      -7.981  -2.957   0.055  0.00  0.00    -0.267 OA
ATOM     16  C   UNL     1      -9.338  -3.246   2.446  0.00  0.00    +0.154 C 
ATOM     17  S   UNL     1      -8.164  -2.582   5.013  0.00  0.00    -0.011 S 
ENDBRANCH   2   5
BRANCH   1  19
ATOM     18  C   UNL     1      -0.019   1.526   0.010  0.00  0.00    +0.038 C 
ATOM     19  C   UNL     1       0.002  -0.004   0.002  0.00  0.00    +0.156 C 
BRANCH  19  20
ATOM     20  C   UNL     1       0.707  -0.490  -1.238  0.00  0.00    +0.233 C 
ATOM     21  O   UNL     1       0.120  -1.191  -2.034  0.00  0.00    -0.274 OA
ATOM     22  N   UNL     1       1.991  -0.146  -1.462  0.00  0.00    -0.309 N 
ATOM     23  H   UNL     1       2.461   0.415  -0.825  0.00  0.00    +0.149 HD
BRANCH  22  24
ATOM     24  C   UNL     1       2.677  -0.618  -2.667  0.00  0.00    +0.026 C 
ATOM     25  C   UNL     1       1.937  -0.111  -3.906  0.00  0.00    +0.031 C 
ATOM     26  C   UNL     1       4.112  -0.089  -2.678  0.00  0.00    +0.031 C 
ATOM     27  C   UNL     1       2.698  -2.148  -2.675  0.00  0.00    +0.031 C 
ENDBRANCH  22  24
ENDBRANCH  19  20
ENDBRANCH   1  19
TORSDOF 4
