REMARK  Name = ZINC12883455
REMARK  6 active torsions:
REMARK  status: ('A' for Active; 'I' for Inactive)
REMARK    1  A    between atoms: C_1  and  C_2
REMARK    2  A    between atoms: C_13  and  C_15
REMARK    3  A    between atoms: C_15  and  C_16
REMARK    4  A    between atoms: N_24  and  C_27
REMARK    5  A    between atoms: C_27  and  C_28
REMARK    6  A    between atoms: C_28  and  C_29
REMARK                            x       y       z     vdW  Elec       q    Type
REMARK                         _______ _______ _______ _____ _____    ______ ____
ROOT
ATOM      1  C   UNL     1      -2.515   0.975   0.019  0.00  0.00    +0.044 C 
ATOM      2  C   UNL     1      -1.222   1.748   0.017  0.00  0.00    -0.050 A 
ATOM      3  C   UNL     1      -0.013   1.076   0.008  0.00  0.00    +0.005 A 
ATOM      4  C   UNL     1       1.174   1.778   0.000  0.00  0.00    +0.024 A 
ATOM      5  C   UNL     1       1.165   3.171   0.009  0.00  0.00    +0.036 A 
ATOM      6  C   UNL     1      -0.058   3.836   0.024  0.00  0.00    -0.027 A 
ATOM      7  C   UNL     1      -1.240   3.131   0.031  0.00  0.00    +0.008 A 
ATOM      8  C   UNL     1       0.273   5.302   0.030  0.00  0.00    +0.050 C 
ATOM      9  C   UNL     1      -0.329   6.021  -1.183  0.00  0.00    +0.088 C 
ATOM     10  C   UNL     1      -1.635   6.669  -0.646  0.00  0.00    +0.073 C 
ATOM     11  C   UNL     1      -1.696   6.263   0.842  0.00  0.00    -0.053 C 
ATOM     12  C   UNL     1      -1.358   8.151  -0.749  0.00  0.00    +0.224 C 
ATOM     13  O   UNL     1      -2.124   9.031  -0.420  0.00  0.00    -0.275 OA
ATOM     14  N   UNL     1      -0.136   8.341  -1.258  0.00  0.00    -0.241 N 
ATOM     15  C   UNL     1       0.529   7.214  -1.541  0.00  0.00    +0.225 C 
ATOM     16  O   UNL     1       1.645   7.159  -2.012  0.00  0.00    -0.275 OA
ATOM     17  C   UNL     1       1.776   5.365   0.018  0.00  0.00    +0.211 C 
ATOM     18  O   UNL     1       2.459   6.367   0.019  0.00  0.00    -0.277 OA
ATOM     19  N   UNL     1       2.215   4.091   0.004  0.00  0.00    -0.286 N 
ATOM     20  H   UNL     1       3.153   3.843  -0.007  0.00  0.00    +0.155 HD
ATOM     21  N   UNL     1      -0.303   5.968   1.185  0.00  0.00    +0.394 N 
ATOM     22  H   UNL     1       0.206   6.838   1.383  0.00  0.00    -0.083 HD
ATOM     23  H   UNL     1      -0.262   5.354   2.007  0.00  0.00    -0.083 HD
ENDROOT
BRANCH  11  24
ATOM     24  C   UNL     1      -2.247   7.415   1.685  0.00  0.00    +0.020 C 
BRANCH  24  25
ATOM     25  C   UNL     1      -2.341   6.982   3.126  0.00  0.00    -0.049 A 
ATOM     26  C   UNL     1      -3.501   6.395   3.597  0.00  0.00    +0.003 A 
ATOM     27  C   UNL     1      -3.585   5.993   4.917  0.00  0.00    +0.000 A 
ATOM     28  C   UNL     1      -2.514   6.189   5.769  0.00  0.00    +0.000 A 
ATOM     29  C   UNL     1      -1.357   6.780   5.299  0.00  0.00    +0.000 A 
ATOM     30  C   UNL     1      -1.270   7.177   3.978  0.00  0.00    +0.003 A 
ENDBRANCH  24  25
ENDBRANCH  11  24
BRANCH  14  31
ATOM     31  C   UNL     1       0.430   9.673  -1.486  0.00  0.00    +0.121 C 
BRANCH  31  32
ATOM     32  C   UNL     1       1.182  10.129  -0.235  0.00  0.00    +0.054 C 
BRANCH  32  33
ATOM     33  C   UNL     1       1.764  11.499  -0.470  0.00  0.00    -0.046 A 
ATOM     34  C   UNL     1       3.036  11.629  -0.994  0.00  0.00    +0.004 A 
ATOM     35  C   UNL     1       3.568  12.886  -1.214  0.00  0.00    +0.000 A 
ATOM     36  C   UNL     1       2.831  14.013  -0.900  0.00  0.00    +0.000 A 
ATOM     37  C   UNL     1       1.560  13.883  -0.371  0.00  0.00    +0.000 A 
ATOM     38  C   UNL     1       1.027  12.626  -0.156  0.00  0.00    +0.004 A 
ENDBRANCH  32  33
ENDBRANCH  31  32
ENDBRANCH  14  31
TORSDOF 5
