REMARK  Name = ZINC59446072
REMARK  10 active torsions:
REMARK  status: ('A' for Active; 'I' for Inactive)
REMARK    1  A    between atoms: C_1  and  C_2
REMARK    2  A    between atoms: C_2  and  O_3
REMARK    3  A    between atoms: O_3  and  C_4
REMARK    4  A    between atoms: C_4  and  C_6
REMARK    5  A    between atoms: C_9  and  N_12
REMARK    6  A    between atoms: C_16  and  S_20
REMARK    7  A    between atoms: S_20  and  C_21
REMARK    8  A    between atoms: N_23  and  N_24
REMARK    9  A    between atoms: C_25  and  C_26
REMARK   10  A    between atoms: C_25  and  C_27
REMARK                            x       y       z     vdW  Elec       q    Type
REMARK                         _______ _______ _______ _____ _____    ______ ____
ROOT
ATOM      1  N   UNL     1      -6.683  -4.065   0.045  0.00  0.00    -0.209 N 
ATOM      2  C   UNL     1      -7.790  -3.320   0.147  0.00  0.00    +0.228 C 
ATOM      3  O   UNL     1      -7.818  -2.112   0.240  0.00  0.00    -0.275 OA
ATOM      4  C   UNL     1      -9.002  -4.225   0.127  0.00  0.00    +0.120 C 
ATOM      5  C   UNL     1      -8.397  -5.638  -0.006  0.00  0.00    +0.149 C 
ATOM      6  C   UNL     1      -6.906  -5.381  -0.053  0.00  0.00    +0.240 C 
ATOM      7  O   UNL     1      -6.050  -6.233  -0.159  0.00  0.00    -0.274 OA
ENDROOT
BRANCH   1  11
ATOM      8  C   UNL     1      -2.853  -2.418   0.015  0.00  0.00    +0.059 A 
ATOM      9  C   UNL     1      -3.360  -3.032  -1.133  0.00  0.00    +0.017 A 
ATOM     10  C   UNL     1      -4.626  -3.575  -1.120  0.00  0.00    +0.025 A 
ATOM     11  C   UNL     1      -5.398  -3.513   0.035  0.00  0.00    +0.044 A 
ATOM     12  C   UNL     1      -4.897  -2.903   1.180  0.00  0.00    +0.025 A 
ATOM     13  C   UNL     1      -3.630  -2.363   1.175  0.00  0.00    +0.017 A 
BRANCH   8  14
ATOM     14  C   UNL     1      -1.498  -1.835   0.005  0.00  0.00    +0.339 C 
ATOM     15  O   UNL     1      -1.056  -1.307   1.005  0.00  0.00    -0.245 OA
BRANCH  14  16
ATOM     16  O   UNL     1      -0.750  -1.889  -1.115  0.00  0.00    -0.461 OA
BRANCH  16  18
ATOM     17  C   UNL     1       1.247  -1.462  -2.408  0.00  0.00    +0.048 C 
ATOM     18  C   UNL     1       0.553  -1.305  -1.054  0.00  0.00    +0.229 C 
ENDBRANCH  16  18
ENDBRANCH  14  16
ENDBRANCH   8  14
ENDBRANCH   1  11
BRANCH   5  19
ATOM     19  S   UNL     1      -8.955  -6.430  -1.540  0.00  0.00    -0.078 S 
BRANCH  19  20
ATOM     20  C   UNL     1      -8.291  -8.059  -1.444  0.00  0.00    +0.146 C 
ATOM     21  N   UNL     1      -7.543  -8.434  -0.352  0.00  0.00    -0.338 N 
ATOM     22  N   UNL     1      -8.512  -8.919  -2.417  0.00  0.00    -0.259 N 
ATOM     23  H   UNL     1      -7.381  -7.801   0.364  0.00  0.00    +0.144 HD
ATOM     24  H   UNL     1      -7.178  -9.331  -0.299  0.00  0.00    +0.144 HD
ATOM     25  H   UNL     1      -9.040  -8.655  -3.187  0.00  0.00    +0.191 HD
BRANCH  22  26
ATOM     26  N   UNL     1      -7.985 -10.214  -2.340  0.00  0.00    -0.176 NA
ATOM     27  C   UNL     1      -8.204 -11.068  -3.307  0.00  0.00    +0.072 C 
ATOM     28  C   UNL     1      -9.024 -10.658  -4.503  0.00  0.00    +0.068 C 
BRANCH  27  29
ATOM     29  C   UNL     1      -7.654 -12.421  -3.227  0.00  0.00    +0.036 A 
ATOM     30  C   UNL     1      -6.887 -12.995  -2.225  0.00  0.00    +0.019 A 
ATOM     31  C   UNL     1      -6.483 -14.300  -2.378  0.00  0.00    +0.028 A 
ATOM     32  C   UNL     1      -6.844 -14.981  -3.499  0.00  0.00    +0.079 A 
ATOM     33  S   UNL     1      -7.800 -13.767  -4.391  0.00  0.00    -0.076 S 
ATOM     34 CL   UNL     1      -6.476 -16.618  -3.944  0.00  0.00    -0.076 Cl
ENDBRANCH  27  29
ENDBRANCH  22  26
ENDBRANCH  19  20
ENDBRANCH   5  19
TORSDOF 8
