REMARK  Name = ZINC02328763
REMARK  11 active torsions:
REMARK  status: ('A' for Active; 'I' for Inactive)
REMARK    1  A    between atoms: C_1  and  C_2
REMARK    2  A    between atoms: C_2  and  C_36
REMARK    3  A    between atoms: C_7  and  C_35
REMARK    4  A    between atoms: C_10  and  N_11
REMARK    5  A    between atoms: C_10  and  N_70
REMARK    6  A    between atoms: N_19  and  N_20
REMARK    7  A    between atoms: C_21  and  C_23
REMARK    8  A    between atoms: C_23  and  O_24
REMARK    9  A    between atoms: O_24  and  C_25
REMARK   10  A    between atoms: C_28  and  O_31
REMARK   11  A    between atoms: O_31  and  C_32
REMARK                            x       y       z     vdW  Elec       q    Type
REMARK                         _______ _______ _______ _____ _____    ______ ____
ROOT
ATOM      1  N   UNL     1       0.002  -0.004   0.002  0.00  0.00    -0.282 N 
ATOM      2  C   UNL     1       1.303  -0.495  -0.013  0.00  0.00    +0.044 A 
ATOM      3  C   UNL     1       1.800  -1.794  -0.025  0.00  0.00    +0.024 A 
ATOM      4  C   UNL     1       3.163  -2.014  -0.038  0.00  0.00    +0.002 A 
ATOM      5  C   UNL     1       4.049  -0.950  -0.041  0.00  0.00    +0.001 A 
ATOM      6  C   UNL     1       3.574   0.346  -0.030  0.00  0.00    +0.012 A 
ATOM      7  C   UNL     1       2.203   0.578  -0.016  0.00  0.00    +0.028 A 
ATOM      8  C   UNL     1       1.383   1.812  -0.001  0.00  0.00    +0.153 C 
ATOM      9  N   UNL     1       1.807   3.052   0.001  0.00  0.00    -0.174 NA
ATOM     10  C   UNL     1      -0.016   1.340   0.009  0.00  0.00    +0.270 C 
ATOM     11  O   UNL     1      -1.009   2.043   0.018  0.00  0.00    -0.268 OA
ENDROOT
BRANCH   9  12
ATOM     12  N   UNL     1       0.886   4.108   0.016  0.00  0.00    -0.203 N 
ATOM     13  C   UNL     1       1.322   5.383   0.019  0.00  0.00    +0.270 C 
ATOM     14  O   UNL     1       2.512   5.617   0.008  0.00  0.00    -0.270 OA
ATOM     15  H   UNL     1      -0.066   3.920   0.025  0.00  0.00    +0.177 HD
BRANCH  13  16
ATOM     16  C   UNL     1       0.331   6.518   0.035  0.00  0.00    +0.326 C 
BRANCH  16  17
ATOM     17  O   UNL     1       1.032   7.763   0.035  0.00  0.00    -0.483 OA
BRANCH  17  18
ATOM     18  C   UNL     1       0.280   8.896   0.049  0.00  0.00    +0.121 A 
ATOM     19  C   UNL     1      -1.104   8.809   0.056  0.00  0.00    +0.049 A 
ATOM     20  C   UNL     1      -1.869   9.959   0.074  0.00  0.00    +0.049 A 
ATOM     21  C   UNL     1      -1.252  11.201   0.076  0.00  0.00    +0.120 A 
ATOM     22  C   UNL     1       0.133  11.288   0.063  0.00  0.00    +0.049 A 
ATOM     23  C   UNL     1       0.897  10.138   0.049  0.00  0.00    +0.049 A 
BRANCH  21  24
ATOM     24  O   UNL     1      -2.004  12.334   0.090  0.00  0.00    -0.495 OA
ATOM     25  C   UNL     1      -3.424  12.170   0.103  0.00  0.00    +0.277 C 
ENDBRANCH  21  24
ENDBRANCH  17  18
ENDBRANCH  16  17
ENDBRANCH  13  16
ENDBRANCH   9  12
BRANCH   1  26
ATOM     26  C   UNL     1      -1.197  -0.846   0.009  0.00  0.00    +0.039 C 
BRANCH  26  37
ATOM     27  C   UNL     1      -2.373  -4.115   0.502  0.00  0.00    +0.011 C 
ATOM     28  C   UNL     1      -3.243  -3.723  -0.709  0.00  0.00    -0.036 C 
ATOM     29  C   UNL     1      -3.654  -2.273  -0.573  0.00  0.00    -0.009 C 
ATOM     30  C   UNL     1      -3.052  -1.296  -1.568  0.00  0.00    -0.065 C 
ATOM     31  C   UNL     1      -3.123  -1.962  -2.971  0.00  0.00    -0.011 C 
ATOM     32  C   UNL     1      -1.979  -3.002  -2.818  0.00  0.00    -0.048 C 
ATOM     33  C   UNL     1      -2.535  -4.150  -1.978  0.00  0.00    +0.011 C 
ATOM     34  C   UNL     1      -0.916  -2.256  -1.977  0.00  0.00    -0.070 C 
ATOM     35  C   UNL     1      -1.428  -3.469  -4.173  0.00  0.00    +0.009 C 
ATOM     36  C   UNL     1      -4.534  -4.576  -0.599  0.00  0.00    +0.011 C 
ATOM     37  N   UNL     1      -1.595  -1.086  -1.421  0.00  0.00    +0.393 N 
ATOM     38  H   UNL     1      -1.326  -0.259  -1.967  0.00  0.00    -0.079 HD
ENDBRANCH  26  37
ENDBRANCH   1  26
TORSDOF 7
