REMARK  Name = ZINC39684012
REMARK  11 active torsions:
REMARK  status: ('A' for Active; 'I' for Inactive)
REMARK    1  A    between atoms: C_1  and  C_2
REMARK    2  A    between atoms: C_2  and  C_4
REMARK    3  A    between atoms: C_2  and  N_8
REMARK    4  A    between atoms: N_6  and  C_7
REMARK    5  A    between atoms: C_9  and  C_11
REMARK    6  A    between atoms: C_22  and  C_24
REMARK    7  A    between atoms: C_24  and  C_26
REMARK    8  A    between atoms: C_24  and  O_29
REMARK    9  A    between atoms: C_26  and  C_27
REMARK   10  A    between atoms: C_26  and  C_28
REMARK   11  A    between atoms: O_29  and  C_30
REMARK                            x       y       z     vdW  Elec       q    Type
REMARK                         _______ _______ _______ _____ _____    ______ ____
ROOT
ATOM      1  C   UNL     1      -3.481  -1.142  -1.237  0.00  0.00    +0.100 C 
ATOM      2  C   UNL     1      -4.348  -0.261  -0.309  0.00  0.00    +0.121 C 
ATOM      3  N   UNL     1      -5.017   0.697  -1.220  0.00  0.00    -0.297 N 
ATOM      4  C   UNL     1      -5.365  -0.111  -2.413  0.00  0.00    +0.115 C 
ATOM      5  C   UNL     1      -4.154  -1.044  -2.616  0.00  0.00    -0.004 C 
ATOM      6  C   UNL     1      -4.620  -2.421  -3.076  0.00  0.00    -0.010 C 
ATOM      7  C   UNL     1      -5.233  -2.308  -4.475  0.00  0.00    -0.082 C 
ATOM      8  N   UNL     1      -4.234  -1.770  -5.407  0.00  0.00    +0.379 N 
ATOM      9  C   UNL     1      -3.861  -0.407  -5.009  0.00  0.00    -0.082 C 
ATOM     10  C   UNL     1      -3.189  -0.441  -3.633  0.00  0.00    -0.010 C 
ATOM     11  C   UNL     1      -5.257   2.006  -1.010  0.00  0.00    +0.257 C 
ATOM     12  O   UNL     1      -5.821   2.663  -1.859  0.00  0.00    -0.272 OA
ATOM     13  H   UNL     1      -3.415  -2.359  -5.396  0.00  0.00    -0.086 HD
ATOM     14  H   UNL     1      -4.620  -1.753  -6.339  0.00  0.00    -0.086 HD
ENDROOT
BRANCH   1  16
ATOM     15  N   UNL     1      -1.042  -1.452  -1.507  0.00  0.00    -0.304 N 
ATOM     16  C   UNL     1      -2.073  -0.609  -1.301  0.00  0.00    +0.219 C 
ATOM     17  O   UNL     1      -1.867   0.579  -1.167  0.00  0.00    -0.275 OA
ATOM     18  H   UNL     1      -1.206  -2.402  -1.614  0.00  0.00    +0.149 HD
BRANCH  15  20
ATOM     19  C   UNL     1       0.894  -0.820  -0.153  0.00  0.00    +0.038 C 
ATOM     20  C   UNL     1       0.327  -0.934  -1.570  0.00  0.00    +0.156 C 
BRANCH  20  21
ATOM     21  C   UNL     1       1.183  -1.873  -2.380  0.00  0.00    +0.233 C 
ATOM     22  O   UNL     1       0.698  -2.876  -2.858  0.00  0.00    -0.274 OA
ATOM     23  N   UNL     1       2.488  -1.598  -2.573  0.00  0.00    -0.317 N 
ATOM     24  C   UNL     1       3.320  -2.511  -3.361  0.00  0.00    +0.128 C 
ATOM     25  H   UNL     1       2.877  -0.796  -2.191  0.00  0.00    +0.148 HD
ENDBRANCH  20  21
ENDBRANCH  15  20
ENDBRANCH   1  16
BRANCH  11  26
ATOM     26  C   UNL     1      -4.824   2.655   0.280  0.00  0.00    +0.261 C 
BRANCH  26  27
ATOM     27  C   UNL     1      -5.605   2.044   1.445  0.00  0.00    +0.033 C 
ATOM     28  C   UNL     1      -5.165   2.703   2.754  0.00  0.00    +0.011 C 
ATOM     29  C   UNL     1      -7.102   2.279   1.234  0.00  0.00    +0.011 C 
ENDBRANCH  26  27
BRANCH  26  30
ATOM     30  O   UNL     1      -5.081   4.059   0.217  0.00  0.00    -0.479 OA
BRANCH  30  31
ATOM     31  C   UNL     1      -4.213   4.875   0.870  0.00  0.00    +0.122 A 
ATOM     32  C   UNL     1      -3.088   4.344   1.484  0.00  0.00    +0.045 A 
ATOM     33  C   UNL     1      -2.207   5.176   2.147  0.00  0.00    +0.004 A 
ATOM     34  C   UNL     1      -2.445   6.537   2.199  0.00  0.00    +0.000 A 
ATOM     35  C   UNL     1      -3.566   7.069   1.588  0.00  0.00    +0.004 A 
ATOM     36  C   UNL     1      -4.447   6.242   0.919  0.00  0.00    +0.045 A 
ENDBRANCH  30  31
ENDBRANCH  26  30
ENDBRANCH  11  26
TORSDOF 7
