REMARK  Name = ZINC41584849
REMARK  7 active torsions:
REMARK  status: ('A' for Active; 'I' for Inactive)
REMARK    1  A    between atoms: C_1  and  C_2
REMARK    2  A    between atoms: C_4  and  O_34
REMARK    3  A    between atoms: C_5  and  C_20
REMARK    4  A    between atoms: C_11  and  C_12
REMARK    5  A    between atoms: C_20  and  N_21
REMARK    6  A    between atoms: N_24  and  C_27
REMARK    7  A    between atoms: C_27  and  C_28
REMARK                            x       y       z     vdW  Elec       q    Type
REMARK                         _______ _______ _______ _____ _____    ______ ____
ROOT
ATOM      1  C   UNL     1      -0.660   1.599   0.133  0.00  0.00    +0.045 C 
ATOM      2  C   UNL     1      -0.762   0.096   0.112  0.00  0.00    -0.033 A 
ATOM      3  C   UNL     1      -1.039  -0.555  -1.057  0.00  0.00    +0.050 A 
ATOM      4  C   UNL     1      -1.133  -1.944  -1.079  0.00  0.00    +0.122 A 
ATOM      5  C   UNL     1      -0.948  -2.681   0.080  0.00  0.00    +0.020 A 
ATOM      6  C   UNL     1      -0.667  -2.035   1.277  0.00  0.00    +0.145 A 
ATOM      7  C   UNL     1      -0.569  -0.634   1.286  0.00  0.00    +0.071 A 
ATOM      8  C   UNL     1      -0.259  -0.248   2.674  0.00  0.00    +0.232 C 
ATOM      9  O   UNL     1      -0.096   0.876   3.117  0.00  0.00    -0.283 OA
ATOM     10  C   UNL     1      -0.192  -1.523   3.405  0.00  0.00    +0.176 C 
ATOM     11  C   UNL     1       0.069  -1.676   4.728  0.00  0.00    +0.059 C 
ATOM     12  O   UNL     1      -0.449  -2.515   2.521  0.00  0.00    -0.451 OA
ENDROOT
BRANCH  11  13
ATOM     13  C   UNL     1      -0.017  -3.006   5.345  0.00  0.00    -0.007 A 
ATOM     14  C   UNL     1      -0.009  -4.155   4.545  0.00  0.00    +0.009 A 
ATOM     15  C   UNL     1      -0.091  -5.399   5.131  0.00  0.00    +0.001 A 
ATOM     16  C   UNL     1      -0.181  -5.516   6.508  0.00  0.00    +0.001 A 
ATOM     17  C   UNL     1      -0.190  -4.387   7.307  0.00  0.00    +0.016 A 
ATOM     18  C   UNL     1      -0.102  -3.133   6.737  0.00  0.00    +0.025 A 
ATOM     19 BR   UNL     1      -0.106  -1.591   7.831  0.00  0.00    -0.050 Br
ENDBRANCH  11  13
BRANCH   4  20
ATOM     20  O   UNL     1      -1.408  -2.581  -2.245  0.00  0.00    -0.506 OA
ATOM     21  H   UNL     1      -0.624  -2.822  -2.757  0.00  0.00    +0.292 HD
ENDBRANCH   4  20
BRANCH   5  22
ATOM     22  C   UNL     1      -1.054  -4.184   0.042  0.00  0.00    -0.035 C 
BRANCH  22  23
ATOM     23  N   UNL     1       0.267  -4.761  -0.243  0.00  0.00    +0.384 N 
ATOM     24  C   UNL     1       0.694  -4.365  -1.591  0.00  0.00    -0.063 C 
ATOM     25  C   UNL     1       2.078  -4.949  -1.881  0.00  0.00    +0.066 C 
ATOM     26  N   UNL     1       2.019  -6.414  -1.777  0.00  0.00    -0.302 NA
ATOM     27  C   UNL     1       1.569  -6.825  -0.440  0.00  0.00    +0.066 C 
ATOM     28  C   UNL     1       0.189  -6.225  -0.162  0.00  0.00    -0.063 C 
ATOM     29  H   UNL     1       0.934  -4.421   0.434  0.00  0.00    -0.081 HD
BRANCH  26  30
ATOM     30  C   UNL     1       3.318  -7.018  -2.104  0.00  0.00    +0.119 C 
BRANCH  30  31
ATOM     31  C   UNL     1       3.161  -8.511  -2.228  0.00  0.00    -0.033 A 
ATOM     32  C   UNL     1       3.321  -9.318  -1.117  0.00  0.00    +0.005 A 
ATOM     33  C   UNL     1       3.177 -10.688  -1.230  0.00  0.00    +0.000 A 
ATOM     34  C   UNL     1       2.873 -11.252  -2.455  0.00  0.00    +0.000 A 
ATOM     35  C   UNL     1       2.712 -10.445  -3.566  0.00  0.00    +0.000 A 
ATOM     36  C   UNL     1       2.852  -9.075  -3.452  0.00  0.00    +0.005 A 
ENDBRANCH  30  31
ENDBRANCH  26  30
ENDBRANCH  22  23
ENDBRANCH   5  22
TORSDOF 6
