REMARK  Name = ZINC30961777
REMARK  9 active torsions:
REMARK  status: ('A' for Active; 'I' for Inactive)
REMARK    1  A    between atoms: C_1  and  C_2
REMARK    2  A    between atoms: C_2  and  C_3
REMARK    3  A    between atoms: C_2  and  C_4
REMARK    4  A    between atoms: C_4  and  C_6
REMARK    5  A    between atoms: C_4  and  N_21
REMARK    6  A    between atoms: N_8  and  N_9
REMARK    7  A    between atoms: C_10  and  C_11
REMARK    8  A    between atoms: C_15  and  N_17
REMARK    9  A    between atoms: C_22  and  C_24
REMARK                            x       y       z     vdW  Elec       q    Type
REMARK                         _______ _______ _______ _____ _____    ______ ____
ROOT
ATOM      1  C   UNL     1       4.056  -4.420  -0.082  0.00  0.00    +0.253 C 
ATOM      2  O   UNL     1       4.404  -3.505  -0.797  0.00  0.00    -0.272 OA
ATOM      3  N   UNL     1       4.653  -5.624  -0.188  0.00  0.00    -0.205 N 
ATOM      4  H   UNL     1       4.305  -6.467   0.426  0.00  0.00    +0.177 HD
ENDROOT
BRANCH   3   5
ATOM      5  N   UNL     1       5.718  -5.801  -1.082  0.00  0.00    -0.188 NA
ATOM      6  C   UNL     1       6.231  -6.980  -1.254  0.00  0.00    +0.138 C 
BRANCH   6   7
ATOM      7  C   UNL     1       5.431  -8.183  -0.957  0.00  0.00    -0.003 A 
ATOM      8  C   UNL     1       4.056  -8.073  -0.733  0.00  0.00    +0.011 A 
ATOM      9  C   UNL     1       3.313  -9.202  -0.462  0.00  0.00    +0.018 A 
ATOM     10  C   UNL     1       3.928 -10.442  -0.401  0.00  0.00    +0.048 A 
ATOM     11  C   UNL     1       5.290 -10.557  -0.616  0.00  0.00    +0.141 A 
ATOM     12  C   UNL     1       6.045  -9.436  -0.894  0.00  0.00    +0.043 A 
ATOM     13 BR   UNL     1       2.901 -11.984  -0.021  0.00  0.00    -0.048 Br
BRANCH  11  14
ATOM     14  N   UNL     1       5.939 -11.885  -0.548  0.00  0.00    +0.058 N 
ATOM     15  O   UNL     1       7.138 -11.988  -0.738  0.00  0.00    -0.126 OA
ATOM     16  O   UNL     1       5.275 -12.876  -0.303  0.00  0.00    -0.126 OA
ENDBRANCH  11  14
ENDBRANCH   6   7
ENDBRANCH   3   5
BRANCH   1  17
ATOM     17  C   UNL     1       2.955  -4.212   0.926  0.00  0.00    +0.163 C 
BRANCH  17  18
ATOM     18  N   UNL     1       2.252  -2.961   0.630  0.00  0.00    -0.300 N 
ATOM     19  C   UNL     1       0.975  -2.795   1.028  0.00  0.00    +0.245 C 
ATOM     20  O   UNL     1       0.407  -3.683   1.632  0.00  0.00    -0.270 OA
ATOM     21  H   UNL     1       2.767  -2.157   0.083  0.00  0.00    +0.150 HD
BRANCH  19  22
ATOM     22  C   UNL     1       0.267  -1.533   0.729  0.00  0.00    +0.037 A 
ATOM     23  C   UNL     1      -1.056  -1.358   1.140  0.00  0.00    +0.014 A 
ATOM     24  C   UNL     1      -1.712  -0.178   0.858  0.00  0.00    +0.021 A 
ATOM     25  C   UNL     1      -1.062   0.832   0.169  0.00  0.00    +0.041 A 
ATOM     26  C   UNL     1       0.250   0.664  -0.241  0.00  0.00    +0.021 A 
ATOM     27  C   UNL     1       0.917  -0.511   0.035  0.00  0.00    +0.014 A 
ATOM     28 CL   UNL     1      -1.895   2.314  -0.183  0.00  0.00    -0.084 Cl
ENDBRANCH  19  22
ENDBRANCH  17  18
BRANCH  17  30
ATOM     29  C   UNL     1       2.438  -3.930   3.354  0.00  0.00    +0.009 C 
ATOM     30  C   UNL     1       3.556  -4.139   2.330  0.00  0.00    +0.012 C 
ATOM     31  C   UNL     1       4.292  -5.445   2.639  0.00  0.00    +0.009 C 
ENDBRANCH  17  30
ENDBRANCH   1  17
TORSDOF 7
