REMARK  Name = ZINC39143409
REMARK  6 active torsions:
REMARK  status: ('A' for Active; 'I' for Inactive)
REMARK    1  A    between atoms: C_1  and  C_2
REMARK    2  A    between atoms: N_9  and  C_10
REMARK    3  A    between atoms: C_13  and  O_16
REMARK    4  A    between atoms: O_16  and  C_17
REMARK    5  A    between atoms: C_20  and  N_23
REMARK    6  A    between atoms: C_28  and  C_32
REMARK                            x       y       z     vdW  Elec       q    Type
REMARK                         _______ _______ _______ _____ _____    ______ ____
ROOT
ATOM      1  O   UNL     1      -4.486  -6.736   0.213  0.00  0.00    -0.456 OA
ENDROOT
BRANCH   1   5
ATOM      2  C   UNL     1      -3.867  -4.925  -3.444  0.00  0.00    +0.034 A 
ATOM      3  C   UNL     1      -3.741  -6.303  -3.321  0.00  0.00    +0.027 A 
ATOM      4  C   UNL     1      -3.948  -6.908  -2.097  0.00  0.00    +0.048 A 
ATOM      5  C   UNL     1      -4.282  -6.140  -0.991  0.00  0.00    +0.129 A 
ATOM      6  C   UNL     1      -4.408  -4.763  -1.113  0.00  0.00    +0.048 A 
ATOM      7  C   UNL     1      -4.195  -4.156  -2.335  0.00  0.00    +0.027 A 
BRANCH   2  16
ATOM      8  C   UNL     1      -6.582   0.236  -6.177  0.00  0.00    +0.073 C 
ATOM      9  C   UNL     1      -5.783  -0.983  -5.796  0.00  0.00    +0.124 A 
ATOM     10  C   UNL     1      -6.070  -1.703  -4.552  0.00  0.00    +0.296 A 
ATOM     11  O   UNL     1      -6.962  -1.320  -3.810  0.00  0.00    -0.264 OA
ATOM     12  N   UNL     1      -5.347  -2.783  -4.235  0.00  0.00    -0.174 NA
ATOM     13  C   UNL     1      -4.383  -3.202  -5.032  0.00  0.00    +0.217 A 
ATOM     14  N   UNL     1      -4.097  -2.554  -6.190  0.00  0.00    -0.248 N 
ATOM     15  N   UNL     1      -4.828  -1.420  -6.571  0.00  0.00    -0.171 NA
ATOM     16  N   UNL     1      -3.656  -4.311  -4.684  0.00  0.00    -0.284 N 
ATOM     17  H   UNL     1      -2.997  -4.670  -5.298  0.00  0.00    +0.155 HD
ATOM     18  H   UNL     1      -3.384  -2.880  -6.760  0.00  0.00    +0.192 HD
ENDBRANCH   2  16
ENDBRANCH   1   5
BRANCH   1  19
ATOM     19  C   UNL     1      -4.245  -8.070   0.314  0.00  0.00    +0.129 A 
ATOM     20  C   UNL     1      -2.941  -8.544   0.266  0.00  0.00    +0.048 A 
ATOM     21  C   UNL     1      -2.695  -9.899   0.368  0.00  0.00    +0.027 A 
ATOM     22  C   UNL     1      -3.753 -10.787   0.519  0.00  0.00    +0.034 A 
ATOM     23  C   UNL     1      -5.057 -10.311   0.568  0.00  0.00    +0.027 A 
ATOM     24  C   UNL     1      -5.301  -8.956   0.471  0.00  0.00    +0.048 A 
BRANCH  22  25
ATOM     25  N   UNL     1      -3.504 -12.160   0.623  0.00  0.00    -0.286 N 
ATOM     26  C   UNL     1      -4.384 -13.054   0.090  0.00  0.00    +0.205 C 
ATOM     27  N   UNL     1      -5.395 -12.582  -0.610  0.00  0.00    -0.146 NA
ATOM     28  C   UNL     1      -6.290 -13.417  -1.157  0.00  0.00    +0.265 C 
ATOM     29  O   UNL     1      -7.231 -13.006  -1.807  0.00  0.00    -0.271 OA
ATOM     30  C   UNL     1      -6.072 -14.901  -0.925  0.00  0.00    +0.210 C 
ATOM     31  N   UNL     1      -4.896 -15.275  -0.121  0.00  0.00    -0.197 NA
ATOM     32  N   UNL     1      -4.160 -14.378   0.310  0.00  0.00    -0.254 N 
ATOM     33  C   UNL     1      -7.316 -15.461  -0.233  0.00  0.00    +0.044 C 
ATOM     34  H   UNL     1      -2.705 -12.476   1.074  0.00  0.00    +0.155 HD
ATOM     35  H   UNL     1      -3.385 -14.632   0.836  0.00  0.00    +0.191 HD
ENDBRANCH  22  25
ENDBRANCH   1  19
TORSDOF 4
