REMARK  Name = ZINC52588357
REMARK  9 active torsions:
REMARK  status: ('A' for Active; 'I' for Inactive)
REMARK    1  A    between atoms: C_1  and  C_2
REMARK    2  A    between atoms: C_7  and  C_9
REMARK    3  A    between atoms: C_7  and  N_26
REMARK    4  A    between atoms: C_9  and  N_10
REMARK    5  A    between atoms: N_16  and  C_19
REMARK    6  A    between atoms: C_19  and  C_20
REMARK    7  A    between atoms: N_22  and  C_23
REMARK    8  A    between atoms: N_26  and  C_27
REMARK    9  A    between atoms: N_26  and  C_28
REMARK                            x       y       z     vdW  Elec       q    Type
REMARK                         _______ _______ _______ _____ _____    ______ ____
ROOT
ATOM      1  N   UNL     1      -0.697  -3.974   1.050  0.00  0.00    -0.301 N 
ATOM      2  C   UNL     1      -1.859  -4.627   0.850  0.00  0.00    +0.302 C 
ATOM      3  O   UNL     1      -2.904  -4.007   0.802  0.00  0.00    -0.253 OA
ATOM      4  N   UNL     1      -1.862  -5.966   0.702  0.00  0.00    -0.283 N 
ATOM      5  C   UNL     1      -3.101  -6.686   0.368  0.00  0.00    +0.124 C 
ATOM      6  C   UNL     1      -2.829  -7.591  -0.838  0.00  0.00    +0.104 C 
ATOM      7  N   UNL     1      -1.670  -8.448  -0.551  0.00  0.00    -0.291 NA
ATOM      8  C   UNL     1      -0.452  -7.650  -0.356  0.00  0.00    +0.104 C 
ATOM      9  C   UNL     1      -0.626  -6.747   0.863  0.00  0.00    +0.124 C 
ATOM     10  H   UNL     1       0.126  -4.473   1.168  0.00  0.00    +0.150 HD
ENDROOT
BRANCH   1  11
ATOM     11  C   UNL     1      -0.677  -2.509   1.090  0.00  0.00    +0.094 C 
BRANCH  11  17
ATOM     12  C   UNL     1       0.162   1.626   0.130  0.00  0.00    +0.007 C 
ATOM     13  C   UNL     1       0.145   0.099   0.039  0.00  0.00    -0.015 C 
ATOM     14  C   UNL     1       0.932  -0.347  -1.195  0.00  0.00    +0.003 C 
ATOM     15  C   UNL     1       0.914  -1.874  -1.287  0.00  0.00    -0.001 C 
ATOM     16  C   UNL     1       1.555  -2.468  -0.031  0.00  0.00    -0.010 C 
ATOM     17  C   UNL     1       0.768  -2.022   1.203  0.00  0.00    -0.050 C 
ATOM     18  C   UNL     1       0.786  -0.495   1.295  0.00  0.00    -0.007 C 
BRANCH  17  19
ATOM     19  N   UNL     1       1.384  -2.592   2.409  0.00  0.00    +0.381 N 
ATOM     20  C   UNL     1       2.738  -2.045   2.573  0.00  0.00    -0.096 C 
ATOM     21  C   UNL     1       0.571  -2.248   3.583  0.00  0.00    -0.096 C 
ATOM     22  H   UNL     1       1.436  -3.595   2.318  0.00  0.00    -0.082 HD
ENDBRANCH  17  19
ENDBRANCH  11  17
ENDBRANCH   1  11
BRANCH   7  23
ATOM     23  C   UNL     1      -1.481  -9.449  -1.610  0.00  0.00    +0.180 C 
BRANCH  23  24
ATOM     24  C   UNL     1      -0.450 -10.456  -1.170  0.00  0.00    +0.227 C 
ATOM     25  O   UNL     1       0.075 -10.351  -0.082  0.00  0.00    -0.274 OA
ATOM     26  N   UNL     1      -0.111 -11.474  -1.986  0.00  0.00    -0.311 N 
ATOM     27  H   UNL     1      -0.531 -11.558  -2.856  0.00  0.00    +0.149 HD
BRANCH  26  28
ATOM     28  C   UNL     1       0.891 -12.453  -1.559  0.00  0.00    +0.073 C 
ATOM     29  C   UNL     1       1.947 -12.876  -2.582  0.00  0.00    +0.024 C 
ATOM     30  C   UNL     1       0.831 -13.846  -2.189  0.00  0.00    +0.024 C 
ENDBRANCH  26  28
ENDBRANCH  23  24
ENDBRANCH   7  23
TORSDOF 6
