REMARK  Name = ZINC10538567
REMARK  7 active torsions:
REMARK  status: ('A' for Active; 'I' for Inactive)
REMARK    1  A    between atoms: C_3  and  C_9
REMARK    2  A    between atoms: C_12  and  S_15
REMARK    3  A    between atoms: N_13  and  N_14
REMARK    4  A    between atoms: S_15  and  C_16
REMARK    5  A    between atoms: C_16  and  C_17
REMARK    6  A    between atoms: N_19  and  C_20
REMARK    7  A    between atoms: C_21  and  C_29
REMARK                            x       y       z     vdW  Elec       q    Type
REMARK                         _______ _______ _______ _____ _____    ______ ____
ROOT
ATOM      1  C   UNL     1      -0.025  -1.932  -3.593  0.00  0.00    +0.173 C 
ENDROOT
BRANCH   1   2
ATOM      2  C   UNL     1      -0.050  -1.741  -5.087  0.00  0.00    +0.228 C 
ATOM      3  O   UNL     1      -0.071  -0.623  -5.556  0.00  0.00    -0.275 OA
ATOM      4  N   UNL     1      -0.048  -2.814  -5.904  0.00  0.00    -0.279 N 
ATOM      5  H   UNL     1      -0.030  -3.708  -5.529  0.00  0.00    +0.155 HD
BRANCH   4   6
ATOM      6  C   UNL     1      -0.070  -2.638  -7.279  0.00  0.00    +0.084 A 
ATOM      7  C   UNL     1      -0.066  -3.607  -8.272  0.00  0.00    +0.068 A 
ATOM      8  C   UNL     1      -0.097  -3.155  -9.652  0.00  0.00    -0.023 A 
ATOM      9  C   UNL     1      -0.117  -1.814  -9.818  0.00  0.00    -0.004 A 
ATOM     10  S   UNL     1      -0.102  -1.155  -8.175  0.00  0.00    -0.077 S 
ATOM     11  C   UNL     1      -0.144  -1.064 -11.114  0.00  0.00    +0.043 C 
ATOM     12  C   UNL     1       0.232  -2.036 -12.242  0.00  0.00    +0.005 C 
ATOM     13  C   UNL     1      -0.586  -3.320 -12.080  0.00  0.00    +0.005 C 
ATOM     14  C   UNL     1      -0.102  -4.093 -10.852  0.00  0.00    +0.037 C 
BRANCH   7  15
ATOM     15  C   UNL     1      -0.036  -5.035  -7.941  0.00  0.00    +0.244 C 
ATOM     16  O   UNL     1      -1.077  -5.647  -7.789  0.00  0.00    -0.270 OA
ATOM     17  N   UNL     1       1.145  -5.671  -7.804  0.00  0.00    -0.325 N 
ATOM     18  H   UNL     1       1.975  -5.183  -7.925  0.00  0.00    +0.145 HD
ATOM     19  H   UNL     1       1.165  -6.615  -7.585  0.00  0.00    +0.145 HD
ENDBRANCH   7  15
ENDBRANCH   4   6
ENDBRANCH   1   2
BRANCH   1  20
ATOM     20  S   UNL     1      -0.035  -0.316  -2.778  0.00  0.00    -0.075 S 
BRANCH  20  24
ATOM     21  C   UNL     1       0.024  -0.841   1.094  0.00  0.00    +0.183 A 
ATOM     22  N   UNL     1       0.035  -2.071   0.635  0.00  0.00    -0.127 NA
ATOM     23  N   UNL     1       0.023  -2.061  -0.649  0.00  0.00    -0.121 NA
ATOM     24  C   UNL     1      -0.003  -0.824  -1.091  0.00  0.00    +0.209 A 
ATOM     25  N   UNL     1       0.002  -0.004   0.002  0.00  0.00    -0.224 N 
BRANCH  21  28
ATOM     26  C   UNL     1       0.029   1.296   4.181  0.00  0.00    +0.021 A 
ATOM     27  C   UNL     1       0.025   0.921   2.854  0.00  0.00    +0.014 A 
ATOM     28  C   UNL     1       0.033  -0.432   2.514  0.00  0.00    +0.039 A 
ATOM     29  C   UNL     1       0.056  -1.400   3.522  0.00  0.00    +0.053 A 
ATOM     30  C   UNL     1       0.064  -1.011   4.847  0.00  0.00    +0.040 A 
ATOM     31  C   UNL     1       0.051   0.334   5.176  0.00  0.00    +0.042 A 
ATOM     32 CL   UNL     1       0.063   0.815   6.845  0.00  0.00    -0.083 Cl
ATOM     33 CL   UNL     1       0.073  -3.086   3.110  0.00  0.00    -0.083 Cl
ENDBRANCH  21  28
BRANCH  25  34
ATOM     34  N   UNL     1      -0.016   1.362   0.009  0.00  0.00    -0.295 N 
ATOM     35  H   UNL     1       0.920   1.736   0.003  0.00  0.00    +0.163 HD
ATOM     36  H   UNL     1      -0.555   1.720  -0.765  0.00  0.00    +0.163 HD
ENDBRANCH  25  34
ENDBRANCH  20  24
ENDBRANCH   1  20
TORSDOF 7
