REMARK  Name = ZINC02631282
REMARK  16 active torsions:
REMARK  status: ('A' for Active; 'I' for Inactive)
REMARK    1  A    between atoms: C_1  and  C_2
REMARK    2  A    between atoms: C_4  and  C_27
REMARK    3  A    between atoms: C_7  and  O_8
REMARK    4  A    between atoms: O_8  and  C_9
REMARK    5  A    between atoms: C_9  and  C_10
REMARK    6  A    between atoms: C_10  and  C_12
REMARK    7  A    between atoms: C_10  and  O_26
REMARK    8  A    between atoms: C_12  and  N_60
REMARK    9  A    between atoms: C_13  and  C_15
REMARK   10  A    between atoms: C_13  and  C_16
REMARK   11  A    between atoms: C_13  and  N_60
REMARK   12  A    between atoms: C_19  and  S_22
REMARK   13  A    between atoms: S_22  and  N_25
REMARK   14  A    between atoms: C_27  and  C_28
REMARK   15  A    between atoms: C_27  and  C_29
REMARK   16  A    between atoms: C_27  and  C_30
REMARK                            x       y       z     vdW  Elec       q    Type
REMARK                         _______ _______ _______ _____ _____    ______ ____
ROOT
ATOM      1  C   UNL     1       1.346   2.010   0.000  0.00  0.00    -0.047 C 
ENDROOT
BRANCH   1   2
ATOM      2  N   UNL     1      -0.027   1.471   0.010  0.00  0.00    +0.385 N 
ATOM      3  H   UNL     1      -0.528   1.804  -0.822  0.00  0.00    -0.085 HD
ATOM      4  H   UNL     1      -0.512   1.795   0.855  0.00  0.00    -0.085 HD
BRANCH   2   5
ATOM      5  C   UNL     1       0.002  -0.004   0.002  0.00  0.00    -0.044 C 
ATOM      6  C   UNL     1       0.121  -0.505  -1.439  0.00  0.00    -0.009 C 
BRANCH   5   7
ATOM      7  C   UNL     1      -1.273  -0.527   0.612  0.00  0.00    -0.062 A 
ATOM      8  C   UNL     1      -2.476   0.096   0.338  0.00  0.00    +0.004 A 
ATOM      9  C   UNL     1      -3.646  -0.387   0.894  0.00  0.00    +0.029 A 
ATOM     10  C   UNL     1      -3.612  -1.486   1.731  0.00  0.00    +0.105 A 
ATOM     11  C   UNL     1      -2.408  -2.106   2.009  0.00  0.00    +0.029 A 
ATOM     12  C   UNL     1      -1.238  -1.626   1.449  0.00  0.00    +0.004 A 
BRANCH  10  13
ATOM     13  S   UNL     1      -5.102  -2.097   2.445  0.00  0.00    +0.056 S 
ATOM     14  O   UNL     1      -6.162  -1.676   1.596  0.00  0.00    -0.153 OA
ATOM     15  O   UNL     1      -4.873  -3.464   2.757  0.00  0.00    -0.153 OA
BRANCH  13  16
ATOM     16  N   UNL     1      -5.312  -1.312   3.888  0.00  0.00    -0.204 NA
ATOM     17  H   UNL     1      -6.206  -1.151   4.227  0.00  0.00    +0.144 HD
ATOM     18  H   UNL     1      -4.540  -1.012   4.394  0.00  0.00    +0.144 HD
ENDBRANCH  13  16
ENDBRANCH  10  13
ENDBRANCH   5   7
ENDBRANCH   2   5
ENDBRANCH   1   2
BRANCH   1  19
ATOM     19  C   UNL     1       1.285   3.539   0.009  0.00  0.00    +0.135 C 
BRANCH  19  20
ATOM     20  O   UNL     1       0.708   3.985   1.238  0.00  0.00    -0.390 OA
ATOM     21  H   UNL     1       1.201   3.715   2.025  0.00  0.00    +0.210 HD
ENDBRANCH  19  20
BRANCH  19  22
ATOM     22  C   UNL     1       2.699   4.107  -0.127  0.00  0.00    +0.258 C 
BRANCH  22  23
ATOM     23  O   UNL     1       2.632   5.530  -0.236  0.00  0.00    -0.489 OA
BRANCH  23  30
ATOM     24  C   UNL     1       2.521   8.343  -0.465  0.00  0.00    +0.047 C 
ATOM     25  C   UNL     1       3.818   7.577  -0.481  0.00  0.00    -0.009 A 
ATOM     26  C   UNL     1       5.018   8.251  -0.607  0.00  0.00    +0.011 A 
ATOM     27  C   UNL     1       6.208   7.549  -0.627  0.00  0.00    -0.042 A 
ATOM     28  C   UNL     1       6.202   6.170  -0.517  0.00  0.00    +0.008 A 
ATOM     29  C   UNL     1       5.006   5.492  -0.386  0.00  0.00    +0.046 A 
ATOM     30  C   UNL     1       3.810   6.195  -0.365  0.00  0.00    +0.124 A 
BRANCH  27  31
ATOM     31  C   UNL     1       7.515   8.286  -0.770  0.00  0.00    -0.013 C 
ATOM     32  C   UNL     1       8.670   7.283  -0.765  0.00  0.00    +0.015 C 
ATOM     33  C   UNL     1       7.520   9.063  -2.089  0.00  0.00    +0.015 C 
ATOM     34  C   UNL     1       7.681   9.261   0.397  0.00  0.00    +0.015 C 
ENDBRANCH  27  31
ENDBRANCH  23  30
ENDBRANCH  22  23
ENDBRANCH  19  22
ENDBRANCH   1  19
TORSDOF 11
