REMARK  Name = ZINC09383551
REMARK  11 active torsions:
REMARK  status: ('A' for Active; 'I' for Inactive)
REMARK    1  A    between atoms: C_1  and  C_2
REMARK    2  A    between atoms: C_2  and  C_3
REMARK    3  A    between atoms: N_9  and  S_10
REMARK    4  A    between atoms: S_10  and  C_13
REMARK    5  A    between atoms: C_16  and  C_19
REMARK    6  A    between atoms: N_21  and  C_22
REMARK    7  A    between atoms: C_23  and  C_34
REMARK    8  A    between atoms: C_27  and  C_32
REMARK    9  A    between atoms: C_27  and  C_33
REMARK   10  A    between atoms: C_28  and  C_30
REMARK   11  A    between atoms: C_28  and  C_31
REMARK                            x       y       z     vdW  Elec       q    Type
REMARK                         _______ _______ _______ _____ _____    ______ ____
ROOT
ATOM      1  C   UNL     1      -7.311  -0.054   0.392  0.00  0.00    +0.249 C 
ATOM      2  O   UNL     1      -8.228   0.605  -0.059  0.00  0.00    -0.270 OA
ATOM      3  N   UNL     1      -7.531  -0.906   1.412  0.00  0.00    -0.275 N 
ATOM      4  H   UNL     1      -6.800  -1.432   1.772  0.00  0.00    +0.156 HD
ENDROOT
BRANCH   3   5
ATOM      5  C   UNL     1      -8.804  -1.032   1.948  0.00  0.00    +0.090 A 
ATOM      6  C   UNL     1      -9.224  -1.850   2.990  0.00  0.00    +0.084 A 
ATOM      7  C   UNL     1     -10.620  -1.788   3.364  0.00  0.00    -0.021 A 
ATOM      8  C   UNL     1     -11.381  -0.935   2.638  0.00  0.00    -0.015 A 
ATOM      9  S   UNL     1     -10.256  -0.210   1.480  0.00  0.00    -0.078 S 
ATOM     10  C   UNL     1     -12.846  -0.691   2.799  0.00  0.00    -0.041 C 
ATOM     11  C   UNL     1     -12.450  -1.761   5.019  0.00  0.00    -0.069 C 
ATOM     12  C   UNL     1     -11.281  -2.591   4.476  0.00  0.00    +0.024 C 
ATOM     13  C   UNL     1     -13.203  -2.627   6.048  0.00  0.00    -0.010 C 
ATOM     14  C   UNL     1     -11.900  -0.535   5.753  0.00  0.00    -0.010 C 
ATOM     15  C   UNL     1     -13.103   0.820   2.893  0.00  0.00    -0.005 C 
ATOM     16  C   UNL     1     -13.566  -1.217   1.542  0.00  0.00    -0.005 C 
ATOM     17  N   UNL     1     -13.439  -1.385   3.977  0.00  0.00    +0.389 N 
ATOM     18  H   UNL     1     -13.903  -2.240   3.649  0.00  0.00    -0.084 HD
ATOM     19  H   UNL     1     -14.134  -0.760   4.403  0.00  0.00    -0.084 HD
BRANCH   6  20
ATOM     20  C   UNL     1      -8.301  -2.717   3.659  0.00  0.00    +0.102 C 
ATOM     21  N   UNL     1      -7.568  -3.405   4.189  0.00  0.00    -0.191 NA
ENDBRANCH   6  20
ENDBRANCH   3   5
BRANCH   1  25
ATOM     22  C   UNL     1      -3.412   0.332  -1.248  0.00  0.00    +0.106 A 
ATOM     23  C   UNL     1      -3.636  -0.548  -0.204  0.00  0.00    +0.029 A 
ATOM     24  C   UNL     1      -4.899  -0.674   0.337  0.00  0.00    +0.015 A 
ATOM     25  C   UNL     1      -5.954   0.080  -0.179  0.00  0.00    +0.037 A 
ATOM     26  C   UNL     1      -5.722   0.962  -1.236  0.00  0.00    +0.015 A 
ATOM     27  C   UNL     1      -4.453   1.083  -1.764  0.00  0.00    +0.029 A 
BRANCH  22  28
ATOM     28  S   UNL     1      -1.795   0.491  -1.929  0.00  0.00    +0.061 S 
ATOM     29  O   UNL     1      -1.944   1.143  -3.183  0.00  0.00    -0.153 OA
ATOM     30  O   UNL     1      -1.173  -0.780  -1.801  0.00  0.00    -0.153 OA
BRANCH  28  36
ATOM     31  C   UNL     1      -1.117   2.984  -1.089  0.00  0.00    +0.080 C 
ATOM     32  C   UNL     1      -1.478   3.570   0.280  0.00  0.00    +0.021 C 
ATOM     33  C   UNL     1      -0.421   3.150   1.304  0.00  0.00    +0.003 C 
ATOM     34  C   UNL     1      -0.396   1.624   1.423  0.00  0.00    +0.017 C 
ATOM     35  C   UNL     1      -0.027   1.016   0.066  0.00  0.00    +0.110 C 
ATOM     36  N   UNL     1      -0.953   1.530  -0.953  0.00  0.00    -0.174 NA
BRANCH  31  38
ATOM     37  C   UNL     1      -2.488   4.790  -2.137  0.00  0.00    +0.005 C 
ATOM     38  C   UNL     1      -2.237   3.282  -2.088  0.00  0.00    +0.017 C 
ENDBRANCH  31  38
ENDBRANCH  28  36
ENDBRANCH  22  28
ENDBRANCH   1  25
TORSDOF 6
