REMARK  Name = ZINC39652789
REMARK  13 active torsions:
REMARK  status: ('A' for Active; 'I' for Inactive)
REMARK    1  A    between atoms: C_1  and  C_2
REMARK    2  A    between atoms: C_2  and  O_3
REMARK    3  A    between atoms: O_3  and  C_4
REMARK    4  A    between atoms: C_9  and  C_10
REMARK    5  A    between atoms: C_10  and  C_11
REMARK    6  A    between atoms: C_11  and  N_12
REMARK    7  A    between atoms: C_13  and  C_15
REMARK    8  A    between atoms: C_26  and  C_28
REMARK    9  A    between atoms: C_28  and  C_30
REMARK   10  A    between atoms: C_28  and  O_33
REMARK   11  A    between atoms: C_30  and  C_31
REMARK   12  A    between atoms: C_30  and  C_32
REMARK   13  A    between atoms: O_33  and  C_34
REMARK                            x       y       z     vdW  Elec       q    Type
REMARK                         _______ _______ _______ _____ _____    ______ ____
ROOT
ATOM      1  C   UNL     1       4.658   0.764  -4.297  0.00  0.00    +0.100 C 
ATOM      2  C   UNL     1       3.980   2.153  -4.264  0.00  0.00    +0.121 C 
ATOM      3  N   UNL     1       5.041   3.076  -3.796  0.00  0.00    -0.297 N 
ATOM      4  C   UNL     1       6.270   2.599  -4.474  0.00  0.00    +0.115 C 
ATOM      5  C   UNL     1       6.160   1.061  -4.439  0.00  0.00    -0.004 C 
ATOM      6  C   UNL     1       6.697   0.463  -5.736  0.00  0.00    -0.010 C 
ATOM      7  C   UNL     1       8.204   0.721  -5.826  0.00  0.00    -0.082 C 
ATOM      8  N   UNL     1       8.876   0.116  -4.670  0.00  0.00    +0.379 N 
ATOM      9  C   UNL     1       8.422   0.762  -3.432  0.00  0.00    -0.082 C 
ATOM     10  C   UNL     1       6.924   0.506  -3.241  0.00  0.00    -0.010 C 
ATOM     11  C   UNL     1       4.917   4.115  -2.947  0.00  0.00    +0.257 C 
ATOM     12  O   UNL     1       5.864   4.841  -2.734  0.00  0.00    -0.272 OA
ATOM     13  H   UNL     1       8.658  -0.869  -4.633  0.00  0.00    -0.086 HD
ATOM     14  H   UNL     1       9.873   0.234  -4.763  0.00  0.00    -0.086 HD
ENDROOT
BRANCH   1  16
ATOM     15  N   UNL     1       4.359  -1.329  -3.013  0.00  0.00    -0.315 N 
ATOM     16  C   UNL     1       4.389   0.019  -3.015  0.00  0.00    +0.218 C 
ATOM     17  O   UNL     1       4.200   0.631  -1.986  0.00  0.00    -0.275 OA
ATOM     18  H   UNL     1       4.582  -1.820  -3.819  0.00  0.00    +0.149 HD
BRANCH  15  19
ATOM     19  C   UNL     1       3.991  -2.051  -1.793  0.00  0.00    +0.109 C 
BRANCH  19  20
ATOM     20  C   UNL     1       4.146  -3.555  -2.024  0.00  0.00    +0.057 C 
BRANCH  20  26
ATOM     21  C   UNL     1       2.312  -4.579  -0.655  0.00  0.00    +0.124 A 
ATOM     22  C   UNL     1       1.870  -5.272   0.463  0.00  0.00    +0.046 A 
ATOM     23  C   UNL     1       2.776  -5.682   1.422  0.00  0.00    +0.004 A 
ATOM     24  C   UNL     1       4.121  -5.401   1.269  0.00  0.00    +0.000 A 
ATOM     25  C   UNL     1       4.563  -4.710   0.157  0.00  0.00    +0.007 A 
ATOM     26  C   UNL     1       3.663  -4.303  -0.809  0.00  0.00    -0.004 A 
BRANCH  21  27
ATOM     27  O   UNL     1       1.423  -4.175  -1.601  0.00  0.00    -0.492 OA
BRANCH  27  29
ATOM     28  C   UNL     1      -0.801  -3.902  -2.506  0.00  0.00    +0.048 C 
ATOM     29  C   UNL     1       0.038  -4.397  -1.326  0.00  0.00    +0.225 C 
ENDBRANCH  27  29
ENDBRANCH  21  27
ENDBRANCH  20  26
ENDBRANCH  19  20
ENDBRANCH  15  19
ENDBRANCH   1  16
BRANCH  11  30
ATOM     30  C   UNL     1       3.600   4.375  -2.262  0.00  0.00    +0.261 C 
BRANCH  30  31
ATOM     31  C   UNL     1       2.574   4.851  -3.293  0.00  0.00    +0.033 C 
ATOM     32  C   UNL     1       1.237   5.115  -2.598  0.00  0.00    +0.011 C 
ATOM     33  C   UNL     1       3.071   6.141  -3.948  0.00  0.00    +0.011 C 
ENDBRANCH  30  31
BRANCH  30  34
ATOM     34  O   UNL     1       3.773   5.381  -1.262  0.00  0.00    -0.479 OA
BRANCH  34  35
ATOM     35  C   UNL     1       4.139   4.962  -0.023  0.00  0.00    +0.122 A 
ATOM     36  C   UNL     1       4.448   3.627   0.197  0.00  0.00    +0.045 A 
ATOM     37  C   UNL     1       4.821   3.204   1.458  0.00  0.00    +0.004 A 
ATOM     38  C   UNL     1       4.885   4.109   2.501  0.00  0.00    +0.000 A 
ATOM     39  C   UNL     1       4.578   5.440   2.285  0.00  0.00    +0.004 A 
ATOM     40  C   UNL     1       4.210   5.869   1.025  0.00  0.00    +0.045 A 
ENDBRANCH  34  35
ENDBRANCH  30  34
ENDBRANCH  11  30
TORSDOF 10
