REMARK  Name = ZINC36073607
REMARK  11 active torsions:
REMARK  status: ('A' for Active; 'I' for Inactive)
REMARK    1  A    between atoms: C_1  and  C_2
REMARK    2  A    between atoms: C_6  and  C_7
REMARK    3  A    between atoms: C_7  and  N_8
REMARK    4  A    between atoms: N_8  and  C_9
REMARK    5  A    between atoms: N_8  and  C_21
REMARK    6  A    between atoms: C_9  and  C_10
REMARK    7  A    between atoms: C_10  and  C_11
REMARK    8  A    between atoms: C_21  and  C_22
REMARK    9  A    between atoms: C_24  and  C_27
REMARK   10  A    between atoms: N_29  and  C_30
REMARK   11  A    between atoms: C_30  and  C_31
REMARK                            x       y       z     vdW  Elec       q    Type
REMARK                         _______ _______ _______ _____ _____    ______ ____
ROOT
ATOM      1  N   UNL     1      -1.351   0.083   3.001  0.00  0.00    +0.389 N 
ATOM      2  H   UNL     1      -1.781   0.605   2.252  0.00  0.00    -0.081 HD
ENDROOT
BRANCH   1   3
ATOM      3  C   UNL     1       0.054  -0.184   2.669  0.00  0.00    -0.035 C 
BRANCH   3   9
ATOM      4  C   UNL     1       0.063   1.183  -0.083  0.00  0.00    +0.044 C 
ATOM      5  C   UNL     1       0.140  -0.313   0.089  0.00  0.00    -0.042 A 
ATOM      6  C   UNL     1       0.226  -1.142  -1.014  0.00  0.00    +0.011 A 
ATOM      7  C   UNL     1       0.293  -2.482  -0.825  0.00  0.00    +0.045 A 
ATOM      8  S   UNL     1       0.237  -2.608   0.955  0.00  0.00    -0.103 S 
ATOM      9  C   UNL     1       0.132  -0.865   1.327  0.00  0.00    -0.024 A 
ENDBRANCH   3   9
ENDBRANCH   1   3
BRANCH   1  10
ATOM     10  C   UNL     1      -1.421   0.864   4.244  0.00  0.00    -0.073 C 
BRANCH  10  11
ATOM     11  C   UNL     1      -0.790   2.239   4.018  0.00  0.00    +0.019 C 
BRANCH  11  12
ATOM     12  C   UNL     1      -0.862   3.039   5.293  0.00  0.00    -0.024 A 
ATOM     13  C   UNL     1      -1.816   3.921   5.630  0.00  0.00    +0.087 A 
ATOM     14  N   UNL     1      -1.547   4.452   6.862  0.00  0.00    -0.360 N 
ATOM     15  H   UNL     1      -2.094   5.112   7.316  0.00  0.00    +0.165 HD
ATOM     16  C   UNL     1      -0.383   3.912   7.361  0.00  0.00    +0.047 A 
ATOM     17  C   UNL     1       0.094   2.998   6.403  0.00  0.00    +0.003 A 
ATOM     18  C   UNL     1       1.271   2.288   6.643  0.00  0.00    +0.010 A 
ATOM     19  C   UNL     1       1.953   2.480   7.812  0.00  0.00    +0.001 A 
ATOM     20  C   UNL     1       1.485   3.377   8.762  0.00  0.00    +0.002 A 
ATOM     21  C   UNL     1       0.330   4.096   8.541  0.00  0.00    +0.026 A 
ENDBRANCH  11  12
ENDBRANCH  10  11
ENDBRANCH   1  10
BRANCH   1  22
ATOM     22  C   UNL     1      -2.062  -1.190   3.182  0.00  0.00    +0.019 C 
BRANCH  22  23
ATOM     23  C   UNL     1      -3.531  -0.921   3.383  0.00  0.00    +0.179 A 
ATOM     24  N   UNL     1      -4.402  -0.753   2.433  0.00  0.00    -0.210 NA
ATOM     25  C   UNL     1      -5.620  -0.534   2.999  0.00  0.00    +0.163 A 
ATOM     26  C   UNL     1      -5.448  -0.576   4.348  0.00  0.00    +0.230 A 
ATOM     27  O   UNL     1      -4.147  -0.822   4.570  0.00  0.00    -0.449 OA
BRANCH  25  28
ATOM     28  C   UNL     1      -6.887  -0.294   2.285  0.00  0.00    +0.266 C 
ATOM     29  O   UNL     1      -7.894  -0.020   2.909  0.00  0.00    -0.268 OA
ATOM     30  N   UNL     1      -6.930  -0.380   0.940  0.00  0.00    -0.308 N 
ATOM     31  H   UNL     1      -6.146  -0.669   0.448  0.00  0.00    +0.149 HD
BRANCH  30  32
ATOM     32  C   UNL     1      -8.160  -0.037   0.223  0.00  0.00    +0.136 C 
BRANCH  32  33
ATOM     33  C   UNL     1      -7.941  -0.219  -1.280  0.00  0.00    +0.135 C 
ATOM     34  C   UNL     1      -9.191   0.255  -2.053  0.00  0.00    +0.035 C 
ATOM     35  C   UNL     1      -9.303  -0.805  -3.182  0.00  0.00    +0.031 C 
ATOM     36  C   UNL     1      -8.794  -2.071  -2.447  0.00  0.00    +0.160 C 
ATOM     37  O   UNL     1      -7.746  -1.606  -1.579  0.00  0.00    -0.375 OA
ENDBRANCH  32  33
ENDBRANCH  30  32
ENDBRANCH  25  28
ENDBRANCH  22  23
ENDBRANCH   1  22
TORSDOF 10
