REMARK  Name = ZINC02249322
REMARK  6 active torsions:
REMARK  status: ('A' for Active; 'I' for Inactive)
REMARK    1  A    between atoms: C_1  and  O_2
REMARK    2  A    between atoms: O_2  and  C_3
REMARK    3  A    between atoms: C_6  and  C_9
REMARK    4  A    between atoms: C_20  and  C_22
REMARK    5  A    between atoms: C_27  and  O_28
REMARK    6  A    between atoms: O_28  and  C_29
REMARK                            x       y       z     vdW  Elec       q    Type
REMARK                         _______ _______ _______ _____ _____    ______ ____
ROOT
ATOM      1  C   UNL     1       2.530  -2.385   4.275  0.00  0.00    +0.159 C 
ATOM      2  C   UNL     1       3.928  -2.819   3.893  0.00  0.00    +0.027 C 
ATOM      3  C   UNL     1       4.233  -4.129   3.988  0.00  0.00    +0.083 C 
ATOM      4  C   UNL     1       5.606  -4.542   3.600  0.00  0.00    +0.042 A 
ATOM      5  C   UNL     1       6.118  -5.782   3.955  0.00  0.00    +0.013 A 
ATOM      6  C   UNL     1       7.402  -6.125   3.576  0.00  0.00    +0.001 A 
ATOM      7  C   UNL     1       8.173  -5.237   2.846  0.00  0.00    +0.004 A 
ATOM      8  C   UNL     1       7.670  -4.000   2.488  0.00  0.00    +0.046 A 
ATOM      9  C   UNL     1       6.385  -3.644   2.860  0.00  0.00    +0.131 A 
ATOM     10  O   UNL     1       5.864  -2.439   2.516  0.00  0.00    -0.479 OA
ATOM     11  C   UNL     1       4.954  -1.826   3.430  0.00  0.00    +0.238 C 
ATOM     12  N   UNL     1       3.326  -5.040   4.418  0.00  0.00    -0.213 NA
ATOM     13  C   UNL     1       2.095  -4.749   4.769  0.00  0.00    +0.237 C 
ATOM     14  N   UNL     1       1.628  -3.454   4.720  0.00  0.00    -0.208 N 
ATOM     15  N   UNL     1       0.299  -3.495   5.147  0.00  0.00    -0.251 N 
ATOM     16  C   UNL     1       0.025  -4.798   5.433  0.00  0.00    +0.203 C 
ATOM     17  N   UNL     1       1.077  -5.520   5.212  0.00  0.00    -0.205 NA
ATOM     18  H   UNL     1      -0.309  -2.743   5.226  0.00  0.00    +0.171 HD
ENDROOT
BRANCH  11  19
ATOM     19  C   UNL     1       5.717  -1.307   4.622  0.00  0.00    +0.040 A 
ATOM     20  C   UNL     1       6.909  -1.901   4.990  0.00  0.00    +0.026 A 
ATOM     21  C   UNL     1       7.611  -1.425   6.083  0.00  0.00    +0.018 A 
ATOM     22  C   UNL     1       7.120  -0.354   6.810  0.00  0.00    +0.019 A 
ATOM     23  C   UNL     1       5.929   0.242   6.444  0.00  0.00    +0.047 A 
ATOM     24  C   UNL     1       5.227  -0.230   5.345  0.00  0.00    +0.127 A 
ATOM     25 BR   UNL     1       9.241  -2.239   6.587  0.00  0.00    -0.050 Br
BRANCH  24  26
ATOM     26  O   UNL     1       4.057   0.358   4.980  0.00  0.00    -0.495 OA
ATOM     27  C   UNL     1       3.612   1.463   5.771  0.00  0.00    +0.277 C 
ENDBRANCH  24  26
ENDBRANCH  11  19
BRANCH   1  31
ATOM     28  C   UNL     1       0.758  -0.468   0.892  0.00  0.00    +0.120 A 
ATOM     29  C   UNL     1       1.352   0.292   1.888  0.00  0.00    +0.046 A 
ATOM     30  C   UNL     1       1.924  -0.330   2.981  0.00  0.00    +0.009 A 
ATOM     31  C   UNL     1       1.905  -1.709   3.082  0.00  0.00    -0.021 A 
ATOM     32  C   UNL     1       1.313  -2.469   2.090  0.00  0.00    +0.009 A 
ATOM     33  C   UNL     1       0.735  -1.851   0.998  0.00  0.00    +0.046 A 
BRANCH  28  35
ATOM     34  C   UNL     1       0.255   1.568  -0.227  0.00  0.00    +0.277 C 
ATOM     35  O   UNL     1       0.194   0.141  -0.184  0.00  0.00    -0.495 OA
ENDBRANCH  28  35
ENDBRANCH   1  31
TORSDOF 4
