REMARK  Name = ZINC12450304
REMARK  11 active torsions:
REMARK  status: ('A' for Active; 'I' for Inactive)
REMARK    1  A    between atoms: C_1  and  C_2
REMARK    2  A    between atoms: C_5  and  C_7
REMARK    3  A    between atoms: N_9  and  C_10
REMARK    4  A    between atoms: N_9  and  C_19
REMARK    5  A    between atoms: C_10  and  C_11
REMARK    6  A    between atoms: C_11  and  C_12
REMARK    7  A    between atoms: C_12  and  N_13
REMARK    8  A    between atoms: C_19  and  C_20
REMARK    9  A    between atoms: C_25  and  O_35
REMARK   10  A    between atoms: C_28  and  N_29
REMARK   11  A    between atoms: O_35  and  C_36
REMARK                            x       y       z     vdW  Elec       q    Type
REMARK                         _______ _______ _______ _____ _____    ______ ____
ROOT
ATOM      1  C   UNL     1       6.341   5.873   0.186  0.00  0.00    +0.146 C 
ENDROOT
BRANCH   1   2
ATOM      2  C   UNL     1       5.045   5.107   0.119  0.00  0.00    +0.008 A 
ATOM      3  C   UNL     1       4.179   5.138   1.171  0.00  0.00    +0.018 A 
ATOM      4  C   UNL     1       2.978   4.408   1.070  0.00  0.00    -0.001 A 
ATOM      5  C   UNL     1       2.044   4.399   2.118  0.00  0.00    +0.013 A 
ATOM      6  C   UNL     1       0.890   3.689   1.991  0.00  0.00    +0.046 A 
ATOM      7  C   UNL     1       0.624   2.958   0.829  0.00  0.00    +0.122 A 
ATOM      8  C   UNL     1       1.519   2.947  -0.216  0.00  0.00    +0.071 A 
ATOM      9  C   UNL     1       2.715   3.675  -0.113  0.00  0.00    +0.051 A 
ATOM     10  C   UNL     1       4.728   4.362  -1.025  0.00  0.00    +0.104 A 
ATOM     11  N   UNL     1       3.589   3.642  -1.178  0.00  0.00    -0.343 N 
ATOM     12  H   UNL     1       3.390   3.108  -2.033  0.00  0.00    +0.167 HD
BRANCH  10  13
ATOM     13  N   UNL     1       5.619   4.341  -2.087  0.00  0.00    -0.312 N 
ATOM     14  C   UNL     1       5.070   5.053  -3.250  0.00  0.00    +0.134 C 
ATOM     15  C   UNL     1       6.107   5.056  -4.377  0.00  0.00    +0.178 C 
ATOM     16  O   UNL     1       6.469   3.708  -4.688  0.00  0.00    -0.377 OA
ATOM     17  C   UNL     1       7.009   2.986  -3.578  0.00  0.00    +0.178 C 
ATOM     18  C   UNL     1       5.981   2.961  -2.444  0.00  0.00    +0.134 C 
ENDBRANCH  10  13
BRANCH   7  19
ATOM     19  O   UNL     1      -0.534   2.254   0.729  0.00  0.00    -0.495 OA
ATOM     20  C   UNL     1      -1.422   2.305   1.847  0.00  0.00    +0.277 C 
ENDBRANCH   7  19
ENDBRANCH   1   2
BRANCH   1  23
ATOM     21  C   UNL     1       5.810   7.880   1.462  0.00  0.00    +0.254 C 
ATOM     22  O   UNL     1       5.319   8.355   0.455  0.00  0.00    -0.269 OA
ATOM     23  N   UNL     1       6.381   6.660   1.421  0.00  0.00    -0.293 N 
BRANCH  21  28
ATOM     24  C   UNL     1       6.307   9.977   6.620  0.00  0.00    +0.051 C 
ATOM     25  C   UNL     1       6.021   9.631   5.181  0.00  0.00    -0.013 A 
ATOM     26  C   UNL     1       5.280  10.324   4.277  0.00  0.00    +0.011 A 
ATOM     27  C   UNL     1       5.142   9.831   3.004  0.00  0.00    +0.021 A 
ATOM     28  C   UNL     1       5.781   8.634   2.718  0.00  0.00    +0.074 A 
ATOM     29  S   UNL     1       6.551   8.248   4.280  0.00  0.00    -0.089 S 
ENDBRANCH  21  28
BRANCH  23  30
ATOM     30  C   UNL     1       7.040   6.120   2.613  0.00  0.00    +0.110 C 
BRANCH  30  31
ATOM     31  C   UNL     1       8.466   6.669   2.700  0.00  0.00    +0.038 C 
BRANCH  31  32
ATOM     32  C   UNL     1       9.155   6.105   3.944  0.00  0.00    +0.109 C 
BRANCH  32  33
ATOM     33  N   UNL     1      10.520   6.630   4.027  0.00  0.00    -0.301 N 
ATOM     34  C   UNL     1      11.694   5.983   3.429  0.00  0.00    +0.108 C 
ATOM     35  C   UNL     1      12.787   7.077   3.385  0.00  0.00    +0.028 C 
ATOM     36  C   UNL     1      12.347   8.007   4.539  0.00  0.00    +0.097 C 
ATOM     37  C   UNL     1      10.859   7.764   4.664  0.00  0.00    +0.216 C 
ATOM     38  O   UNL     1      10.084   8.488   5.254  0.00  0.00    -0.276 OA
ENDBRANCH  32  33
ENDBRANCH  31  32
ENDBRANCH  30  31
ENDBRANCH  23  30
ENDBRANCH   1  23
TORSDOF 9
