REMARK  Name = ZINC23133028
REMARK  13 active torsions:
REMARK  status: ('A' for Active; 'I' for Inactive)
REMARK    1  A    between atoms: C_1  and  C_2
REMARK    2  A    between atoms: C_2  and  C_3
REMARK    3  A    between atoms: C_2  and  C_4
REMARK    4  A    between atoms: C_4  and  C_5
REMARK    5  A    between atoms: C_5  and  C_7
REMARK    6  A    between atoms: C_5  and  N_21
REMARK    7  A    between atoms: N_9  and  C_10
REMARK    8  A    between atoms: C_10  and  C_11
REMARK    9  A    between atoms: C_11  and  C_13
REMARK   10  A    between atoms: C_11  and  N_18
REMARK   11  A    between atoms: N_18  and  C_19
REMARK   12  A    between atoms: N_18  and  C_20
REMARK   13  A    between atoms: C_22  and  C_24
REMARK                            x       y       z     vdW  Elec       q    Type
REMARK                         _______ _______ _______ _____ _____    ______ ____
ROOT
ATOM      1  C   UNL     1       7.198   1.063  -3.343  0.00  0.00    +0.159 C 
ENDROOT
BRANCH   1   2
ATOM      2  C   UNL     1       5.729   1.137  -3.013  0.00  0.00    +0.233 C 
ATOM      3  O   UNL     1       4.935   1.496  -3.856  0.00  0.00    -0.274 OA
ATOM      4  N   UNL     1       5.298   0.803  -1.780  0.00  0.00    -0.315 N 
ATOM      5  H   UNL     1       6.018   0.477  -1.015  0.00  0.00    +0.149 HD
BRANCH   4   6
ATOM      6  C   UNL     1       3.871   0.875  -1.459  0.00  0.00    +0.093 C 
BRANCH   6   7
ATOM      7  C   UNL     1       3.665   0.564   0.025  0.00  0.00    -0.020 C 
BRANCH   7   8
ATOM      8  C   UNL     1       2.207   0.716   0.373  0.00  0.00    -0.052 A 
ATOM      9  C   UNL     1       1.408  -0.398   0.549  0.00  0.00    +0.009 A 
ATOM     10  C   UNL     1       0.100  -0.227   0.861  0.00  0.00    +0.045 A 
ATOM     11  S   UNL     1      -0.036   1.553   0.915  0.00  0.00    -0.105 S 
ATOM     12  C   UNL     1       1.659   1.947   0.517  0.00  0.00    +0.047 A 
ENDBRANCH   7   8
BRANCH   7  13
ATOM     13  N   UNL     1       4.462   1.495   0.835  0.00  0.00    +0.382 N 
ATOM     14  C   UNL     1       4.535   2.817   0.199  0.00  0.00    -0.096 C 
ATOM     15  C   UNL     1       3.927   1.596   2.200  0.00  0.00    -0.096 C 
ATOM     16  H   UNL     1       5.485   1.095   0.902  0.00  0.00    -0.082 HD
ENDBRANCH   7  13
ENDBRANCH   6   7
ENDBRANCH   4   6
ENDBRANCH   1   2
BRANCH   1  17
ATOM     17  N   UNL     1       7.407   1.473  -4.734  0.00  0.00    -0.300 N 
ATOM     18  C   UNL     1       8.486   1.034  -5.411  0.00  0.00    +0.246 C 
ATOM     19  O   UNL     1       9.287   0.298  -4.867  0.00  0.00    -0.270 OA
ATOM     20  H   UNL     1       6.682   2.139  -5.226  0.00  0.00    +0.150 HD
BRANCH  18  21
ATOM     21  C   UNL     1       8.697   1.447  -6.813  0.00  0.00    +0.055 A 
ATOM     22  C   UNL     1       7.779   2.292  -7.441  0.00  0.00    +0.016 A 
ATOM     23  C   UNL     1       7.981   2.675  -8.750  0.00  0.00    +0.021 A 
ATOM     24  C   UNL     1       9.092   2.222  -9.444  0.00  0.00    +0.042 A 
ATOM     25  C   UNL     1      10.006   1.384  -8.829  0.00  0.00    +0.040 A 
ATOM     26  C   UNL     1       9.818   0.998  -7.516  0.00  0.00    +0.054 A 
ATOM     27 CL   UNL     1      10.969  -0.046  -6.743  0.00  0.00    -0.083 Cl
ATOM     28 CL   UNL     1       9.338   2.708 -11.092  0.00  0.00    -0.083 Cl
ENDBRANCH  18  21
ENDBRANCH   1  17
BRANCH   1  29
ATOM     29  C   UNL     1       7.977   1.996  -2.414  0.00  0.00    +0.034 C 
BRANCH  29  31
ATOM     30  C   UNL     1      10.251   2.848  -1.826  0.00  0.00    +0.007 C 
ATOM     31  C   UNL     1       9.477   1.829  -2.664  0.00  0.00    -0.015 C 
ATOM     32  C   UNL     1       9.905   0.414  -2.269  0.00  0.00    +0.007 C 
ENDBRANCH  29  31
ENDBRANCH   1  29
TORSDOF 9
