REMARK  Name = ZINC39668136
REMARK  4 active torsions:
REMARK  status: ('A' for Active; 'I' for Inactive)
REMARK    1  A    between atoms: C_6  and  C_7
REMARK    2  A    between atoms: C_7  and  N_8
REMARK    3  A    between atoms: C_9  and  C_11
REMARK    4  A    between atoms: C_22  and  C_24
REMARK                            x       y       z     vdW  Elec       q    Type
REMARK                         _______ _______ _______ _____ _____    ______ ____
ROOT
ATOM      1  C   UNL     1      -3.314  -1.946  -3.014  0.00  0.00    +0.100 C 
ATOM      2  C   UNL     1      -3.735  -0.620  -3.686  0.00  0.00    +0.121 C 
ATOM      3  N   UNL     1      -4.898  -0.982  -4.530  0.00  0.00    -0.296 N 
ATOM      4  C   UNL     1      -5.661  -1.953  -3.711  0.00  0.00    +0.115 C 
ATOM      5  C   UNL     1      -4.580  -2.818  -3.031  0.00  0.00    -0.004 C 
ATOM      6  C   UNL     1      -5.003  -3.166  -1.607  0.00  0.00    -0.010 C 
ATOM      7  C   UNL     1      -6.230  -4.081  -1.652  0.00  0.00    -0.082 C 
ATOM      8  N   UNL     1      -5.904  -5.302  -2.400  0.00  0.00    +0.379 N 
ATOM      9  C   UNL     1      -5.590  -4.967  -3.794  0.00  0.00    -0.082 C 
ATOM     10  C   UNL     1      -4.336  -4.089  -3.839  0.00  0.00    -0.010 C 
ATOM     11  C   UNL     1      -5.194  -0.529  -5.765  0.00  0.00    +0.248 C 
ATOM     12  O   UNL     1      -4.414   0.197  -6.350  0.00  0.00    -0.270 OA
ATOM     13  H   UNL     1      -5.108  -5.752  -1.975  0.00  0.00    -0.086 HD
ATOM     14  H   UNL     1      -6.694  -5.929  -2.376  0.00  0.00    -0.086 HD
ENDROOT
BRANCH  11  15
ATOM     15  C   UNL     1      -6.467  -0.916  -6.407  0.00  0.00    +0.055 A 
ATOM     16  C   UNL     1      -7.621  -1.074  -5.636  0.00  0.00    +0.016 A 
ATOM     17  C   UNL     1      -8.806  -1.435  -6.241  0.00  0.00    +0.021 A 
ATOM     18  C   UNL     1      -8.855  -1.641  -7.611  0.00  0.00    +0.042 A 
ATOM     19  C   UNL     1      -7.715  -1.486  -8.381  0.00  0.00    +0.040 A 
ATOM     20  C   UNL     1      -6.523  -1.118  -7.788  0.00  0.00    +0.054 A 
ATOM     21 CL   UNL     1      -5.096  -0.917  -8.756  0.00  0.00    -0.083 Cl
ATOM     22 CL   UNL     1     -10.352  -2.095  -8.364  0.00  0.00    -0.083 Cl
ENDBRANCH  11  15
BRANCH   1  24
ATOM     23  N   UNL     1      -2.085  -2.597  -0.968  0.00  0.00    -0.311 N 
ATOM     24  C   UNL     1      -2.868  -1.697  -1.596  0.00  0.00    +0.218 C 
ATOM     25  O   UNL     1      -3.214  -0.687  -1.020  0.00  0.00    -0.275 OA
ATOM     26  H   UNL     1      -1.809  -3.405  -1.428  0.00  0.00    +0.149 HD
BRANCH  23  27
ATOM     27  C   UNL     1      -1.652  -2.355   0.411  0.00  0.00    +0.139 C 
BRANCH  27  33
ATOM     28  C   UNL     1       0.576  -3.466   0.685  0.00  0.00    +0.009 A 
ATOM     29  C   UNL     1       1.367  -4.512   1.114  0.00  0.00    +0.046 A 
ATOM     30  C   UNL     1       0.793  -5.615   1.741  0.00  0.00    +0.124 A 
ATOM     31  C   UNL     1      -0.584  -5.643   1.920  0.00  0.00    -0.002 A 
ATOM     32  C   UNL     1      -1.372  -4.596   1.496  0.00  0.00    +0.012 A 
ATOM     33  C   UNL     1      -0.793  -3.502   0.876  0.00  0.00    -0.030 A 
ATOM     34  C   UNL     1      -0.917  -6.958   2.598  0.00  0.00    +0.080 C 
ATOM     35  C   UNL     1       0.386  -7.765   2.388  0.00  0.00    +0.234 C 
ATOM     36  O   UNL     1       1.379  -6.736   2.245  0.00  0.00    -0.491 OA
ENDBRANCH  27  33
ENDBRANCH  23  27
ENDBRANCH   1  24
TORSDOF 4
