REMARK  Name = ZINC20906813
REMARK  6 active torsions:
REMARK  status: ('A' for Active; 'I' for Inactive)
REMARK    1  A    between atoms: C_4  and  C_7
REMARK    2  A    between atoms: C_7  and  N_10
REMARK    3  A    between atoms: C_11  and  C_13
REMARK    4  A    between atoms: C_13  and  C_14
REMARK    5  A    between atoms: N_21  and  C_22
REMARK    6  A    between atoms: C_22  and  C_23
REMARK                            x       y       z     vdW  Elec       q    Type
REMARK                         _______ _______ _______ _____ _____    ______ ____
ROOT
ATOM      1  C   UNL     1      -1.357  -0.452  -0.758  0.00  0.00    +0.028 C 
ATOM      2  C   UNL     1      -1.494  -1.939  -0.595  0.00  0.00    +0.200 C 
ATOM      3  O   UNL     1      -1.004  -2.464   0.382  0.00  0.00    -0.278 OA
ATOM      4  N   UNL     1      -2.132  -2.709  -1.483  0.00  0.00    -0.318 N 
ATOM      5  C   UNL     1      -2.725  -2.182  -2.709  0.00  0.00    +0.085 C 
ATOM      6  C   UNL     1      -2.905  -0.667  -2.595  0.00  0.00    -0.058 C 
ATOM      7  N   UNL     1      -1.634  -0.072  -2.150  0.00  0.00    +0.391 N 
ATOM      8  H   UNL     1      -2.201  -3.783  -1.256  0.00  0.00    +0.149 HD
ATOM      9  H   UNL     1      -0.824  -0.461  -2.784  0.00  0.00    -0.080 HD
ENDROOT
BRANCH   1  10
ATOM     10  C   UNL     1       0.067  -0.029  -0.390  0.00  0.00    +0.089 C 
BRANCH  10  12
ATOM     11  N   UNL     1       2.354  -0.374  -1.265  0.00  0.00    -0.306 N 
ATOM     12  C   UNL     1       1.044  -0.680  -1.335  0.00  0.00    +0.213 C 
ATOM     13  O   UNL     1       0.651  -1.482  -2.156  0.00  0.00    -0.276 OA
ATOM     14  H   UNL     1       2.723   0.285  -0.465  0.00  0.00    +0.150 HD
BRANCH  11  15
ATOM     15  C   UNL     1       3.288  -0.920  -2.253  0.00  0.00    +0.060 C 
ATOM     16  C   UNL     1       4.585  -0.148  -2.502  0.00  0.00    +0.033 C 
ATOM     17  C   UNL     1       3.475  -0.139  -3.555  0.00  0.00    +0.033 C 
BRANCH  15  21
ATOM     18  C   UNL     1       3.460  -5.183  -2.467  0.00  0.00    +0.000 A 
ATOM     19  C   UNL     1       3.813  -4.421  -3.565  0.00  0.00    +0.000 A 
ATOM     20  C   UNL     1       3.758  -3.042  -3.496  0.00  0.00    +0.006 A 
ATOM     21  C   UNL     1       3.348  -2.424  -2.329  0.00  0.00    -0.024 A 
ATOM     22  C   UNL     1       2.999  -3.186  -1.229  0.00  0.00    +0.006 A 
ATOM     23  C   UNL     1       3.050  -4.566  -1.300  0.00  0.00    +0.000 A 
ENDBRANCH  15  21
ENDBRANCH  11  15
ENDBRANCH  10  12
ENDBRANCH   1  10
BRANCH   7  24
ATOM     24  C   UNL     1      -1.655   1.389  -2.303  0.00  0.00    -0.042 C 
BRANCH  24  25
ATOM     25  C   UNL     1      -1.538   1.743  -3.763  0.00  0.00    -0.061 A 
ATOM     26  C   UNL     1      -2.677   1.878  -4.535  0.00  0.00    +0.003 A 
ATOM     27  C   UNL     1      -2.571   2.202  -5.874  0.00  0.00    +0.023 A 
ATOM     28  C   UNL     1      -1.325   2.393  -6.444  0.00  0.00    +0.076 A 
ATOM     29  C   UNL     1      -0.183   2.258  -5.671  0.00  0.00    +0.142 A 
ATOM     30  C   UNL     1      -0.292   1.938  -4.328  0.00  0.00    +0.041 A 
ATOM     31  F   UNL     1       1.034   2.444  -6.225  0.00  0.00    -0.204 F 
ATOM     32 CL   UNL     1      -1.192   2.802  -8.126  0.00  0.00    -0.081 Cl
ENDBRANCH  24  25
ENDBRANCH   7  24
TORSDOF 6
