REMARK  Name = ZINC12101588
REMARK  6 active torsions:
REMARK  status: ('A' for Active; 'I' for Inactive)
REMARK    1  A    between atoms: C_1  and  C_2
REMARK    2  A    between atoms: C_9  and  C_11
REMARK    3  A    between atoms: N_13  and  N_14
REMARK    4  A    between atoms: C_15  and  C_17
REMARK    5  A    between atoms: N_26  and  C_28
REMARK    6  A    between atoms: C_28  and  C_29
REMARK                            x       y       z     vdW  Elec       q    Type
REMARK                         _______ _______ _______ _____ _____    ______ ____
ROOT
ATOM      1  N   UNL     1      -4.933   1.606   0.034  0.00  0.00    -0.229 N 
ATOM      2  C   UNL     1      -5.977   2.458   0.043  0.00  0.00    +0.281 C 
ATOM      3  O   UNL     1      -5.782   3.658   0.049  0.00  0.00    -0.267 OA
ATOM      4  H   UNL     1      -5.088   0.648   0.029  0.00  0.00    +0.173 HD
ENDROOT
BRANCH   2   5
ATOM      5  C   UNL     1      -7.357   1.934   0.047  0.00  0.00    +0.155 A 
ATOM      6  C   UNL     1      -8.504   2.857   0.063  0.00  0.00    +0.020 A 
ATOM      7  C   UNL     1      -8.357   4.240   0.064  0.00  0.00    +0.011 A 
ATOM      8  C   UNL     1      -9.481   5.040   0.074  0.00  0.00    +0.001 A 
ATOM      9  C   UNL     1     -10.752   4.480   0.077  0.00  0.00    +0.001 A 
ATOM     10  C   UNL     1     -10.919   3.111   0.070  0.00  0.00    +0.014 A 
ATOM     11  C   UNL     1      -9.798   2.288   0.060  0.00  0.00    +0.050 A 
ATOM     12  C   UNL     1      -9.885   0.821   0.052  0.00  0.00    +0.275 A 
ATOM     13  O   UNL     1     -10.966   0.261   0.053  0.00  0.00    -0.266 OA
ATOM     14  N   UNL     1      -8.739   0.109   0.043  0.00  0.00    -0.224 N 
ATOM     15  N   UNL     1      -7.576   0.642   0.041  0.00  0.00    -0.163 NA
BRANCH  14  16
ATOM     16  C   UNL     1      -8.832  -1.353   0.035  0.00  0.00    +0.182 C 
BRANCH  16  17
ATOM     17  C   UNL     1      -8.870  -1.846  -1.389  0.00  0.00    -0.026 A 
ATOM     18  C   UNL     1     -10.083  -2.002  -2.034  0.00  0.00    +0.005 A 
ATOM     19  C   UNL     1     -10.117  -2.450  -3.341  0.00  0.00    +0.000 A 
ATOM     20  C   UNL     1      -8.940  -2.752  -4.000  0.00  0.00    +0.000 A 
ATOM     21  C   UNL     1      -7.728  -2.600  -3.353  0.00  0.00    +0.000 A 
ATOM     22  C   UNL     1      -7.693  -2.148  -2.048  0.00  0.00    +0.005 A 
ENDBRANCH  16  17
ENDBRANCH  14  16
ENDBRANCH   2   5
BRANCH   1  25
ATOM     23  C   UNL     1      -2.579   1.250   0.021  0.00  0.00    +0.267 C 
ATOM     24  O   UNL     1      -2.774   0.049   0.015  0.00  0.00    -0.268 OA
ATOM     25  N   UNL     1      -3.623   2.102   0.030  0.00  0.00    -0.230 N 
ATOM     26  H   UNL     1      -3.467   3.060   0.035  0.00  0.00    +0.173 HD
BRANCH  23  34
ATOM     27  C   UNL     1       4.985   1.579   0.265  0.00  0.00    +0.008 C 
ATOM     28  C   UNL     1       3.584   2.167   0.442  0.00  0.00    -0.009 C 
ATOM     29  C   UNL     1       3.460   3.446  -0.390  0.00  0.00    +0.009 C 
ATOM     30  C   UNL     1       2.162   4.167   0.002  0.00  0.00    +0.043 C 
ATOM     31  C   UNL     1       1.049   3.164   0.009  0.00  0.00    -0.006 A 
ATOM     32  C   UNL     1       1.166   1.804   0.001  0.00  0.00    -0.036 A 
ATOM     33  C   UNL     1      -0.013   1.076   0.008  0.00  0.00    +0.024 A 
ATOM     34  C   UNL     1      -1.208   1.770   0.017  0.00  0.00    +0.076 A 
ATOM     35  S   UNL     1      -0.647   3.464   0.027  0.00  0.00    -0.088 S 
ATOM     36  C   UNL     1       2.543   1.145  -0.015  0.00  0.00    +0.039 C 
ENDBRANCH  23  34
ENDBRANCH   1  25
TORSDOF 5
