REMARK  Name = ZINC43548617
REMARK  11 active torsions:
REMARK  status: ('A' for Active; 'I' for Inactive)
REMARK    1  A    between atoms: C_1  and  C_2
REMARK    2  A    between atoms: C_2  and  C_3
REMARK    3  A    between atoms: C_3  and  C_4
REMARK    4  A    between atoms: C_4  and  N_5
REMARK    5  A    between atoms: C_12  and  C_37
REMARK    6  A    between atoms: C_15  and  C_25
REMARK    7  A    between atoms: C_17  and  O_24
REMARK    8  A    between atoms: C_21  and  C_23
REMARK    9  A    between atoms: C_25  and  C_27
REMARK   10  A    between atoms: C_25  and  C_28
REMARK   11  A    between atoms: N_33  and  C_36
REMARK                            x       y       z     vdW  Elec       q    Type
REMARK                         _______ _______ _______ _____ _____    ______ ____
ROOT
ATOM      1  N   UNL     1      -4.393  -2.917  -2.217  0.00  0.00    -0.325 N 
ATOM      2  C   UNL     1      -4.252  -4.233  -1.804  0.00  0.00    +0.136 A 
ATOM      3  N   UNL     1      -5.190  -5.080  -1.438  0.00  0.00    -0.340 N 
ATOM      4  C   UNL     1      -4.905  -6.325  -1.061  0.00  0.00    +0.031 A 
ATOM      5  C   UNL     1      -3.586  -6.640  -1.088  0.00  0.00    +0.013 A 
ATOM      6  S   UNL     1      -2.839  -5.138  -1.655  0.00  0.00    -0.059 S 
ATOM      7  C   UNL     1      -2.958  -7.942  -0.728  0.00  0.00    +0.051 C 
ATOM      8  C   UNL     1      -3.986  -8.796   0.018  0.00  0.00    -0.022 C 
ATOM      9  C   UNL     1      -4.178  -8.281   1.443  0.00  0.00    +0.008 C 
ATOM     10  C   UNL     1      -5.157  -9.203   2.178  0.00  0.00    +0.007 C 
ATOM     11  C   UNL     1      -6.493  -9.238   1.437  0.00  0.00    +0.029 C 
ATOM     12  C   UNL     1      -6.284  -9.727   0.002  0.00  0.00    +0.123 C 
ATOM     13  C   UNL     1      -5.332  -8.755  -0.715  0.00  0.00    +0.033 C 
ATOM     14  C   UNL     1      -5.938  -7.350  -0.623  0.00  0.00    +0.039 C 
ATOM     15  C   UNL     1      -7.164  -7.262  -1.534  0.00  0.00    +0.014 C 
ATOM     16  C   UNL     1      -3.491 -10.242   0.083  0.00  0.00    +0.012 C 
ATOM     17  H   UNL     1      -5.274  -2.514  -2.258  0.00  0.00    +0.148 HD
ATOM     18  H   UNL     1      -6.115  -4.789  -1.442  0.00  0.00    +0.167 HD
ENDROOT
BRANCH  12  19
ATOM     19  O   UNL     1      -7.539  -9.766  -0.680  0.00  0.00    -0.391 OA
ATOM     20  H   UNL     1      -8.194 -10.343  -0.266  0.00  0.00    +0.210 HD
ENDBRANCH  12  19
BRANCH  11  21
ATOM     21  C   UNL     1      -7.451 -10.187   2.160  0.00  0.00    +0.078 C 
ATOM     22  C   UNL     1      -7.551  -9.785   3.633  0.00  0.00    +0.017 C 
BRANCH  21  23
ATOM     23  C   UNL     1      -6.931 -11.598   2.059  0.00  0.00    +0.219 C 
ATOM     24  O   UNL     1      -5.760 -11.797   1.816  0.00  0.00    -0.275 OA
ATOM     25  N   UNL     1      -7.768 -12.639   2.239  0.00  0.00    -0.299 N 
ATOM     26  C   UNL     1      -9.212 -12.424   2.418  0.00  0.00    +0.123 C 
ATOM     27  C   UNL     1      -9.963 -13.326   1.433  0.00  0.00    +0.103 C 
ATOM     28  N   UNL     1      -9.516 -14.714   1.605  0.00  0.00    -0.302 NA
ATOM     29  C   UNL     1      -8.090 -14.858   1.284  0.00  0.00    +0.103 C 
ATOM     30  C   UNL     1      -7.262 -14.020   2.256  0.00  0.00    +0.123 C 
ATOM     31  C   UNL     1     -10.332 -15.634   0.802  0.00  0.00    +0.105 C 
ENDBRANCH  21  23
ENDBRANCH  11  21
BRANCH   1  32
ATOM     32  C   UNL     1      -3.212  -2.137  -2.592  0.00  0.00    +0.103 C 
BRANCH  32  33
ATOM     33  C   UNL     1      -3.642  -0.728  -3.006  0.00  0.00    +0.018 C 
BRANCH  33  35
ATOM     34  C   UNL     1      -2.837   1.496  -3.812  0.00  0.00    +0.004 C 
ATOM     35  C   UNL     1      -2.408   0.087  -3.398  0.00  0.00    -0.002 C 
ENDBRANCH  33  35
ENDBRANCH  32  33
ENDBRANCH   1  32
TORSDOF 6
