REMARK  Name = ZINC54111622
REMARK  9 active torsions:
REMARK  status: ('A' for Active; 'I' for Inactive)
REMARK    1  A    between atoms: C_1  and  C_2
REMARK    2  A    between atoms: C_2  and  N_3
REMARK    3  A    between atoms: N_3  and  C_4
REMARK    4  A    between atoms: N_3  and  C_5
REMARK    5  A    between atoms: C_5  and  C_6
REMARK    6  A    between atoms: C_6  and  N_7
REMARK    7  A    between atoms: N_7  and  S_8
REMARK    8  A    between atoms: S_8  and  C_11
REMARK    9  A    between atoms: C_14  and  N_18
REMARK                            x       y       z     vdW  Elec       q    Type
REMARK                         _______ _______ _______ _____ _____    ______ ____
ROOT
ATOM      1  S   UNL     1      -4.117  -4.765   0.900  0.00  0.00    +0.060 S 
ATOM      2  O   UNL     1      -3.796  -6.149   0.874  0.00  0.00    -0.153 OA
ATOM      3  O   UNL     1      -4.550  -4.106   2.081  0.00  0.00    -0.153 OA
ENDROOT
BRANCH   1   4
ATOM      4  C   UNL     1      -5.377  -4.518  -0.306  0.00  0.00    +0.133 A 
ATOM      5  C   UNL     1      -6.230  -3.434  -0.201  0.00  0.00    +0.047 A 
ATOM      6  C   UNL     1      -7.220  -3.238  -1.145  0.00  0.00    +0.040 A 
ATOM      7  C   UNL     1      -7.357  -4.130  -2.201  0.00  0.00    +0.027 A 
ATOM      8  C   UNL     1      -6.499  -5.217  -2.305  0.00  0.00    +0.040 A 
ATOM      9  C   UNL     1      -5.508  -5.405  -1.360  0.00  0.00    +0.047 A 
ATOM     10 BR   UNL     1      -4.334  -6.881  -1.504  0.00  0.00    -0.048 Br
ATOM     11 BR   UNL     1      -6.043  -2.220   1.237  0.00  0.00    -0.048 Br
BRANCH   7  12
ATOM     12  N   UNL     1      -8.357  -3.934  -3.157  0.00  0.00    -0.358 N 
ATOM     13  H   UNL     1      -8.956  -3.175  -3.084  0.00  0.00    +0.142 HD
ATOM     14  H   UNL     1      -8.452  -4.558  -3.894  0.00  0.00    +0.142 HD
ENDBRANCH   7  12
ENDBRANCH   1   4
BRANCH   1  15
ATOM     15  N   UNL     1      -2.770  -3.958   0.374  0.00  0.00    -0.192 NA
ATOM     16  H   UNL     1      -1.969  -4.452   0.140  0.00  0.00    +0.148 HD
BRANCH  15  17
ATOM     17  C   UNL     1      -2.789  -2.497   0.261  0.00  0.00    +0.087 C 
BRANCH  17  18
ATOM     18  C   UNL     1      -1.357  -1.977   0.125  0.00  0.00    -0.062 C 
BRANCH  18  19
ATOM     19  N   UNL     1      -1.376  -0.512   0.012  0.00  0.00    +0.379 N 
ATOM     20  C   UNL     1      -2.050  -0.126  -1.234  0.00  0.00    -0.096 C 
ATOM     21  H   UNL     1      -1.873  -0.121   0.799  0.00  0.00    -0.082 HD
BRANCH  19  23
ATOM     22  C   UNL     1      -0.019   1.526   0.010  0.00  0.00    -0.017 C 
ATOM     23  C   UNL     1       0.002  -0.004   0.002  0.00  0.00    -0.083 C 
ENDBRANCH  19  23
ENDBRANCH  18  19
ENDBRANCH  17  18
ENDBRANCH  15  17
ENDBRANCH   1  15
TORSDOF 7
