REMARK  Name = ZINC23493479
REMARK  7 active torsions:
REMARK  status: ('A' for Active; 'I' for Inactive)
REMARK    1  A    between atoms: C_4  and  N_7
REMARK    2  A    between atoms: C_8  and  C_10
REMARK    3  A    between atoms: C_10  and  N_11
REMARK    4  A    between atoms: C_17  and  C_19
REMARK    5  A    between atoms: C_20  and  C_28
REMARK    6  A    between atoms: C_28  and  O_29
REMARK    7  A    between atoms: O_29  and  C_30
REMARK                            x       y       z     vdW  Elec       q    Type
REMARK                         _______ _______ _______ _____ _____    ______ ____
ROOT
ATOM      1  N   UNL     1       8.877  -1.994   5.412  0.00  0.00    +0.387 N 
ATOM      2  C   UNL     1       7.785  -1.048   5.673  0.00  0.00    -0.059 C 
ATOM      3  C   UNL     1       6.565  -1.435   4.831  0.00  0.00    +0.089 C 
ATOM      4  N   UNL     1       6.980  -1.532   3.424  0.00  0.00    -0.299 N 
ATOM      5  C   UNL     1       8.152  -2.359   3.099  0.00  0.00    +0.089 C 
ATOM      6  C   UNL     1       9.313  -1.930   4.010  0.00  0.00    -0.059 C 
ATOM      7  C   UNL     1       6.302  -0.882   2.456  0.00  0.00    +0.282 C 
ATOM      8  O   UNL     1       5.417  -0.102   2.753  0.00  0.00    -0.267 OA
ATOM      9  H   UNL     1       8.494  -3.008   5.597  0.00  0.00    -0.081 HD
ENDROOT
BRANCH   7  10
ATOM     10  C   UNL     1       6.632  -1.117   1.043  0.00  0.00    +0.197 A 
ATOM     11  C   UNL     1       6.125  -0.417  -0.004  0.00  0.00    +0.048 A 
ATOM     12  C   UNL     1       6.734  -0.989  -1.205  0.00  0.00    +0.027 A 
ATOM     13  C   UNL     1       6.633  -0.717  -2.572  0.00  0.00    +0.012 A 
ATOM     14  C   UNL     1       7.356  -1.456  -3.465  0.00  0.00    +0.001 A 
ATOM     15  C   UNL     1       8.188  -2.475  -3.023  0.00  0.00    +0.004 A 
ATOM     16  C   UNL     1       8.302  -2.760  -1.680  0.00  0.00    +0.047 A 
ATOM     17  C   UNL     1       7.576  -2.021  -0.752  0.00  0.00    +0.136 A 
ATOM     18  O   UNL     1       7.482  -2.063   0.591  0.00  0.00    -0.450 OA
BRANCH  11  19
ATOM     19  C   UNL     1       5.141   0.722   0.058  0.00  0.00    +0.269 C 
BRANCH  19  20
ATOM     20  O   UNL     1       3.811   0.206  -0.021  0.00  0.00    -0.487 OA
BRANCH  20  21
ATOM     21  C   UNL     1       2.796   1.109   0.022  0.00  0.00    +0.121 A 
ATOM     22  C   UNL     1       1.479   0.678  -0.051  0.00  0.00    +0.045 A 
ATOM     23  C   UNL     1       0.449   1.598  -0.006  0.00  0.00    +0.004 A 
ATOM     24  C   UNL     1       0.730   2.947   0.110  0.00  0.00    +0.000 A 
ATOM     25  C   UNL     1       2.041   3.379   0.183  0.00  0.00    +0.004 A 
ATOM     26  C   UNL     1       3.075   2.463   0.139  0.00  0.00    +0.045 A 
ENDBRANCH  20  21
ENDBRANCH  19  20
ENDBRANCH  11  19
ENDBRANCH   7  10
BRANCH   1  27
ATOM     27  C   UNL     1      10.005  -1.761   6.324  0.00  0.00    +0.019 C 
BRANCH  27  29
ATOM     28  N   UNL     1      12.117  -2.890   6.944  0.00  0.00    -0.287 N 
ATOM     29  C   UNL     1      10.995  -2.890   6.197  0.00  0.00    +0.201 C 
ATOM     30  O   UNL     1      10.782  -3.799   5.423  0.00  0.00    -0.278 OA
ATOM     31  H   UNL     1      12.290  -2.087   7.676  0.00  0.00    +0.155 HD
BRANCH  28  35
ATOM     32  C   UNL     1      14.927  -5.931   6.482  0.00  0.00    +0.000 A 
ATOM     33  C   UNL     1      15.345  -4.640   6.752  0.00  0.00    +0.002 A 
ATOM     34  C   UNL     1      14.416  -3.630   6.906  0.00  0.00    +0.023 A 
ATOM     35  C   UNL     1      13.061  -3.911   6.789  0.00  0.00    +0.033 A 
ATOM     36  C   UNL     1      12.645  -5.209   6.524  0.00  0.00    +0.023 A 
ATOM     37  C   UNL     1      13.579  -6.214   6.366  0.00  0.00    +0.002 A 
ENDBRANCH  28  35
ENDBRANCH  27  29
ENDBRANCH   1  27
TORSDOF 7
