REMARK  Name = ZINC40512737
REMARK  9 active torsions:
REMARK  status: ('A' for Active; 'I' for Inactive)
REMARK    1  A    between atoms: C_1  and  C_2
REMARK    2  A    between atoms: C_2  and  O_3
REMARK    3  A    between atoms: O_3  and  C_4
REMARK    4  A    between atoms: C_4  and  C_6
REMARK    5  A    between atoms: C_7  and  N_36
REMARK    6  A    between atoms: C_11  and  C_35
REMARK    7  A    between atoms: N_24  and  C_27
REMARK    8  A    between atoms: C_27  and  C_28
REMARK    9  A    between atoms: C_33  and  C_34
REMARK                            x       y       z     vdW  Elec       q    Type
REMARK                         _______ _______ _______ _____ _____    ______ ____
ROOT
ATOM      1  C   UNL     1       1.364  -1.975  -2.385  0.00  0.00    +0.117 C 
ATOM      2  C   UNL     1       1.406  -3.329  -2.492  0.00  0.00    +0.196 C 
ATOM      3  O   UNL     1       2.036  -3.940  -3.508  0.00  0.00    -0.441 OA
ATOM      4  C   UNL     1       2.950  -3.271  -4.242  0.00  0.00    +0.142 A 
ATOM      5  C   UNL     1       3.877  -3.982  -5.032  0.00  0.00    +0.067 A 
ATOM      6  C   UNL     1       4.788  -3.309  -5.766  0.00  0.00    +0.019 A 
ATOM      7  N   UNL     1       4.828  -1.950  -5.755  0.00  0.00    -0.326 N 
ATOM      8  H   UNL     1       5.491  -1.488  -6.292  0.00  0.00    +0.169 HD
ATOM      9  C   UNL     1       3.961  -1.237  -5.013  0.00  0.00    +0.257 A 
ATOM     10  O   UNL     1       4.015  -0.017  -5.017  0.00  0.00    -0.267 OA
ATOM     11  C   UNL     1       2.998  -1.892  -4.236  0.00  0.00    +0.083 A 
ATOM     12  C   UNL     1       2.024  -1.098  -3.409  0.00  0.00    +0.144 C 
ATOM     13  C   UNL     1       1.004  -0.428  -4.277  0.00  0.00    -0.002 A 
ATOM     14  C   UNL     1       0.057  -0.942  -5.135  0.00  0.00    +0.007 A 
ATOM     15  C   UNL     1      -0.749  -0.029  -5.806  0.00  0.00    +0.000 A 
ATOM     16  C   UNL     1      -0.604   1.331  -5.617  0.00  0.00    +0.002 A 
ATOM     17  C   UNL     1       0.346   1.856  -4.756  0.00  0.00    +0.024 A 
ATOM     18  C   UNL     1       1.162   0.949  -4.077  0.00  0.00    +0.041 A 
ATOM     19  N   UNL     1       2.179   1.190  -3.170  0.00  0.00    -0.265 N 
ATOM     20  C   UNL     1       2.742   0.047  -2.726  0.00  0.00    +0.240 C 
ATOM     21  O   UNL     1       3.651  -0.046  -1.929  0.00  0.00    -0.274 OA
ATOM     22  C   UNL     1       5.776  -4.074  -6.609  0.00  0.00    +0.063 C 
ENDROOT
BRANCH   2  23
ATOM     23  N   UNL     1       0.787  -4.091  -1.538  0.00  0.00    -0.329 N 
ATOM     24  H   UNL     1       0.265  -3.665  -0.840  0.00  0.00    +0.145 HD
ATOM     25  H   UNL     1       0.872  -5.057  -1.559  0.00  0.00    +0.145 HD
ENDBRANCH   2  23
BRANCH   1  26
ATOM     26  C   UNL     1       0.690  -1.388  -1.303  0.00  0.00    +0.342 C 
ATOM     27  O   UNL     1      -0.403  -0.878  -1.472  0.00  0.00    -0.245 OA
BRANCH  26  28
ATOM     28  O   UNL     1       1.254  -1.388  -0.076  0.00  0.00    -0.462 OA
BRANCH  28  30
ATOM     29  C   UNL     1       1.306  -0.842   2.278  0.00  0.00    +0.048 C 
ATOM     30  C   UNL     1       0.466  -0.874   1.000  0.00  0.00    +0.229 C 
ENDBRANCH  28  30
ENDBRANCH  26  28
ENDBRANCH   1  26
BRANCH  19  31
ATOM     31  C   UNL     1       2.595   2.528  -2.743  0.00  0.00    +0.149 C 
BRANCH  31  32
ATOM     32  C   UNL     1       3.954   2.838  -3.315  0.00  0.00    -0.027 A 
ATOM     33  C   UNL     1       5.090   2.620  -2.557  0.00  0.00    +0.005 A 
ATOM     34  C   UNL     1       6.336   2.904  -3.082  0.00  0.00    +0.000 A 
ATOM     35  C   UNL     1       6.447   3.406  -4.366  0.00  0.00    +0.000 A 
ATOM     36  C   UNL     1       5.312   3.624  -5.124  0.00  0.00    +0.003 A 
ATOM     37  C   UNL     1       4.066   3.335  -4.600  0.00  0.00    -0.046 A 
ATOM     38  C   UNL     1       2.828   3.567  -5.428  0.00  0.00    +0.044 C 
ENDBRANCH  31  32
ENDBRANCH  19  31
TORSDOF 6
