REMARK  Name = ZINC39363112
REMARK  8 active torsions:
REMARK  status: ('A' for Active; 'I' for Inactive)
REMARK    1  A    between atoms: C_6  and  N_7
REMARK    2  A    between atoms: C_8  and  C_25
REMARK    3  A    between atoms: C_12  and  S_13
REMARK    4  A    between atoms: S_13  and  C_14
REMARK    5  A    between atoms: C_14  and  C_15
REMARK    6  A    between atoms: N_17  and  C_18
REMARK    7  A    between atoms: C_18  and  C_19
REMARK    8  A    between atoms: C_25  and  C_26
REMARK                            x       y       z     vdW  Elec       q    Type
REMARK                         _______ _______ _______ _____ _____    ______ ____
ROOT
ATOM      1  N   UNL     1      -1.198  -0.721   0.010  0.00  0.00    -0.258 N 
ATOM      2  C   UNL     1      -1.352  -2.182  -0.094  0.00  0.00    +0.187 C 
ATOM      3  N   UNL     1      -2.809  -2.389  -0.034  0.00  0.00    -0.246 N 
ATOM      4  N   UNL     1      -3.380  -1.117   0.092  0.00  0.00    -0.162 NA
ATOM      5  C   UNL     1      -2.477  -0.195   0.122  0.00  0.00    +0.180 C 
ATOM      6  H   UNL     1      -3.279  -3.237  -0.075  0.00  0.00    +0.170 HD
ENDROOT
BRANCH   1  12
ATOM      7  C   UNL     1       0.297   0.849  -1.054  0.00  0.00    +0.025 A 
ATOM      8  C   UNL     1       1.483   1.555  -1.059  0.00  0.00    +0.022 A 
ATOM      9  C   UNL     1       2.378   1.415  -0.013  0.00  0.00    +0.041 A 
ATOM     10  C   UNL     1       2.087   0.566   1.040  0.00  0.00    +0.022 A 
ATOM     11  C   UNL     1       0.902  -0.143   1.051  0.00  0.00    +0.025 A 
ATOM     12  C   UNL     1       0.002  -0.004   0.002  0.00  0.00    +0.038 A 
ATOM     13 CL   UNL     1       3.869   2.305  -0.022  0.00  0.00    -0.084 Cl
ENDBRANCH   1  12
BRANCH   5  14
ATOM     14  S   UNL     1      -2.828   1.524   0.280  0.00  0.00    -0.079 S 
BRANCH  14  15
ATOM     15  C   UNL     1      -4.638   1.595   0.385  0.00  0.00    +0.172 C 
BRANCH  15  16
ATOM     16  C   UNL     1      -5.076   3.030   0.525  0.00  0.00    +0.223 C 
ATOM     17  O   UNL     1      -4.250   3.917   0.552  0.00  0.00    -0.275 OA
ATOM     18  N   UNL     1      -6.388   3.328   0.621  0.00  0.00    -0.312 N 
ATOM     19  H   UNL     1      -7.048   2.618   0.600  0.00  0.00    +0.149 HD
BRANCH  18  20
ATOM     20  C   UNL     1      -6.814   4.723   0.757  0.00  0.00    +0.135 C 
BRANCH  20  21
ATOM     21  C   UNL     1      -8.341   4.783   0.846  0.00  0.00    +0.135 C 
ATOM     22  C   UNL     1      -8.815   6.253   0.955  0.00  0.00    +0.035 C 
ATOM     23  C   UNL     1     -10.258   6.140   0.391  0.00  0.00    +0.031 C 
ATOM     24  C   UNL     1     -10.104   5.044  -0.685  0.00  0.00    +0.160 C 
ATOM     25  O   UNL     1      -8.930   4.285  -0.366  0.00  0.00    -0.375 OA
ENDBRANCH  20  21
ENDBRANCH  18  20
ENDBRANCH  15  16
ENDBRANCH  14  15
ENDBRANCH   5  14
BRANCH   2  26
ATOM     26  C   UNL     1      -0.788  -2.688  -1.423  0.00  0.00    +0.097 C 
BRANCH  26  27
ATOM     27  C   UNL     1      -0.958  -4.183  -1.503  0.00  0.00    +0.029 A 
ATOM     28  N   UNL     1      -0.027  -5.012  -0.939  0.00  0.00    -0.311 N 
ATOM     29  C   UNL     1      -0.169  -6.348  -1.004  0.00  0.00    +0.327 A 
ATOM     30  O   UNL     1       0.670  -7.066  -0.496  0.00  0.00    -0.247 OA
ATOM     31  N   UNL     1      -1.228  -6.902  -1.625  0.00  0.00    -0.275 N 
ATOM     32  C   UNL     1      -2.167  -6.120  -2.194  0.00  0.00    +0.254 A 
ATOM     33  O   UNL     1      -3.125  -6.619  -2.756  0.00  0.00    -0.268 OA
ATOM     34  C   UNL     1      -2.032  -4.712  -2.128  0.00  0.00    +0.091 A 
ATOM     35  H   UNL     1      -1.315  -7.867  -1.663  0.00  0.00    +0.173 HD
ATOM     36  H   UNL     1       0.743  -4.633  -0.487  0.00  0.00    +0.170 HD
ENDBRANCH  26  27
ENDBRANCH   2  26
TORSDOF 8
