REMARK  Name = ZINC09463134
REMARK  19 active torsions:
REMARK  status: ('A' for Active; 'I' for Inactive)
REMARK    1  A    between atoms: C_1  and  C_2
REMARK    2  A    between atoms: C_2  and  N_73
REMARK    3  A    between atoms: C_3  and  C_4
REMARK    4  A    between atoms: C_3  and  N_73
REMARK    5  A    between atoms: C_5  and  C_6
REMARK    6  A    between atoms: C_5  and  N_73
REMARK    7  A    between atoms: C_6  and  N_7
REMARK    8  A    between atoms: C_8  and  C_29
REMARK    9  A    between atoms: C_10  and  C_15
REMARK   10  A    between atoms: C_11  and  O_14
REMARK   11  A    between atoms: C_15  and  C_17
REMARK   12  A    between atoms: C_18  and  C_28
REMARK   13  A    between atoms: C_19  and  C_24
REMARK   14  A    between atoms: C_22  and  C_23
REMARK   15  A    between atoms: C_24  and  O_26
REMARK   16  A    between atoms: O_26  and  C_27
REMARK   17  A    between atoms: C_32  and  C_35
REMARK   18  A    between atoms: C_35  and  C_36
REMARK   19  A    between atoms: C_35  and  C_37
REMARK                            x       y       z     vdW  Elec       q    Type
REMARK                         _______ _______ _______ _____ _____    ______ ____
ROOT
ATOM      1  N   UNL     1      -3.045   1.533  -1.144  0.00  0.00    -0.285 N 
ATOM      2  C   UNL     1      -1.874   0.887  -0.539  0.00  0.00    +0.144 C 
ATOM      3  C   UNL     1      -2.175   0.768   0.937  0.00  0.00    +0.071 C 
ATOM      4  C   UNL     1      -3.403   1.301   1.129  0.00  0.00    +0.188 C 
ATOM      5  C   UNL     1      -3.936   1.774  -0.166  0.00  0.00    +0.282 C 
ATOM      6  O   UNL     1      -5.019   2.302  -0.323  0.00  0.00    -0.267 OA
ENDROOT
BRANCH   2   7
ATOM      7  C   UNL     1      -0.646   1.735  -0.751  0.00  0.00    -0.022 A 
ATOM      8  C   UNL     1       0.586   1.135  -0.930  0.00  0.00    +0.006 A 
ATOM      9  C   UNL     1       1.711   1.913  -1.130  0.00  0.00    +0.004 A 
ATOM     10  C   UNL     1       1.605   3.291  -1.146  0.00  0.00    -0.045 A 
ATOM     11  C   UNL     1       0.373   3.891  -0.962  0.00  0.00    +0.004 A 
ATOM     12  C   UNL     1      -0.752   3.113  -0.763  0.00  0.00    +0.006 A 
BRANCH  10  13
ATOM     13  C   UNL     1       2.831   4.139  -1.363  0.00  0.00    +0.013 C 
ATOM     14  C   UNL     1       2.645   4.992  -2.619  0.00  0.00    +0.012 C 
ATOM     15  C   UNL     1       3.042   5.051  -0.153  0.00  0.00    +0.012 C 
ENDBRANCH  10  13
ENDBRANCH   2   7
BRANCH   4  16
ATOM     16  O   UNL     1      -4.042   1.388   2.319  0.00  0.00    -0.502 OA
ATOM     17  H   UNL     1      -4.933   1.823   2.187  0.00  0.00    +0.292 HD
ENDBRANCH   4  16
BRANCH   3  18
ATOM     18  C   UNL     1      -1.303   0.186   1.963  0.00  0.00    +0.197 C 
ATOM     19  O   UNL     1      -0.395   0.845   2.435  0.00  0.00    -0.287 OA
BRANCH  18  20
ATOM     20  C   UNL     1      -1.527  -1.197   2.423  0.00  0.00    +0.046 A 
ATOM     21  C   UNL     1      -0.854  -1.850   3.480  0.00  0.00    -0.008 A 
ATOM     22  C   UNL     1      -1.372  -3.108   3.566  0.00  0.00    +0.128 A 
ATOM     23  N   UNL     1      -2.335  -3.248   2.589  0.00  0.00    -0.352 N 
ATOM     24  H   UNL     1      -2.858  -4.049   2.427  0.00  0.00    +0.166 HD
ATOM     25  C   UNL     1      -2.433  -2.102   1.898  0.00  0.00    +0.025 A 
ATOM     26  C   UNL     1      -3.370  -1.844   0.746  0.00  0.00    +0.064 C 
ATOM     27  C   UNL     1       0.230  -1.265   4.349  0.00  0.00    +0.047 C 
BRANCH  22  28
ATOM     28  C   UNL     1      -0.970  -4.139   4.529  0.00  0.00    +0.356 C 
ATOM     29  O   UNL     1      -0.105  -3.900   5.349  0.00  0.00    -0.243 OA
BRANCH  28  30
ATOM     30  O   UNL     1      -1.559  -5.352   4.505  0.00  0.00    -0.463 OA
ATOM     31  C   UNL     1      -1.111  -6.322   5.487  0.00  0.00    +0.280 C 
ENDBRANCH  28  30
ENDBRANCH  22  28
ENDBRANCH  18  20
ENDBRANCH   3  18
BRANCH   1  32
ATOM     32  C   UNL     1      -3.213   1.859  -2.563  0.00  0.00    +0.090 C 
BRANCH  32  33
ATOM     33  C   UNL     1      -3.869   0.678  -3.283  0.00  0.00    -0.060 C 
BRANCH  33  34
ATOM     34  N   UNL     1      -4.012   1.014  -4.715  0.00  0.00    +0.380 N 
ATOM     35  H   UNL     1      -3.104   1.329  -5.076  0.00  0.00    -0.082 HD
BRANCH  34  37
ATOM     36  C   UNL     1      -3.311  -1.211  -5.454  0.00  0.00    -0.017 C 
ATOM     37  C   UNL     1      -4.442  -0.181  -5.473  0.00  0.00    -0.082 C 
ENDBRANCH  34  37
BRANCH  34  38
ATOM     38  C   UNL     1      -4.999   2.101  -4.883  0.00  0.00    -0.082 C 
ATOM     39  C   UNL     1      -5.043   2.505  -6.358  0.00  0.00    -0.017 C 
ENDBRANCH  34  38
ENDBRANCH  33  34
ENDBRANCH  32  33
ENDBRANCH   1  32
TORSDOF 12
