REMARK  Name = ZINC39676309
REMARK  6 active torsions:
REMARK  status: ('A' for Active; 'I' for Inactive)
REMARK    1  A    between atoms: C_1  and  C_2
REMARK    2  A    between atoms: C_4  and  C_13
REMARK    3  A    between atoms: C_6  and  C_9
REMARK    4  A    between atoms: C_17  and  C_26
REMARK    5  A    between atoms: N_28  and  C_29
REMARK    6  A    between atoms: C_29  and  C_30
REMARK                            x       y       z     vdW  Elec       q    Type
REMARK                         _______ _______ _______ _____ _____    ______ ____
ROOT
ATOM      1  C   UNL     1      -1.483  -3.093  -1.151  0.00  0.00    +0.226 C 
ATOM      2  O   UNL     1      -0.940  -3.587  -2.116  0.00  0.00    -0.275 OA
ATOM      3  N   UNL     1      -2.824  -3.153  -1.028  0.00  0.00    -0.300 N 
ATOM      4  C   UNL     1      -3.661  -2.607   0.066  0.00  0.00    +0.121 C 
ATOM      5  C   UNL     1      -4.910  -2.039  -0.645  0.00  0.00    +0.100 C 
ATOM      6  C   UNL     1      -4.993  -2.814  -1.970  0.00  0.00    -0.004 C 
ATOM      7  C   UNL     1      -3.795  -3.774  -1.960  0.00  0.00    +0.115 C 
ATOM      8  C   UNL     1      -6.300  -3.599  -2.043  0.00  0.00    -0.010 C 
ATOM      9  C   UNL     1      -6.385  -4.315  -3.394  0.00  0.00    -0.082 C 
ATOM     10  N   UNL     1      -6.324  -3.327  -4.478  0.00  0.00    +0.379 N 
ATOM     11  C   UNL     1      -5.027  -2.641  -4.457  0.00  0.00    -0.082 C 
ATOM     12  C   UNL     1      -4.884  -1.854  -3.151  0.00  0.00    -0.010 C 
ATOM     13  H   UNL     1      -6.442  -3.794  -5.364  0.00  0.00    -0.086 HD
ATOM     14  H   UNL     1      -7.063  -2.650  -4.356  0.00  0.00    -0.086 HD
ENDROOT
BRANCH   1  18
ATOM     15  C   UNL     1       0.135   1.246   0.163  0.00  0.00    +0.085 C 
ATOM     16  C   UNL     1       0.091  -0.257   0.060  0.00  0.00    +0.092 C 
ATOM     17  C   UNL     1      -1.030  -0.944   0.031  0.00  0.00    +0.030 C 
ATOM     18  C   UNL     1      -0.659  -2.412  -0.088  0.00  0.00    +0.150 C 
ATOM     19  C   UNL     1       0.829  -2.326  -0.510  0.00  0.00    +0.292 C 
ATOM     20  O   UNL     1       1.201  -1.026  -0.016  0.00  0.00    -0.484 OA
BRANCH  19  21
ATOM     21  C   UNL     1       1.653  -3.428   0.161  0.00  0.00    +0.427 C 
ATOM     22  F   UNL     1       1.151  -4.679  -0.215  0.00  0.00    -0.167 F 
ATOM     23  F   UNL     1       2.988  -3.321  -0.241  0.00  0.00    -0.167 F 
ATOM     24  F   UNL     1       1.571  -3.291   1.550  0.00  0.00    -0.167 F 
ENDBRANCH  19  21
ENDBRANCH   1  18
BRANCH   5  25
ATOM     25  C   UNL     1      -6.143  -2.284   0.187  0.00  0.00    +0.219 C 
ATOM     26  O   UNL     1      -6.207  -3.260   0.904  0.00  0.00    -0.275 OA
ATOM     27  N   UNL     1      -7.175  -1.418   0.134  0.00  0.00    -0.308 N 
ATOM     28  H   UNL     1      -7.123  -0.637  -0.440  0.00  0.00    +0.149 HD
BRANCH  27  29
ATOM     29  C   UNL     1      -8.373  -1.656   0.942  0.00  0.00    +0.178 C 
BRANCH  29  30
ATOM     30  C   UNL     1      -9.368  -0.550   0.702  0.00  0.00    +0.128 A 
ATOM     31  N   UNL     1     -10.550  -0.590   1.370  0.00  0.00    -0.309 N 
ATOM     32  H   UNL     1     -10.731  -1.320   1.983  0.00  0.00    +0.170 HD
ATOM     33  C   UNL     1     -11.477   0.379   1.190  0.00  0.00    +0.259 A 
ATOM     34  O   UNL     1     -12.540   0.356   1.783  0.00  0.00    -0.267 OA
ATOM     35  C   UNL     1     -11.151   1.462   0.249  0.00  0.00    +0.065 A 
ATOM     36  C   UNL     1     -12.036   2.506  -0.008  0.00  0.00    +0.015 A 
ATOM     37  C   UNL     1     -11.679   3.495  -0.899  0.00  0.00    +0.001 A 
ATOM     38  C   UNL     1     -10.447   3.456  -1.540  0.00  0.00    +0.002 A 
ATOM     39  C   UNL     1      -9.559   2.433  -1.300  0.00  0.00    +0.028 A 
ATOM     40  C   UNL     1      -9.898   1.419  -0.400  0.00  0.00    +0.078 A 
ATOM     41  N   UNL     1      -9.050   0.395  -0.130  0.00  0.00    -0.232 NA
ENDBRANCH  29  30
ENDBRANCH  27  29
ENDBRANCH   5  25
TORSDOF 5
