REMARK  Name = ZINC34672825
REMARK  9 active torsions:
REMARK  status: ('A' for Active; 'I' for Inactive)
REMARK    1  A    between atoms: C_1  and  C_2
REMARK    2  A    between atoms: C_2  and  N_3
REMARK    3  A    between atoms: N_3  and  C_4
REMARK    4  A    between atoms: C_4  and  C_6
REMARK    5  A    between atoms: C_4  and  C_20
REMARK    6  A    between atoms: C_9  and  C_11
REMARK    7  A    between atoms: C_14  and  C_18
REMARK    8  A    between atoms: C_20  and  C_21
REMARK    9  A    between atoms: C_20  and  C_22
REMARK                            x       y       z     vdW  Elec       q    Type
REMARK                         _______ _______ _______ _____ _____    ______ ____
ROOT
ATOM      1  C   UNL     1      -2.738  -2.780  -0.303  0.00  0.00    -0.023 A 
ATOM      2  C   UNL     1      -3.087  -3.948  -0.900  0.00  0.00    +0.010 A 
ATOM      3  C   UNL     1      -4.422  -4.266  -1.023  0.00  0.00    +0.016 A 
ATOM      4  C   UNL     1      -5.355  -3.391  -0.536  0.00  0.00    +0.022 A 
ATOM      5  S   UNL     1      -4.327  -2.086   0.118  0.00  0.00    -0.095 S 
ENDROOT
BRANCH   4   6
ATOM      6  C   UNL     1      -6.829  -3.500  -0.545  0.00  0.00    +0.017 A 
ATOM      7  C   UNL     1      -7.525  -3.503  -1.756  0.00  0.00    +0.027 A 
ATOM      8  C   UNL     1      -8.901  -3.605  -1.757  0.00  0.00    +0.019 A 
ATOM      9  C   UNL     1      -9.592  -3.705  -0.563  0.00  0.00    -0.048 A 
ATOM     10  C   UNL     1      -8.909  -3.703   0.640  0.00  0.00    +0.019 A 
ATOM     11  C   UNL     1      -7.532  -3.606   0.656  0.00  0.00    +0.027 A 
ATOM     12 BR   UNL     1      -6.600  -3.611   2.302  0.00  0.00    -0.050 Br
ATOM     13  C   UNL     1     -11.095  -3.817  -0.572  0.00  0.00    +0.044 C 
ATOM     14 BR   UNL     1      -6.583  -3.365  -3.390  0.00  0.00    -0.050 Br
ENDBRANCH   4   6
BRANCH   1  15
ATOM     15  C   UNL     1      -1.362  -2.218  -0.053  0.00  0.00    -0.031 C 
BRANCH  15  16
ATOM     16  N   UNL     1      -1.374  -0.769  -0.296  0.00  0.00    +0.384 N 
ATOM     17  H   UNL     1      -0.480  -0.378  -0.041  0.00  0.00    -0.085 HD
ATOM     18  H   UNL     1      -2.099  -0.341   0.260  0.00  0.00    -0.085 HD
BRANCH  16  20
ATOM     19  C   UNL     1      -1.674   0.997  -1.966  0.00  0.00    -0.017 C 
ATOM     20  C   UNL     1      -1.632  -0.513  -1.719  0.00  0.00    -0.085 C 
ENDBRANCH  16  20
ENDBRANCH  15  16
BRANCH  15  21
ATOM     21  C   UNL     1      -0.956  -2.489   1.396  0.00  0.00    -0.027 C 
ATOM     22  C   UNL     1      -0.990  -3.995   1.663  0.00  0.00    +0.006 C 
ATOM     23  C   UNL     1       0.460  -1.961   1.636  0.00  0.00    +0.006 C 
ENDBRANCH  15  21
ENDBRANCH   1  15
TORSDOF 5
