REMARK  Name = ZINC16819436
REMARK  13 active torsions:
REMARK  status: ('A' for Active; 'I' for Inactive)
REMARK    1  A    between atoms: C_1  and  C_2
REMARK    2  A    between atoms: C_2  and  C_4
REMARK    3  A    between atoms: C_2  and  O_15
REMARK    4  A    between atoms: N_6  and  C_7
REMARK    5  A    between atoms: C_8  and  C_12
REMARK    6  A    between atoms: O_15  and  C_16
REMARK    7  A    between atoms: C_16  and  C_18
REMARK    8  A    between atoms: C_18  and  C_20
REMARK    9  A    between atoms: C_18  and  N_24
REMARK   10  A    between atoms: C_20  and  C_21
REMARK   11  A    between atoms: C_21  and  S_22
REMARK   12  A    between atoms: S_22  and  C_23
REMARK   13  A    between atoms: C_25  and  C_27
REMARK                            x       y       z     vdW  Elec       q    Type
REMARK                         _______ _______ _______ _____ _____    ______ ____
ROOT
ATOM      1  C   UNL     1       2.344   0.863   0.585  0.00  0.00    +0.328 C 
ATOM      2  O   UNL     1       2.099  -0.256   0.969  0.00  0.00    -0.249 OA
ENDROOT
BRANCH   1   3
ATOM      3  O   UNL     1       3.592   1.347   0.679  0.00  0.00    -0.451 OA
BRANCH   3   5
ATOM      4  C   UNL     1       5.250  -0.354   0.142  0.00  0.00    +0.062 C 
ATOM      5  C   UNL     1       4.597   0.470   1.253  0.00  0.00    +0.259 C 
BRANCH   5   6
ATOM      6  C   UNL     1       5.648   1.298   1.948  0.00  0.00    +0.258 C 
ATOM      7  O   UNL     1       5.559   2.507   1.958  0.00  0.00    -0.271 OA
ATOM      8  N   UNL     1       6.687   0.694   2.558  0.00  0.00    -0.276 N 
ATOM      9  H   UNL     1       6.758  -0.274   2.550  0.00  0.00    +0.155 HD
BRANCH   8  10
ATOM     10  C   UNL     1       7.654   1.455   3.197  0.00  0.00    +0.084 A 
ATOM     11  C   UNL     1       8.784   1.020   3.879  0.00  0.00    +0.065 A 
ATOM     12  C   UNL     1       9.630   2.040   4.451  0.00  0.00    +0.022 A 
ATOM     13  C   UNL     1       9.248   3.319   4.284  0.00  0.00    +0.048 A 
ATOM     14  S   UNL     1       7.742   3.178   3.345  0.00  0.00    -0.081 S 
BRANCH  11  15
ATOM     15  C   UNL     1       9.103  -0.405   4.008  0.00  0.00    +0.244 C 
ATOM     16  O   UNL     1       8.370  -1.240   3.511  0.00  0.00    -0.270 OA
ATOM     17  N   UNL     1      10.208  -0.791   4.676  0.00  0.00    -0.325 N 
ATOM     18  H   UNL     1      10.792  -0.125   5.072  0.00  0.00    +0.145 HD
ATOM     19  H   UNL     1      10.419  -1.734   4.762  0.00  0.00    +0.145 HD
ENDBRANCH  11  15
ENDBRANCH   8  10
ENDBRANCH   5   6
ENDBRANCH   3   5
ENDBRANCH   1   3
BRANCH   1  20
ATOM     20  C   UNL     1       1.248   1.716  -0.001  0.00  0.00    +0.183 C 
BRANCH  20  21
ATOM     21  N   UNL     1      -0.011   0.966   0.007  0.00  0.00    -0.298 N 
ATOM     22  C   UNL     1      -1.187   1.624   0.017  0.00  0.00    +0.246 C 
ATOM     23  O   UNL     1      -1.204   2.839   0.023  0.00  0.00    -0.270 OA
ATOM     24  H   UNL     1       0.002  -0.004   0.002  0.00  0.00    +0.150 HD
BRANCH  22  25
ATOM     25  C   UNL     1      -2.457   0.868   0.018  0.00  0.00    +0.055 A 
ATOM     26  C   UNL     1      -2.442  -0.528   0.005  0.00  0.00    +0.014 A 
ATOM     27  C   UNL     1      -3.630  -1.228   0.013  0.00  0.00    +0.001 A 
ATOM     28  C   UNL     1      -4.837  -0.550   0.022  0.00  0.00    +0.001 A 
ATOM     29  C   UNL     1      -4.861   0.832   0.030  0.00  0.00    +0.021 A 
ATOM     30  C   UNL     1      -3.678   1.546   0.028  0.00  0.00    +0.053 A 
ATOM     31 CL   UNL     1      -3.709   3.282   0.037  0.00  0.00    -0.083 Cl
ENDBRANCH  22  25
ENDBRANCH  20  21
BRANCH  20  32
ATOM     32  C   UNL     1       1.608   2.092  -1.439  0.00  0.00    +0.044 C 
BRANCH  32  33
ATOM     33  C   UNL     1       0.558   3.058  -1.992  0.00  0.00    +0.071 C 
BRANCH  33  34
ATOM     34  S   UNL     1       0.985   3.505  -3.697  0.00  0.00    -0.164 S 
ATOM     35  C   UNL     1      -0.340   4.638  -4.198  0.00  0.00    +0.084 C 
ENDBRANCH  33  34
ENDBRANCH  32  33
ENDBRANCH  20  32
ENDBRANCH   1  20
TORSDOF 11
