REMARK  Name = ZINC44563840
REMARK  16 active torsions:
REMARK  status: ('A' for Active; 'I' for Inactive)
REMARK    1  A    between atoms: C_1  and  C_2
REMARK    2  A    between atoms: C_4  and  C_32
REMARK    3  A    between atoms: C_5  and  S_9
REMARK    4  A    between atoms: C_6  and  C_8
REMARK    5  A    between atoms: S_9  and  N_12
REMARK    6  A    between atoms: N_15  and  C_16
REMARK    7  A    between atoms: C_16  and  C_17
REMARK    8  A    between atoms: C_17  and  C_18
REMARK    9  A    between atoms: C_18  and  C_19
REMARK   10  A    between atoms: C_19  and  C_21
REMARK   11  A    between atoms: C_19  and  N_24
REMARK   12  A    between atoms: C_25  and  O_27
REMARK   13  A    between atoms: O_27  and  C_28
REMARK   14  A    between atoms: C_28  and  C_29
REMARK   15  A    between atoms: C_28  and  C_30
REMARK   16  A    between atoms: C_28  and  C_31
REMARK                            x       y       z     vdW  Elec       q    Type
REMARK                         _______ _______ _______ _____ _____    ______ ____
ROOT
ATOM      1  N   UNK A   1       2.139  -5.192   0.740  0.00  0.00    -0.310 N 
ATOM      2  C   UNK A   1       2.864  -6.359   0.800  0.00  0.00    +0.178 C 
ATOM      3  N   UNK A   1       2.861  -7.181  -0.212  0.00  0.00    -0.371 N 
ATOM      4  N   UNK A   1       3.592  -6.659   1.927  0.00  0.00    -0.357 N 
ATOM      5  H   UNK A   1       2.142  -4.581   1.493  0.00  0.00    +0.176 HD
ATOM      6  H   UNK A   1       3.373  -8.004  -0.169  0.00  0.00    +0.159 HD
ATOM      7  H   UNK A   1       3.594  -6.048   2.680  0.00  0.00    +0.162 HD
ATOM      8  H   UNK A   1       2.348  -6.969  -1.007  0.00  0.00    +0.159 HD
ENDROOT
BRANCH   1   9
ATOM      9  S   UNK A   1       1.263  -4.831  -0.618  0.00  0.00    -0.110 S 
ATOM     10  C   UNK A   1       0.310  -6.012  -0.948  0.00  0.00    +0.065 C 
ATOM     11  C   UNK A   1       2.230  -4.596  -1.811  0.00  0.00    +0.065 C 
BRANCH   9  16
ATOM     12  C   UNK A   1      -1.984   0.161   0.352  0.00  0.00    +0.044 C 
ATOM     13  C   UNK A   1      -1.173  -1.086   0.110  0.00  0.00    -0.050 A 
ATOM     14  C   UNK A   1      -0.843  -1.456  -1.180  0.00  0.00    +0.007 A 
ATOM     15  C   UNK A   1      -0.099  -2.599  -1.403  0.00  0.00    -0.036 A 
ATOM     16  C   UNK A   1       0.316  -3.373  -0.334  0.00  0.00    +0.020 A 
ATOM     17  C   UNK A   1      -0.013  -3.002   0.956  0.00  0.00    -0.036 A 
ATOM     18  C   UNK A   1      -0.754  -1.856   1.179  0.00  0.00    +0.007 A 
ATOM     19  C   UNK A   1       0.438  -3.846   2.120  0.00  0.00    +0.045 C 
ATOM     20  C   UNK A   1       0.260  -3.003  -2.809  0.00  0.00    +0.045 C 
ENDBRANCH   9  16
ENDBRANCH   1   9
BRANCH   4  21
ATOM     21  C   UNK A   1       4.364  -7.903   1.992  0.00  0.00    +0.115 C 
BRANCH  21  22
ATOM     22  C   UNK A   1       5.075  -7.992   3.343  0.00  0.00    +0.023 C 
BRANCH  22  23
ATOM     23  C   UNK A   1       5.881  -9.291   3.410  0.00  0.00    +0.036 C 
BRANCH  23  24
ATOM     24  C   UNK A   1       6.593  -9.380   4.762  0.00  0.00    +0.189 C 
BRANCH  24  25
ATOM     25  N   UNK A   1       5.597  -9.487   5.831  0.00  0.00    -0.268 N 
ATOM     26  C   UNK A   0       5.904  -9.083   7.080  0.00  0.00    +0.401 C 
ATOM     27  O   UNK A   0       7.006  -8.630   7.319  0.00  0.00    -0.226 OA
ATOM     28  H   UNK A   1       4.718  -9.848   5.641  0.00  0.00    +0.153 HD
BRANCH  26  29
ATOM     29  O   UNK A   0       4.989  -9.181   8.063  0.00  0.00    -0.445 OA
BRANCH  29  30
ATOM     30  C   UNK A   0       5.382  -8.733   9.362  0.00  0.00    +0.107 C 
ATOM     31  C   UNK A   0       5.761  -7.252   9.299  0.00  0.00    +0.055 C 
ATOM     32  C   UNK A   0       4.220  -8.921  10.339  0.00  0.00    +0.055 C 
ATOM     33  C   UNK A   0       6.587  -9.548   9.839  0.00  0.00    +0.055 C 
ENDBRANCH  29  30
ENDBRANCH  26  29
ENDBRANCH  24  25
BRANCH  24  34
ATOM     34  C   UNK A   1       7.483 -10.596   4.781  0.00  0.00    +0.376 C 
ATOM     35  O   UNK A   1       8.640 -10.510   4.408  0.00  0.00    -0.244 OA
ATOM     36  O   UNK A   1       7.046 -11.666   5.170  0.00  0.00    -0.244 OA
ENDBRANCH  24  34
ENDBRANCH  23  24
ENDBRANCH  22  23
ENDBRANCH  21  22
ENDBRANCH   4  21
TORSDOF 10
