REMARK  Name = ZINC37926402
REMARK  4 active torsions:
REMARK  status: ('A' for Active; 'I' for Inactive)
REMARK    1  A    between atoms: C_1  and  C_2
REMARK    2  A    between atoms: C_3  and  S_8
REMARK    3  A    between atoms: S_8  and  N_11
REMARK    4  A    between atoms: N_11  and  C_12
REMARK                            x       y       z     vdW  Elec       q    Type
REMARK                         _______ _______ _______ _____ _____    ______ ____
ROOT
ATOM      1  S   UNL     1      -0.011  -0.126  -2.821  0.00  0.00    +0.100 S 
ATOM      2  O   UNL     1      -1.367  -0.149  -3.246  0.00  0.00    -0.148 OA
ATOM      3  O   UNL     1       0.776   1.057  -2.848  0.00  0.00    -0.148 OA
ENDROOT
BRANCH   1   6
ATOM      4  C   UNL     1      -0.018   1.503   0.010  0.00  0.00    +0.068 C 
ATOM      5  C   UNL     1       0.002  -0.004   0.002  0.00  0.00    +0.076 A 
ATOM      6  C   UNL     1       0.006  -0.706  -1.157  0.00  0.00    +0.173 A 
ATOM      7  S   UNL     1       0.032  -2.378  -0.534  0.00  0.00    -0.004 S 
ATOM      8  C   UNL     1       0.035  -2.014   1.109  0.00  0.00    +0.312 A 
ATOM      9  O   UNL     1       0.052  -2.869   2.161  0.00  0.00    -0.258 OA
ATOM     10  N   UNL     1       0.023  -0.700   1.125  0.00  0.00    -0.206 NA
ENDBRANCH   1   6
BRANCH   1  11
ATOM     11  N   UNL     1       0.791  -1.248  -3.738  0.00  0.00    -0.094 NA
BRANCH  11  12
ATOM     12  C   UNL     1       0.936  -1.051  -5.115  0.00  0.00    +0.111 A 
ATOM     13  C   UNL     1       0.413   0.087  -5.714  0.00  0.00    +0.030 A 
ATOM     14  C   UNL     1       0.558   0.280  -7.074  0.00  0.00    +0.004 A 
ATOM     15  C   UNL     1       1.223  -0.659  -7.841  0.00  0.00    +0.023 A 
ATOM     16  C   UNL     1       1.746  -1.796  -7.250  0.00  0.00    +0.078 A 
ATOM     17  C   UNL     1       1.609  -1.992  -5.886  0.00  0.00    +0.166 A 
ATOM     18  F   UNL     1       2.124  -3.099  -5.307  0.00  0.00    -0.202 F 
ATOM     19 CL   UNL     1       2.579  -2.972  -8.216  0.00  0.00    -0.081 Cl
ENDBRANCH  11  12
ENDBRANCH   1  11
TORSDOF 3
