REMARK  Name = ZINC36493836
REMARK  13 active torsions:
REMARK  status: ('A' for Active; 'I' for Inactive)
REMARK    1  A    between atoms: C_1  and  C_2
REMARK    2  A    between atoms: C_2  and  C_3
REMARK    3  A    between atoms: C_2  and  C_4
REMARK    4  A    between atoms: C_2  and  N_5
REMARK    5  A    between atoms: C_6  and  C_8
REMARK    6  A    between atoms: C_8  and  C_10
REMARK    7  A    between atoms: C_8  and  N_17
REMARK    8  A    between atoms: C_15  and  O_16
REMARK    9  A    between atoms: N_17  and  C_18
REMARK   10  A    between atoms: C_18  and  C_19
REMARK   11  A    between atoms: C_24  and  C_26
REMARK   12  A    between atoms: C_26  and  C_34
REMARK   13  A    between atoms: C_27  and  C_28
REMARK                            x       y       z     vdW  Elec       q    Type
REMARK                         _______ _______ _______ _____ _____    ______ ____
ROOT
ATOM      1  N   UNL     1       3.450  -0.660  -2.470  0.00  0.00    -0.274 N 
ATOM      2  C   UNL     1       4.591  -1.367  -2.589  0.00  0.00    +0.248 C 
ATOM      3  O   UNL     1       5.665  -0.817  -2.442  0.00  0.00    -0.270 OA
ENDROOT
BRANCH   2   4
ATOM      4  C   UNL     1       4.536  -2.806  -2.896  0.00  0.00    +0.045 C 
ATOM      5  C   UNL     1       4.257  -3.701  -1.911  0.00  0.00    +0.021 C 
BRANCH   5   6
ATOM      6  C   UNL     1       4.208  -3.261  -0.511  0.00  0.00    -0.024 A 
ATOM      7  C   UNL     1       5.081  -2.267  -0.054  0.00  0.00    +0.008 A 
ATOM      8  C   UNL     1       5.027  -1.859   1.262  0.00  0.00    +0.001 A 
ATOM      9  C   UNL     1       4.114  -2.430   2.131  0.00  0.00    +0.000 A 
ATOM     10  C   UNL     1       3.247  -3.415   1.688  0.00  0.00    +0.001 A 
ATOM     11  C   UNL     1       3.283  -3.829   0.373  0.00  0.00    +0.008 A 
ENDBRANCH   5   6
BRANCH   4  12
ATOM     12  C   UNL     1       4.785  -3.278  -4.277  0.00  0.00    -0.013 A 
ATOM     13  C   UNL     1       6.006  -3.015  -4.898  0.00  0.00    +0.008 A 
ATOM     14  C   UNL     1       6.232  -3.457  -6.185  0.00  0.00    +0.001 A 
ATOM     15  C   UNL     1       5.250  -4.160  -6.861  0.00  0.00    +0.000 A 
ATOM     16  C   UNL     1       4.036  -4.423  -6.251  0.00  0.00    +0.001 A 
ATOM     17  C   UNL     1       3.801  -3.992  -4.962  0.00  0.00    +0.008 A 
ENDBRANCH   4  12
ENDBRANCH   2   4
BRANCH   1  18
ATOM     18  C   UNL     1       2.155  -1.340  -2.545  0.00  0.00    +0.196 C 
BRANCH  18  19
ATOM     19  C   UNL     1       1.302  -0.684  -3.601  0.00  0.00    +0.023 A 
ATOM     20  C   UNL     1       0.232   0.108  -3.232  0.00  0.00    +0.009 A 
ATOM     21  C   UNL     1      -0.550   0.709  -4.200  0.00  0.00    +0.001 A 
ATOM     22  C   UNL     1      -0.264   0.520  -5.540  0.00  0.00    +0.004 A 
ATOM     23  C   UNL     1       0.805  -0.271  -5.913  0.00  0.00    +0.046 A 
ATOM     24  C   UNL     1       1.595  -0.871  -4.944  0.00  0.00    +0.122 A 
BRANCH  24  25
ATOM     25  O   UNL     1       2.651  -1.645  -5.309  0.00  0.00    -0.506 OA
ATOM     26  H   UNL     1       2.414  -2.559  -5.521  0.00  0.00    +0.292 HD
ENDBRANCH  24  25
ENDBRANCH  18  19
BRANCH  18  28
ATOM     27  N   UNL     1       0.330  -1.946  -0.988  0.00  0.00    -0.309 N 
ATOM     28  C   UNL     1       1.461  -1.247  -1.210  0.00  0.00    +0.239 C 
ATOM     29  O   UNL     1       1.920  -0.543  -0.336  0.00  0.00    -0.273 OA
ATOM     30  H   UNL     1      -0.063  -2.473  -1.702  0.00  0.00    +0.149 HD
BRANCH  27  32
ATOM     31  C   UNL     1      -0.689  -0.470   0.674  0.00  0.00    +0.031 C 
ATOM     32  C   UNL     1      -0.306  -1.911   0.331  0.00  0.00    +0.026 C 
ATOM     33  C   UNL     1       0.670  -2.444   1.382  0.00  0.00    +0.031 C 
ATOM     34  C   UNL     1      -1.563  -2.783   0.314  0.00  0.00    +0.031 C 
ENDBRANCH  27  32
ENDBRANCH  18  28
ENDBRANCH   1  18
BRANCH   1  35
ATOM     35  C   UNL     1       3.505   0.790  -2.267  0.00  0.00    +0.183 C 
BRANCH  35  36
ATOM     36  C   UNL     1       3.667   1.478  -3.598  0.00  0.00    +0.122 A 
ATOM     37  C   UNL     1       2.674   2.002  -4.339  0.00  0.00    +0.046 A 
ATOM     38  C   UNL     1       3.271   2.543  -5.500  0.00  0.00    +0.041 A 
ATOM     39  C   UNL     1       4.593   2.318  -5.399  0.00  0.00    +0.195 A 
ATOM     40  O   UNL     1       4.828   1.678  -4.242  0.00  0.00    -0.466 OA
ENDBRANCH  35  36
ENDBRANCH   1  35
TORSDOF 10
