REMARK  Name = ZINC60159480
REMARK  9 active torsions:
REMARK  status: ('A' for Active; 'I' for Inactive)
REMARK    1  A    between atoms: C_4  and  C_7
REMARK    2  A    between atoms: C_7  and  N_8
REMARK    3  A    between atoms: C_13  and  C_15
REMARK    4  A    between atoms: C_15  and  N_16
REMARK    5  A    between atoms: C_17  and  C_19
REMARK    6  A    between atoms: C_22  and  S_25
REMARK    7  A    between atoms: S_25  and  N_28
REMARK    8  A    between atoms: N_28  and  C_29
REMARK    9  A    between atoms: C_29  and  C_30
REMARK                            x       y       z     vdW  Elec       q    Type
REMARK                         _______ _______ _______ _____ _____    ______ ____
ROOT
ATOM      1  N   UNL     1       4.735  -2.627  -1.008  0.00  0.00    -0.313 N 
ATOM      2  C   UNL     1       4.370  -3.544  -1.926  0.00  0.00    +0.244 C 
ATOM      3  O   UNL     1       4.315  -4.720  -1.621  0.00  0.00    -0.270 OA
ATOM      4  H   UNL     1       4.779  -1.689  -1.252  0.00  0.00    +0.149 HD
ENDROOT
BRANCH   2   5
ATOM      5  C   UNL     1       4.036  -3.121  -3.302  0.00  0.00    +0.037 A 
ATOM      6  C   UNL     1       4.103  -1.773  -3.657  0.00  0.00    +0.015 A 
ATOM      7  C   UNL     1       3.791  -1.385  -4.944  0.00  0.00    +0.029 A 
ATOM      8  C   UNL     1       3.410  -2.329  -5.881  0.00  0.00    +0.105 A 
ATOM      9  C   UNL     1       3.341  -3.667  -5.536  0.00  0.00    +0.029 A 
ATOM     10  C   UNL     1       3.657  -4.069  -4.254  0.00  0.00    +0.015 A 
BRANCH   8  11
ATOM     11  S   UNL     1       3.012  -1.824  -7.522  0.00  0.00    +0.058 S 
ATOM     12  O   UNL     1       2.161  -2.827  -8.059  0.00  0.00    -0.153 OA
ATOM     13  O   UNL     1       2.627  -0.459  -7.445  0.00  0.00    -0.153 OA
BRANCH  11  14
ATOM     14  N   UNL     1       4.414  -1.872  -8.402  0.00  0.00    -0.187 NA
ATOM     15  H   UNL     1       4.790  -1.052  -8.760  0.00  0.00    +0.148 HD
BRANCH  14  16
ATOM     16  C   UNL     1       5.086  -3.151  -8.641  0.00  0.00    +0.137 C 
BRANCH  16  17
ATOM     17  C   UNL     1       6.115  -2.986  -9.762  0.00  0.00    +0.134 C 
ATOM     18  C   UNL     1       6.742  -4.355 -10.103  0.00  0.00    +0.035 C 
ATOM     19  C   UNL     1       8.230  -3.983 -10.347  0.00  0.00    +0.031 C 
ATOM     20  C   UNL     1       8.418  -2.835  -9.324  0.00  0.00    +0.160 C 
ATOM     21  O   UNL     1       7.170  -2.120  -9.328  0.00  0.00    -0.375 OA
ENDBRANCH  16  17
ENDBRANCH  14  16
ENDBRANCH  11  14
ENDBRANCH   8  11
ENDBRANCH   2   5
BRANCH   1  22
ATOM     22  C   UNL     1       5.066  -3.046   0.356  0.00  0.00    +0.089 C 
BRANCH  22  28
ATOM     23  N   UNL     1       6.363  -0.983   0.584  0.00  0.00    +0.385 N 
ATOM     24  C   UNL     1       6.677   0.166   1.443  0.00  0.00    -0.078 C 
ATOM     25  C   UNL     1       5.438   1.050   1.593  0.00  0.00    -0.019 C 
ATOM     26  C   UNL     1       4.308   0.232   2.225  0.00  0.00    -0.003 C 
ATOM     27  C   UNL     1       4.038  -1.002   1.360  0.00  0.00    -0.014 C 
ATOM     28  C   UNL     1       5.330  -1.811   1.219  0.00  0.00    -0.051 C 
ATOM     29  H   UNL     1       6.026  -0.651  -0.307  0.00  0.00    -0.081 HD
BRANCH  23  30
ATOM     30  C   UNL     1       7.575  -1.786   0.380  0.00  0.00    -0.043 C 
BRANCH  30  34
ATOM     31  C   UNL     1      10.443   0.493  -1.817  0.00  0.00    +0.000 A 
ATOM     32  C   UNL     1      10.430   0.546  -0.435  0.00  0.00    +0.000 A 
ATOM     33  C   UNL     1       9.502  -0.192   0.276  0.00  0.00    +0.002 A 
ATOM     34  C   UNL     1       8.587  -0.981  -0.395  0.00  0.00    -0.064 A 
ATOM     35  C   UNL     1       8.599  -1.033  -1.776  0.00  0.00    +0.002 A 
ATOM     36  C   UNL     1       9.528  -0.297  -2.487  0.00  0.00    +0.000 A 
ENDBRANCH  30  34
ENDBRANCH  23  30
ENDBRANCH  22  28
ENDBRANCH   1  22
TORSDOF 9
