REMARK  Name = ZINC59170481
REMARK  9 active torsions:
REMARK  status: ('A' for Active; 'I' for Inactive)
REMARK    1  A    between atoms: C_1  and  C_2
REMARK    2  A    between atoms: C_5  and  S_8
REMARK    3  A    between atoms: S_8  and  N_11
REMARK    4  A    between atoms: N_11  and  N_12
REMARK    5  A    between atoms: C_14  and  C_24
REMARK    6  A    between atoms: C_18  and  C_23
REMARK    7  A    between atoms: N_26  and  C_27
REMARK    8  A    between atoms: C_30  and  C_34
REMARK    9  A    between atoms: C_31  and  C_33
REMARK                            x       y       z     vdW  Elec       q    Type
REMARK                         _______ _______ _______ _____ _____    ______ ____
ROOT
ATOM      1  N   UNL     1       3.286  -3.493  -0.222  0.00  0.00    -0.260 N 
ATOM      2  C   UNL     1       4.394  -4.150  -0.030  0.00  0.00    +0.225 A 
ATOM      3  C   UNL     1       5.069  -4.140   1.289  0.00  0.00    +0.099 A 
ATOM      4  C   UNL     1       5.854  -5.224   1.601  0.00  0.00    +0.030 A 
ATOM      5  C   UNL     1       5.959  -6.298   0.606  0.00  0.00    +0.018 A 
ATOM      6  C   UNL     1       6.510  -7.537   0.948  0.00  0.00    +0.015 A 
ATOM      7  C   UNL     1       6.595  -8.530  -0.004  0.00  0.00    -0.050 A 
ATOM      8  C   UNL     1       6.137  -8.307  -1.293  0.00  0.00    +0.007 A 
ATOM      9  C   UNL     1       5.591  -7.087  -1.644  0.00  0.00    +0.047 A 
ATOM     10  C   UNL     1       5.499  -6.074  -0.704  0.00  0.00    +0.137 A 
ATOM     11  O   UNL     1       4.968  -4.873  -1.035  0.00  0.00    -0.437 OA
ATOM     12  C   UNL     1       7.188  -9.867   0.360  0.00  0.00    +0.044 C 
ATOM     13  H   UNL     1       2.848  -3.051   0.522  0.00  0.00    +0.189 HD
ENDROOT
BRANCH   3  14
ATOM     14  C   UNL     1       4.905  -3.016   2.226  0.00  0.00    +0.253 C 
ATOM     15  O   UNL     1       4.143  -2.107   1.958  0.00  0.00    -0.270 OA
ATOM     16  N   UNL     1       5.600  -2.995   3.381  0.00  0.00    -0.281 N 
ATOM     17  H   UNL     1       6.276  -3.670   3.553  0.00  0.00    +0.155 HD
BRANCH  16  18
ATOM     18  C   UNL     1       5.348  -2.000   4.330  0.00  0.00    +0.034 A 
ATOM     19  C   UNL     1       4.065  -1.487   4.478  0.00  0.00    +0.023 A 
ATOM     20  C   UNL     1       3.820  -0.505   5.416  0.00  0.00    +0.005 A 
ATOM     21  C   UNL     1       4.849  -0.030   6.209  0.00  0.00    -0.047 A 
ATOM     22  C   UNL     1       6.127  -0.538   6.064  0.00  0.00    -0.046 A 
ATOM     23  C   UNL     1       6.378  -1.525   5.132  0.00  0.00    +0.027 A 
ATOM     24  C   UNL     1       7.246  -0.018   6.929  0.00  0.00    +0.044 C 
ATOM     25  C   UNL     1       4.577   1.042   7.232  0.00  0.00    +0.044 C 
ENDBRANCH  16  18
ENDBRANCH   3  14
BRANCH   1  26
ATOM     26  N   UNL     1       2.726  -3.424  -1.505  0.00  0.00    -0.157 N 
ATOM     27  H   UNL     1       3.122  -3.925  -2.234  0.00  0.00    +0.194 HD
BRANCH  26  28
ATOM     28  S   UNL     1       1.387  -2.488  -1.775  0.00  0.00    +0.085 S 
ATOM     29  O   UNL     1       0.368  -2.978  -0.914  0.00  0.00    -0.149 OA
ATOM     30  O   UNL     1       1.223  -2.411  -3.184  0.00  0.00    -0.149 OA
BRANCH  28  35
ATOM     31  C   UNL     1       2.698   3.091   0.114  0.00  0.00    +0.044 C 
ATOM     32  C   UNL     1       2.371   1.697  -0.358  0.00  0.00    -0.050 A 
ATOM     33  C   UNL     1       2.730   1.297  -1.631  0.00  0.00    +0.005 A 
ATOM     34  C   UNL     1       2.430   0.018  -2.064  0.00  0.00    +0.029 A 
ATOM     35  C   UNL     1       1.771  -0.859  -1.223  0.00  0.00    +0.110 A 
ATOM     36  C   UNL     1       1.413  -0.458   0.051  0.00  0.00    +0.029 A 
ATOM     37  C   UNL     1       1.717   0.818   0.485  0.00  0.00    +0.005 A 
ENDBRANCH  28  35
ENDBRANCH  26  28
ENDBRANCH   1  26
TORSDOF 5
