REMARK  Name = ZINC39636377
REMARK  7 active torsions:
REMARK  status: ('A' for Active; 'I' for Inactive)
REMARK    1  A    between atoms: C_1  and  O_2
REMARK    2  A    between atoms: O_2  and  C_3
REMARK    3  A    between atoms: C_8  and  C_9
REMARK    4  A    between atoms: C_9  and  C_10
REMARK    5  A    between atoms: C_10  and  N_11
REMARK    6  A    between atoms: C_12  and  C_14
REMARK    7  A    between atoms: C_25  and  C_27
REMARK                            x       y       z     vdW  Elec       q    Type
REMARK                         _______ _______ _______ _____ _____    ______ ____
ROOT
ATOM      1  C   UNL     1       3.676  -4.871   2.543  0.00  0.00    +0.100 C 
ATOM      2  C   UNL     1       3.387  -6.327   2.113  0.00  0.00    +0.121 C 
ATOM      3  N   UNL     1       4.294  -7.151   2.946  0.00  0.00    -0.297 N 
ATOM      4  C   UNL     1       4.269  -6.496   4.276  0.00  0.00    +0.115 C 
ATOM      5  C   UNL     1       4.255  -4.986   3.963  0.00  0.00    -0.004 C 
ATOM      6  C   UNL     1       5.673  -4.425   4.003  0.00  0.00    -0.010 C 
ATOM      7  C   UNL     1       6.206  -4.499   5.436  0.00  0.00    -0.082 C 
ATOM      8  N   UNL     1       5.328  -3.729   6.326  0.00  0.00    +0.379 N 
ATOM      9  C   UNL     1       3.990  -4.330   6.353  0.00  0.00    -0.082 C 
ATOM     10  C   UNL     1       3.363  -4.250   4.958  0.00  0.00    -0.010 C 
ATOM     11  C   UNL     1       4.985  -8.248   2.578  0.00  0.00    +0.260 C 
ATOM     12  O   UNL     1       5.692  -8.817   3.383  0.00  0.00    -0.271 OA
ATOM     13  H   UNL     1       5.714  -3.728   7.258  0.00  0.00    -0.086 HD
ATOM     14  H   UNL     1       5.262  -2.779   5.992  0.00  0.00    -0.086 HD
ENDROOT
BRANCH  11  15
ATOM     15  C   UNL     1       4.880  -8.767   1.167  0.00  0.00    +0.296 C 
ATOM     16  C   UNL     1       3.451  -9.261   0.903  0.00  0.00    +0.283 C 
ATOM     17  O   UNL     1       3.391  -9.758  -0.438  0.00  0.00    -0.484 OA
ATOM     18  C   UNL     1       4.400 -10.582  -0.831  0.00  0.00    +0.162 A 
ATOM     19  C   UNL     1       4.232 -11.377  -1.955  0.00  0.00    +0.049 A 
ATOM     20  C   UNL     1       5.249 -12.216  -2.369  0.00  0.00    +0.004 A 
ATOM     21  C   UNL     1       6.437 -12.266  -1.663  0.00  0.00    +0.004 A 
ATOM     22  C   UNL     1       6.611 -11.477  -0.541  0.00  0.00    +0.049 A 
ATOM     23  C   UNL     1       5.593 -10.634  -0.121  0.00  0.00    +0.163 A 
ATOM     24  O   UNL     1       5.777  -9.869   0.990  0.00  0.00    -0.473 OA
ENDBRANCH  11  15
BRANCH   1  26
ATOM     25  N   UNL     1       2.442  -2.738   2.333  0.00  0.00    -0.315 N 
ATOM     26  C   UNL     1       2.402  -4.066   2.559  0.00  0.00    +0.218 C 
ATOM     27  O   UNL     1       1.342  -4.613   2.774  0.00  0.00    -0.275 OA
ATOM     28  H   UNL     1       3.290  -2.300   2.161  0.00  0.00    +0.149 HD
BRANCH  25  29
ATOM     29  C   UNL     1       1.204  -1.955   2.349  0.00  0.00    +0.109 C 
BRANCH  29  30
ATOM     30  C   UNL     1       1.526  -0.486   2.067  0.00  0.00    +0.057 C 
BRANCH  30  36
ATOM     31  C   UNL     1      -0.251   0.798   3.283  0.00  0.00    +0.123 A 
ATOM     32  C   UNL     1      -1.421   1.544   3.294  0.00  0.00    +0.046 A 
ATOM     33  C   UNL     1      -2.085   1.803   2.111  0.00  0.00    +0.004 A 
ATOM     34  C   UNL     1      -1.584   1.320   0.916  0.00  0.00    +0.000 A 
ATOM     35  C   UNL     1      -0.418   0.576   0.902  0.00  0.00    +0.007 A 
ATOM     36  C   UNL     1       0.252   0.319   2.083  0.00  0.00    -0.004 A 
BRANCH  31  38
ATOM     37  C   UNL     1      -0.173   1.067   5.644  0.00  0.00    +0.277 C 
ATOM     38  O   UNL     1       0.403   0.542   4.446  0.00  0.00    -0.495 OA
ENDBRANCH  31  38
ENDBRANCH  30  36
ENDBRANCH  29  30
ENDBRANCH  25  29
ENDBRANCH   1  26
TORSDOF 6
