REMARK  Name = ZINC02532119
REMARK  8 active torsions:
REMARK  status: ('A' for Active; 'I' for Inactive)
REMARK    1  A    between atoms: C_3  and  C_17
REMARK    2  A    between atoms: C_5  and  O_7
REMARK    3  A    between atoms: O_7  and  C_8
REMARK    4  A    between atoms: C_8  and  C_10
REMARK    5  A    between atoms: N_18  and  N_19
REMARK    6  A    between atoms: C_20  and  C_22
REMARK    7  A    between atoms: C_22  and  N_23
REMARK    8  A    between atoms: C_24  and  C_26
REMARK                            x       y       z     vdW  Elec       q    Type
REMARK                         _______ _______ _______ _____ _____    ______ ____
ROOT
ATOM      1  C   UNL     1       7.129   2.212   0.157  0.00  0.00    +0.138 C 
ATOM      2  N   UNL     1       5.895   2.614   0.177  0.00  0.00    -0.188 NA
ENDROOT
BRANCH   1   5
ATOM      3  C   UNL     1       8.962   5.475  -0.129  0.00  0.00    +0.004 A 
ATOM      4  C   UNL     1       7.935   4.559  -0.035  0.00  0.00    +0.010 A 
ATOM      5  C   UNL     1       8.223   3.194   0.050  0.00  0.00    -0.002 A 
ATOM      6  C   UNL     1       9.551   2.764   0.028  0.00  0.00    +0.055 A 
ATOM      7  C   UNL     1      10.573   3.693  -0.072  0.00  0.00    +0.133 A 
ATOM      8  C   UNL     1      10.277   5.047  -0.150  0.00  0.00    +0.046 A 
BRANCH   7   9
ATOM      9  O   UNL     1      11.868   3.279  -0.094  0.00  0.00    -0.422 OA
BRANCH   9  10
ATOM     10  C   UNL     1      12.278   2.610  -1.189  0.00  0.00    +0.344 C 
ATOM     11  O   UNL     1      11.535   2.494  -2.143  0.00  0.00    -0.245 OA
BRANCH  10  12
ATOM     12  C   UNL     1      13.630   2.019  -1.230  0.00  0.00    +0.059 A 
ATOM     13  C   UNL     1      14.489   2.157  -0.137  0.00  0.00    +0.016 A 
ATOM     14  C   UNL     1      15.749   1.598  -0.179  0.00  0.00    +0.021 A 
ATOM     15  C   UNL     1      16.167   0.911  -1.307  0.00  0.00    +0.041 A 
ATOM     16  C   UNL     1      15.323   0.777  -2.397  0.00  0.00    +0.021 A 
ATOM     17  C   UNL     1      14.059   1.326  -2.365  0.00  0.00    +0.016 A 
ATOM     18 CL   UNL     1      17.757   0.216  -1.355  0.00  0.00    -0.084 Cl
ENDBRANCH  10  12
ENDBRANCH   9  10
ENDBRANCH   7   9
ENDBRANCH   1   5
BRANCH   2  19
ATOM     19  N   UNL     1       4.855   1.681   0.278  0.00  0.00    -0.206 N 
ATOM     20  C   UNL     1       3.574   2.099   0.299  0.00  0.00    +0.249 C 
ATOM     21  O   UNL     1       3.321   3.283   0.230  0.00  0.00    -0.272 OA
ATOM     22  H   UNL     1       5.058   0.733   0.334  0.00  0.00    +0.177 HD
BRANCH  20  23
ATOM     23  C   UNL     1       2.456   1.094   0.408  0.00  0.00    +0.202 C 
BRANCH  23  24
ATOM     24  N   UNL     1       1.169   1.795   0.410  0.00  0.00    -0.303 N 
ATOM     25  C   UNL     1       0.021   1.095   0.500  0.00  0.00    +0.245 C 
ATOM     26  O   UNL     1       0.053  -0.118   0.580  0.00  0.00    -0.270 OA
ATOM     27  H   UNL     1       1.144   2.763   0.347  0.00  0.00    +0.150 HD
BRANCH  25  28
ATOM     28  C   UNL     1      -1.277   1.801   0.497  0.00  0.00    +0.038 A 
ATOM     29  C   UNL     1      -1.317   3.194   0.411  0.00  0.00    +0.014 A 
ATOM     30  C   UNL     1      -2.531   3.848   0.403  0.00  0.00    +0.022 A 
ATOM     31  C   UNL     1      -3.710   3.127   0.490  0.00  0.00    +0.059 A 
ATOM     32  C   UNL     1      -3.678   1.744   0.580  0.00  0.00    +0.060 A 
ATOM     33  C   UNL     1      -2.468   1.079   0.584  0.00  0.00    +0.034 A 
ATOM     34 CL   UNL     1      -5.160   0.848   0.688  0.00  0.00    -0.082 Cl
ATOM     35 CL   UNL     1      -5.234   3.957   0.486  0.00  0.00    -0.082 Cl
ENDBRANCH  25  28
ENDBRANCH  23  24
ENDBRANCH  20  23
ENDBRANCH   2  19
TORSDOF 8
