REMARK  Name = ZINC40008941
REMARK  13 active torsions:
REMARK  status: ('A' for Active; 'I' for Inactive)
REMARK    1  A    between atoms: C_1  and  C_2
REMARK    2  A    between atoms: C_2  and  N_3
REMARK    3  A    between atoms: N_3  and  C_4
REMARK    4  A    between atoms: N_3  and  C_6
REMARK    5  A    between atoms: C_4  and  C_5
REMARK    6  A    between atoms: C_6  and  C_7
REMARK    7  A    between atoms: C_7  and  C_8
REMARK    8  A    between atoms: C_8  and  N_9
REMARK    9  A    between atoms: C_10  and  C_27
REMARK   10  A    between atoms: C_17  and  C_26
REMARK   11  A    between atoms: C_18  and  C_25
REMARK   12  A    between atoms: C_31  and  O_33
REMARK   13  A    between atoms: O_33  and  C_34
REMARK                            x       y       z     vdW  Elec       q    Type
REMARK                         _______ _______ _______ _____ _____    ______ ____
ROOT
ATOM      1  N   UNL     1       2.820  -4.347   3.334  0.00  0.00    -0.284 N 
ATOM      2  C   UNL     1       4.271  -4.478   3.546  0.00  0.00    +0.145 C 
ATOM      3  C   UNL     1       4.434  -4.998   4.936  0.00  0.00    +0.072 A 
ATOM      4  C   UNL     1       5.635  -5.337   5.707  0.00  0.00    +0.199 A 
ATOM      5  O   UNL     1       6.763  -5.064   5.338  0.00  0.00    -0.287 OA
ATOM      6  C   UNL     1       5.344  -6.044   6.980  0.00  0.00    +0.065 A 
ATOM      7  C   UNL     1       6.378  -6.608   7.727  0.00  0.00    +0.019 A 
ATOM      8  C   UNL     1       6.094  -7.260   8.895  0.00  0.00    -0.047 A 
ATOM      9  C   UNL     1       4.782  -7.362   9.336  0.00  0.00    -0.044 A 
ATOM     10  C   UNL     1       3.749  -6.811   8.612  0.00  0.00    +0.050 A 
ATOM     11  C   UNL     1       4.014  -6.137   7.419  0.00  0.00    +0.140 A 
ATOM     12  O   UNL     1       2.985  -5.594   6.729  0.00  0.00    -0.450 OA
ATOM     13  C   UNL     1       3.187  -5.146   5.474  0.00  0.00    +0.199 A 
ATOM     14  C   UNL     1       2.196  -4.734   4.465  0.00  0.00    +0.283 C 
ATOM     15  O   UNL     1       0.992  -4.744   4.627  0.00  0.00    -0.267 OA
ATOM     16  C   UNL     1       4.485  -8.086  10.624  0.00  0.00    +0.044 C 
ATOM     17  C   UNL     1       7.209  -7.870   9.704  0.00  0.00    +0.044 C 
ENDROOT
BRANCH   2  18
ATOM     18  C   UNL     1       4.856  -5.450   2.554  0.00  0.00    -0.019 A 
ATOM     19  C   UNL     1       4.164  -6.602   2.225  0.00  0.00    +0.006 A 
ATOM     20  C   UNL     1       4.697  -7.495   1.315  0.00  0.00    +0.004 A 
ATOM     21  C   UNL     1       5.924  -7.240   0.732  0.00  0.00    +0.046 A 
ATOM     22  C   UNL     1       6.620  -6.086   1.060  0.00  0.00    +0.129 A 
ATOM     23  C   UNL     1       6.080  -5.188   1.970  0.00  0.00    +0.052 A 
BRANCH  22  24
ATOM     24  O   UNL     1       7.826  -5.833   0.489  0.00  0.00    -0.456 OA
BRANCH  24  25
ATOM     25  C   UNL     1       8.524  -4.751   0.924  0.00  0.00    +0.128 A 
ATOM     26  C   UNL     1       9.193  -4.799   2.139  0.00  0.00    +0.046 A 
ATOM     27  C   UNL     1       9.902  -3.698   2.579  0.00  0.00    +0.004 A 
ATOM     28  C   UNL     1       9.945  -2.549   1.811  0.00  0.00    +0.000 A 
ATOM     29  C   UNL     1       9.279  -2.499   0.600  0.00  0.00    +0.004 A 
ATOM     30  C   UNL     1       8.574  -3.600   0.152  0.00  0.00    +0.046 A 
ENDBRANCH  24  25
ENDBRANCH  22  24
ENDBRANCH   2  18
BRANCH   1  31
ATOM     31  C   UNL     1       2.169  -3.873   2.110  0.00  0.00    +0.107 C 
BRANCH  31  32
ATOM     32  C   UNL     1       1.998  -2.354   2.179  0.00  0.00    +0.000 C 
BRANCH  32  33
ATOM     33  C   UNL     1       1.318  -1.859   0.901  0.00  0.00    -0.077 C 
BRANCH  33  34
ATOM     34  N   UNL     1       1.033  -0.423   1.023  0.00  0.00    +0.379 N 
ATOM     35  H   UNL     1       0.491  -0.257   1.857  0.00  0.00    -0.082 HD
BRANCH  34  37
ATOM     36  C   UNL     1       2.002   1.802   1.356  0.00  0.00    -0.017 C 
ATOM     37  C   UNL     1       2.297   0.322   1.104  0.00  0.00    -0.082 C 
ENDBRANCH  34  37
BRANCH  34  38
ATOM     38  C   UNL     1       0.275   0.027  -0.152  0.00  0.00    -0.082 C 
ATOM     39  C   UNL     1      -1.105  -0.634  -0.152  0.00  0.00    -0.017 C 
ENDBRANCH  34  38
ENDBRANCH  33  34
ENDBRANCH  32  33
ENDBRANCH  31  32
ENDBRANCH   1  31
TORSDOF 9
