REMARK  Name = ZINC02089685
REMARK  11 active torsions:
REMARK  status: ('A' for Active; 'I' for Inactive)
REMARK    1  A    between atoms: C_1  and  C_2
REMARK    2  A    between atoms: C_2  and  C_3
REMARK    3  A    between atoms: C_3  and  C_4
REMARK    4  A    between atoms: C_3  and  C_5
REMARK    5  A    between atoms: C_3  and  C_6
REMARK    6  A    between atoms: C_13  and  N_18
REMARK    7  A    between atoms: C_14  and  C_15
REMARK    8  A    between atoms: C_19  and  C_21
REMARK    9  A    between atoms: C_23  and  N_31
REMARK   10  A    between atoms: C_24  and  C_30
REMARK   11  A    between atoms: C_25  and  N_27
REMARK                            x       y       z     vdW  Elec       q    Type
REMARK                         _______ _______ _______ _____ _____    ______ ____
ROOT
ATOM      1  C   UNL     1       2.582  -9.176   0.646  0.00  0.00    -0.000 C 
ATOM      2  C   UNL     1       3.708  -8.892  -0.353  0.00  0.00    +0.009 C 
ATOM      3  C   UNL     1       4.357  -7.544  -0.035  0.00  0.00    +0.037 C 
ATOM      4  C   UNL     1       3.267  -6.484   0.054  0.00  0.00    -0.023 A 
ATOM      5  C   UNL     1       1.973  -6.829   0.233  0.00  0.00    -0.004 A 
ATOM      6  S   UNL     1       1.095  -5.292   0.274  0.00  0.00    -0.077 S 
ATOM      7  C   UNL     1       2.426  -4.204   0.059  0.00  0.00    +0.085 A 
ATOM      8  C   UNL     1       3.517  -5.056  -0.046  0.00  0.00    +0.068 A 
ATOM      9  C   UNL     1       1.418  -8.214   0.366  0.00  0.00    +0.046 C 
ENDROOT
BRANCH   8  10
ATOM     10  C   UNL     1       4.873  -4.534  -0.247  0.00  0.00    +0.244 C 
ATOM     11  O   UNL     1       5.572  -4.272   0.714  0.00  0.00    -0.270 OA
ATOM     12  N   UNL     1       5.344  -4.346  -1.495  0.00  0.00    -0.325 N 
ATOM     13  H   UNL     1       4.787  -4.555  -2.261  0.00  0.00    +0.145 HD
ATOM     14  H   UNL     1       6.241  -4.001  -1.628  0.00  0.00    +0.145 HD
ENDBRANCH   8  10
BRANCH   7  15
ATOM     15  N   UNL     1       2.406  -2.820  -0.001  0.00  0.00    -0.275 N 
ATOM     16  C   UNL     1       1.238  -2.158   0.116  0.00  0.00    +0.249 C 
ATOM     17  O   UNL     1       0.203  -2.775   0.274  0.00  0.00    -0.270 OA
ATOM     18  H   UNL     1       3.232  -2.328  -0.127  0.00  0.00    +0.156 HD
BRANCH  16  19
ATOM     19  C   UNL     1       1.216  -0.681   0.053  0.00  0.00    +0.041 A 
ATOM     20  C   UNL     1       0.009   0.008   0.174  0.00  0.00    +0.046 A 
ATOM     21  C   UNL     1      -0.005   1.386   0.114  0.00  0.00    +0.132 A 
ATOM     22  C   UNL     1       1.176   2.085  -0.065  0.00  0.00    +0.010 A 
ATOM     23  C   UNL     1       2.377   1.408  -0.186  0.00  0.00    +0.132 A 
ATOM     24  C   UNL     1       2.404   0.030  -0.128  0.00  0.00    +0.046 A 
ATOM     25  C   UNL     1       1.154   3.591  -0.129  0.00  0.00    +0.048 C 
BRANCH  23  26
ATOM     26  N   UNL     1       3.635   2.164  -0.377  0.00  0.00    +0.057 N 
ATOM     27  O   UNL     1       4.672   1.571  -0.611  0.00  0.00    -0.126 OA
ATOM     28  O   UNL     1       3.632   3.380  -0.302  0.00  0.00    -0.126 OA
ENDBRANCH  23  26
BRANCH  21  29
ATOM     29  N   UNL     1      -1.285   2.118   0.236  0.00  0.00    +0.057 N 
ATOM     30  O   UNL     1      -2.337   1.505   0.263  0.00  0.00    -0.126 OA
ATOM     31  O   UNL     1      -1.287   3.334   0.310  0.00  0.00    -0.126 OA
ENDBRANCH  21  29
ENDBRANCH  16  19
ENDBRANCH   7  15
BRANCH   1  32
ATOM     32  C   UNL     1       2.103 -10.620   0.482  0.00  0.00    -0.032 C 
ATOM     33  C   UNL     1       1.584 -10.828  -0.942  0.00  0.00    +0.011 C 
ATOM     34  C   UNL     1       3.269 -11.576   0.745  0.00  0.00    +0.011 C 
BRANCH  32  36
ATOM     35  C   UNL     1       0.501 -12.345   1.318  0.00  0.00    +0.004 C 
ATOM     36  C   UNL     1       0.979 -10.901   1.481  0.00  0.00    +0.003 C 
ENDBRANCH  32  36
ENDBRANCH   1  32
TORSDOF 7
