REMARK  Name = ZINC37725303
REMARK  12 active torsions:
REMARK  status: ('A' for Active; 'I' for Inactive)
REMARK    1  A    between atoms: C_1  and  C_2
REMARK    2  A    between atoms: C_2  and  C_4
REMARK    3  A    between atoms: C_2  and  N_23
REMARK    4  A    between atoms: C_4  and  C_5
REMARK    5  A    between atoms: C_10  and  O_11
REMARK    6  A    between atoms: O_11  and  C_12
REMARK    7  A    between atoms: C_12  and  C_14
REMARK    8  A    between atoms: C_12  and  C_15
REMARK    9  A    between atoms: N_17  and  C_18
REMARK   10  A    between atoms: C_18  and  C_19
REMARK   11  A    between atoms: C_19  and  C_20
REMARK   12  A    between atoms: C_19  and  C_21
REMARK                            x       y       z     vdW  Elec       q    Type
REMARK                         _______ _______ _______ _____ _____    ______ ____
ROOT
ATOM      1  C   UNL     1       0.761  -2.030   0.989  0.00  0.00    -0.006 A 
ATOM      2  C   UNL     1      -0.276  -2.832   1.425  0.00  0.00    +0.022 A 
ATOM      3  C   UNL     1      -0.257  -4.191   1.165  0.00  0.00    +0.018 A 
ATOM      4  C   UNL     1       0.800  -4.749   0.468  0.00  0.00    +0.019 A 
ATOM      5  C   UNL     1       1.839  -3.950   0.030  0.00  0.00    +0.047 A 
ATOM      6  C   UNL     1       1.819  -2.586   0.285  0.00  0.00    +0.125 A 
ATOM      7 BR   UNL     1      -1.677  -5.287   1.764  0.00  0.00    -0.050 Br
ENDROOT
BRANCH   1   8
ATOM      8  C   UNL     1       0.739  -0.550   1.272  0.00  0.00    +0.022 C 
BRANCH   8  10
ATOM      9  C   UNL     1       0.232   1.699   0.309  0.00  0.00    -0.014 C 
ATOM     10  C   UNL     1       0.140   0.190   0.074  0.00  0.00    -0.074 C 
BRANCH  10  11
ATOM     11  N   UNL     1      -1.269  -0.196  -0.085  0.00  0.00    +0.380 N 
ATOM     12  H   UNL     1      -1.664   0.292  -0.874  0.00  0.00    -0.090 HD
ATOM     13  H   UNL     1      -1.329  -1.191  -0.239  0.00  0.00    -0.090 HD
ATOM     14  H   UNL     1      -1.780   0.047   0.751  0.00  0.00    -0.090 HD
ENDBRANCH  10  11
ENDBRANCH   8  10
ENDBRANCH   1   8
BRANCH   6  15
ATOM     15  O   UNL     1       2.837  -1.798  -0.149  0.00  0.00    -0.480 OA
BRANCH  15  16
ATOM     16  C   UNL     1       3.952  -2.454  -0.757  0.00  0.00    +0.255 C 
ATOM     17  C   UNL     1       3.658  -2.691  -2.239  0.00  0.00    +0.062 C 
BRANCH  16  18
ATOM     18  C   UNL     1       5.179  -1.589  -0.619  0.00  0.00    +0.254 C 
ATOM     19  O   UNL     1       5.106  -0.517  -0.057  0.00  0.00    -0.272 OA
ATOM     20  N   UNL     1       6.357  -2.008  -1.122  0.00  0.00    -0.312 N 
ATOM     21  H   UNL     1       6.416  -2.865  -1.571  0.00  0.00    +0.149 HD
BRANCH  20  22
ATOM     22  C   UNL     1       7.550  -1.168  -0.988  0.00  0.00    +0.107 C 
BRANCH  22  23
ATOM     23  C   UNL     1       8.744  -1.870  -1.639  0.00  0.00    -0.000 C 
ATOM     24  C   UNL     1       8.503  -1.996  -3.144  0.00  0.00    +0.009 C 
ATOM     25  C   UNL     1      10.013  -1.053  -1.391  0.00  0.00    +0.009 C 
ENDBRANCH  22  23
ENDBRANCH  20  22
ENDBRANCH  16  18
ENDBRANCH  15  16
ENDBRANCH   6  15
TORSDOF 8
