REMARK  Name = ZINC59109895
REMARK  7 active torsions:
REMARK  status: ('A' for Active; 'I' for Inactive)
REMARK    1  A    between atoms: C_4  and  N_7
REMARK    2  A    between atoms: N_8  and  C_9
REMARK    3  A    between atoms: C_12  and  N_15
REMARK    4  A    between atoms: N_15  and  C_16
REMARK    5  A    between atoms: C_16  and  N_18
REMARK    6  A    between atoms: N_18  and  N_19
REMARK    7  A    between atoms: N_19  and  C_20
REMARK                            x       y       z     vdW  Elec       q    Type
REMARK                         _______ _______ _______ _____ _____    ______ ____
ROOT
ATOM      1  N   UNL     1       8.457  -4.608  -0.080  0.00  0.00    -0.296 N 
ATOM      2  H   UNL     1       8.607  -5.322  -0.719  0.00  0.00    +0.154 HD
ENDROOT
BRANCH   1   6
ATOM      3  C   UNL     1       4.816  -2.582  -0.037  0.00  0.00    +0.086 A 
ATOM      4  C   UNL     1       6.014  -1.874   0.104  0.00  0.00    +0.031 A 
ATOM      5  C   UNL     1       7.215  -2.547   0.090  0.00  0.00    +0.025 A 
ATOM      6  C   UNL     1       7.237  -3.930  -0.065  0.00  0.00    +0.033 A 
ATOM      7  C   UNL     1       6.048  -4.638  -0.207  0.00  0.00    +0.025 A 
ATOM      8  C   UNL     1       4.843  -3.973  -0.188  0.00  0.00    +0.031 A 
BRANCH   3  10
ATOM      9  N   UNL     1       3.600  -0.636   0.114  0.00  0.00    -0.149 NA
ATOM     10  N   UNL     1       3.623  -1.919  -0.024  0.00  0.00    -0.149 NA
BRANCH   9  14
ATOM     11  C   UNL     1      -0.015   1.375   0.154  0.00  0.00    +0.000 A 
ATOM     12  C   UNL     1       1.168   2.081   0.290  0.00  0.00    +0.002 A 
ATOM     13  C   UNL     1       2.377   1.417   0.278  0.00  0.00    +0.029 A 
ATOM     14  C   UNL     1       2.405   0.028   0.128  0.00  0.00    +0.086 A 
ATOM     15  C   UNL     1       1.207  -0.678  -0.009  0.00  0.00    +0.029 A 
ATOM     16  C   UNL     1       0.006  -0.001   0.006  0.00  0.00    +0.002 A 
ENDBRANCH   9  14
ENDBRANCH   3  10
ENDBRANCH   1   6
BRANCH   1  17
ATOM     17  C   UNL     1       9.426  -4.271   0.793  0.00  0.00    +0.151 C 
ATOM     18  S   UNL     1       9.113  -3.112   2.014  0.00  0.00    -0.017 S 
BRANCH  17  19
ATOM     19  N   UNL     1      10.642  -4.846   0.706  0.00  0.00    -0.248 N 
ATOM     20  H   UNL     1      11.339  -4.604   1.335  0.00  0.00    +0.172 HD
BRANCH  19  21
ATOM     21  N   UNL     1      10.898  -5.795  -0.292  0.00  0.00    -0.262 N 
ATOM     22  H   UNL     1      10.228  -5.979  -0.970  0.00  0.00    +0.170 HD
BRANCH  21  23
ATOM     23  C   UNL     1      12.119  -6.476  -0.313  0.00  0.00    +0.081 A 
ATOM     24  C   UNL     1      12.717  -6.797  -1.526  0.00  0.00    +0.066 A 
ATOM     25  C   UNL     1      13.924  -7.470  -1.543  0.00  0.00    +0.042 A 
ATOM     26  C   UNL     1      14.537  -7.826  -0.354  0.00  0.00    +0.044 A 
ATOM     27  C   UNL     1      13.944  -7.508   0.855  0.00  0.00    +0.042 A 
ATOM     28  C   UNL     1      12.740  -6.829   0.879  0.00  0.00    +0.066 A 
ATOM     29 CL   UNL     1      12.001  -6.423   2.397  0.00  0.00    -0.081 Cl
ATOM     30 CL   UNL     1      16.052  -8.672  -0.380  0.00  0.00    -0.083 Cl
ATOM     31 CL   UNL     1      11.949  -6.353  -3.018  0.00  0.00    -0.081 Cl
ENDBRANCH  21  23
ENDBRANCH  19  21
ENDBRANCH  17  19
ENDBRANCH   1  17
TORSDOF 7
