REMARK  Name = ZINC06219671
REMARK  3 active torsions:
REMARK  status: ('A' for Active; 'I' for Inactive)
REMARK    1  A    between atoms: C_2  and  N_9
REMARK    2  A    between atoms: N_9  and  C_10
REMARK    3  A    between atoms: C_10  and  C_11
REMARK                            x       y       z     vdW  Elec       q    Type
REMARK                         _______ _______ _______ _____ _____    ______ ____
ROOT
ATOM      1  C   UNL     1      -1.295   2.108   0.020  0.00  0.00    +0.155 C 
ENDROOT
BRANCH   1   2
ATOM      2  C   UNL     1      -1.040   3.593   0.026  0.00  0.00    +0.043 A 
ATOM      3  C   UNL     1      -1.411   4.350  -1.028  0.00  0.00    +0.093 A 
ATOM      4  C   UNL     1      -1.166   5.744  -0.996  0.00  0.00    +0.254 A 
ATOM      5  O   UNL     1      -1.497   6.448  -1.933  0.00  0.00    -0.268 OA
ATOM      6  N   UNL     1      -0.557   6.284   0.079  0.00  0.00    -0.275 N 
ATOM      7  H   UNL     1      -0.376   7.267   0.108  0.00  0.00    +0.173 HD
ATOM      8  C   UNL     1      -0.193   5.505   1.115  0.00  0.00    +0.327 A 
ATOM      9  O   UNL     1       0.355   6.006   2.078  0.00  0.00    -0.247 OA
ATOM     10  N   UNL     1      -0.426   4.180   1.099  0.00  0.00    -0.310 N 
ATOM     11  H   UNL     1      -0.148   3.619   1.879  0.00  0.00    +0.170 HD
ENDBRANCH   1   2
BRANCH   1  12
ATOM     12  N   UNL     1      -0.017   1.393   0.010  0.00  0.00    -0.338 N 
ATOM     13  H   UNL     1       0.817   1.889   0.004  0.00  0.00    +0.146 HD
BRANCH  12  15
ATOM     14  C   UNL     1       1.214  -0.683  -0.013  0.00  0.00    +0.043 A 
ATOM     15  C   UNL     1       0.002  -0.004   0.002  0.00  0.00    +0.030 A 
ATOM     16  C   UNL     1      -1.190  -0.716   0.015  0.00  0.00    +0.043 A 
ATOM     17  C   UNL     1      -1.169  -2.098   0.003  0.00  0.00    +0.044 A 
ATOM     18  C   UNL     1       0.040  -2.772  -0.013  0.00  0.00    +0.040 A 
ATOM     19  C   UNL     1       1.229  -2.066  -0.020  0.00  0.00    +0.044 A 
ATOM     20 CL   UNL     1       2.743  -2.915  -0.039  0.00  0.00    -0.083 Cl
ATOM     21 CL   UNL     1      -2.659  -2.989   0.013  0.00  0.00    -0.083 Cl
ENDBRANCH  12  15
ENDBRANCH   1  12
TORSDOF 3
