REMARK  Name = ZINC59982471
REMARK  15 active torsions:
REMARK  status: ('A' for Active; 'I' for Inactive)
REMARK    1  A    between atoms: C_1  and  C_2
REMARK    2  A    between atoms: C_5  and  S_25
REMARK    3  A    between atoms: C_7  and  C_8
REMARK    4  A    between atoms: N_10  and  C_11
REMARK    5  A    between atoms: C_11  and  C_12
REMARK    6  A    between atoms: C_12  and  C_13
REMARK    7  A    between atoms: C_12  and  C_14
REMARK    8  A    between atoms: C_12  and  N_15
REMARK    9  A    between atoms: C_17  and  C_24
REMARK   10  A    between atoms: C_20  and  C_23
REMARK   11  A    between atoms: S_25  and  N_28
REMARK   12  A    between atoms: N_28  and  C_29
REMARK   13  A    between atoms: C_29  and  C_30
REMARK   14  A    between atoms: C_29  and  C_31
REMARK   15  A    between atoms: C_29  and  C_32
REMARK                            x       y       z     vdW  Elec       q    Type
REMARK                         _______ _______ _______ _____ _____    ______ ____
ROOT
ATOM      1  C   UNL     1       0.300  -3.137   1.123  0.00  0.00    +0.244 C 
ATOM      2  O   UNL     1      -0.593  -2.330   1.294  0.00  0.00    -0.270 OA
ATOM      3  N   UNL     1       0.350  -4.255   1.872  0.00  0.00    -0.313 N 
ATOM      4  H   UNL     1       1.027  -4.928   1.696  0.00  0.00    +0.149 HD
ENDROOT
BRANCH   1  11
ATOM      5  C   UNL     1       0.101  -0.799  -0.571  0.00  0.00    +0.044 C 
ATOM      6  C   UNL     1       1.245  -1.766  -0.731  0.00  0.00    -0.038 A 
ATOM      7  C   UNL     1       2.213  -1.540  -1.687  0.00  0.00    +0.006 A 
ATOM      8  C   UNL     1       3.264  -2.427  -1.836  0.00  0.00    +0.029 A 
ATOM      9  C   UNL     1       3.352  -3.547  -1.027  0.00  0.00    +0.106 A 
ATOM     10  C   UNL     1       2.391  -3.785  -0.067  0.00  0.00    +0.041 A 
ATOM     11  C   UNL     1       1.331  -2.891   0.091  0.00  0.00    +0.041 A 
BRANCH   9  12
ATOM     12  S   UNL     1       4.694  -4.671  -1.226  0.00  0.00    +0.059 S 
ATOM     13  O   UNL     1       4.348  -5.848  -0.508  0.00  0.00    -0.153 OA
ATOM     14  O   UNL     1       5.009  -4.688  -2.611  0.00  0.00    -0.153 OA
BRANCH  12  15
ATOM     15  N   UNL     1       6.002  -4.013  -0.452  0.00  0.00    -0.185 NA
ATOM     16  H   UNL     1       6.769  -3.713  -0.965  0.00  0.00    +0.149 HD
BRANCH  15  17
ATOM     17  C   UNL     1       6.002  -3.885   1.008  0.00  0.00    +0.032 C 
ATOM     18  C   UNL     1       5.967  -5.276   1.642  0.00  0.00    +0.029 C 
ATOM     19  C   UNL     1       7.267  -3.151   1.456  0.00  0.00    +0.029 C 
ATOM     20  C   UNL     1       4.769  -3.092   1.449  0.00  0.00    +0.029 C 
ENDBRANCH  15  17
ENDBRANCH  12  15
ENDBRANCH   9  12
ENDBRANCH   1  11
BRANCH   3  21
ATOM     21  C   UNL     1      -0.616  -4.456   2.955  0.00  0.00    +0.092 C 
BRANCH  21  22
ATOM     22  C   UNL     1      -0.266  -5.733   3.721  0.00  0.00    -0.055 C 
ATOM     23  C   UNL     1       1.159  -5.626   4.268  0.00  0.00    -0.008 C 
ATOM     24  C   UNL     1      -1.246  -5.916   4.882  0.00  0.00    -0.008 C 
BRANCH  22  25
ATOM     25  N   UNL     1      -0.358  -6.887   2.817  0.00  0.00    +0.384 N 
ATOM     26  C   UNL     1      -1.723  -6.983   2.285  0.00  0.00    -0.075 C 
ATOM     27  C   UNL     1      -1.804  -8.135   1.281  0.00  0.00    -0.031 C 
ATOM     28  C   UNL     1      -1.434  -9.444   1.983  0.00  0.00    +0.003 C 
ATOM     29  C   UNL     1      -0.038  -9.307   2.598  0.00  0.00    -0.031 C 
ATOM     30  C   UNL     1      -0.023  -8.112   3.553  0.00  0.00    -0.075 C 
ATOM     31  C   UNL     1       0.990  -9.086   1.486  0.00  0.00    +0.005 C 
ATOM     32  C   UNL     1      -3.227  -8.233   0.729  0.00  0.00    +0.005 C 
ATOM     33  H   UNL     1       0.290  -6.768   2.053  0.00  0.00    -0.081 HD
ENDBRANCH  22  25
ENDBRANCH  21  22
ENDBRANCH   3  21
TORSDOF 7
