REMARK  Name = ZINC67297255
REMARK  6 active torsions:
REMARK  status: ('A' for Active; 'I' for Inactive)
REMARK    1  A    between atoms: C_1  and  C_2
REMARK    2  A    between atoms: C_4  and  C_26
REMARK    3  A    between atoms: N_5  and  C_7
REMARK    4  A    between atoms: C_7  and  C_8
REMARK    5  A    between atoms: N_10  and  N_11
REMARK    6  A    between atoms: C_18  and  C_20
REMARK                            x       y       z     vdW  Elec       q    Type
REMARK                         _______ _______ _______ _____ _____    ______ ____
ROOT
ATOM      1  N   UNL     1       3.075  -5.110   2.818  0.00  0.00    -0.218 N 
ATOM      2  C   UNL     1       3.339  -6.179   3.595  0.00  0.00    +0.322 C 
ATOM      3  O   UNL     1       4.491  -6.492   3.827  0.00  0.00    -0.251 OA
ATOM      4  N   UNL     1       2.327  -6.902   4.114  0.00  0.00    -0.246 N 
ATOM      5  C   UNL     1       2.601  -8.006   4.915  0.00  0.00    +0.189 A 
ATOM      6  N   UNL     1       3.767  -8.496   5.285  0.00  0.00    -0.126 NA
ATOM      7  N   UNL     1       3.858  -9.517   6.024  0.00  0.00    -0.144 NA
ATOM      8  C   UNL     1       2.756 -10.109   6.439  0.00  0.00    +0.107 A 
ATOM      9  S   UNL     1       1.527  -9.060   5.675  0.00  0.00    -0.035 S 
ATOM     10  H   UNL     1       3.803  -4.590   2.444  0.00  0.00    +0.174 HD
ATOM     11  H   UNL     1       1.408  -6.653   3.928  0.00  0.00    +0.158 HD
ENDROOT
BRANCH   8  12
ATOM     12  C   UNL     1       2.582 -11.322   7.315  0.00  0.00    +0.047 C 
ATOM     13  C   UNL     1       3.226 -11.064   8.678  0.00  0.00    +0.010 C 
ATOM     14  C   UNL     1       3.049 -12.296   9.568  0.00  0.00    +0.001 C 
ATOM     15  C   UNL     1       3.719 -13.503   8.907  0.00  0.00    +0.000 C 
ATOM     16  C   UNL     1       3.075 -13.761   7.544  0.00  0.00    +0.001 C 
ATOM     17  C   UNL     1       3.252 -12.529   6.654  0.00  0.00    +0.010 C 
ENDBRANCH   8  12
BRANCH   1  20
ATOM     18  C   UNL     1       1.482  -3.682   1.773  0.00  0.00    +0.251 C 
ATOM     19  O   UNL     1       2.393  -3.031   1.306  0.00  0.00    -0.272 OA
ATOM     20  N   UNL     1       1.747  -4.751   2.550  0.00  0.00    -0.232 N 
ATOM     21  H   UNL     1       1.019  -5.271   2.923  0.00  0.00    +0.173 HD
BRANCH  18  22
ATOM     22  C   UNL     1       0.055  -3.295   1.485  0.00  0.00    +0.240 C 
BRANCH  22  27
ATOM     23  C   UNL     1      -0.018   1.503   0.010  0.00  0.00    +0.067 C 
ATOM     24  C   UNL     1       0.002  -0.004   0.002  0.00  0.00    +0.060 A 
ATOM     25  C   UNL     1       0.008  -0.818  -1.135  0.00  0.00    +0.047 A 
ATOM     26  C   UNL     1       0.028  -2.107  -0.725  0.00  0.00    +0.037 A 
ATOM     27  N   UNL     1       0.034  -2.109   0.625  0.00  0.00    -0.259 N 
ATOM     28  N   UNL     1       0.023  -0.777   1.058  0.00  0.00    -0.176 NA
ATOM     29  C   UNL     1       0.040  -3.323  -1.615  0.00  0.00    +0.065 C 
ENDBRANCH  22  27
ENDBRANCH  18  22
ENDBRANCH   1  20
TORSDOF 4
