REMARK  Name = ZINC03308897
REMARK  9 active torsions:
REMARK  status: ('A' for Active; 'I' for Inactive)
REMARK    1  A    between atoms: C_1  and  C_2
REMARK    2  A    between atoms: C_5  and  N_9
REMARK    3  A    between atoms: C_10  and  C_28
REMARK    4  A    between atoms: C_13  and  S_14
REMARK    5  A    between atoms: S_14  and  C_15
REMARK    6  A    between atoms: C_15  and  C_16
REMARK    7  A    between atoms: N_18  and  C_19
REMARK    8  A    between atoms: C_19  and  C_20
REMARK    9  A    between atoms: C_20  and  N_21
REMARK                            x       y       z     vdW  Elec       q    Type
REMARK                         _______ _______ _______ _____ _____    ______ ____
ROOT
ATOM      1  N   UNL     1       0.035  -4.174  -0.060  0.00  0.00    -0.270 N 
ATOM      2  C   UNL     1      -0.882  -5.022   0.521  0.00  0.00    +0.169 A 
ATOM      3  N   UNL     1      -0.454  -6.247   0.323  0.00  0.00    -0.128 NA
ATOM      4  N   UNL     1       0.652  -6.226  -0.332  0.00  0.00    -0.122 NA
ATOM      5  C   UNL     1       0.996  -4.985  -0.599  0.00  0.00    +0.197 A 
ENDROOT
BRANCH   1  10
ATOM      6  C   UNL     1      -0.150   1.497  -0.213  0.00  0.00    +0.045 C 
ATOM      7  C   UNL     1      -0.100  -0.008  -0.172  0.00  0.00    -0.032 A 
ATOM      8  C   UNL     1      -0.263  -0.736  -1.337  0.00  0.00    +0.007 A 
ATOM      9  C   UNL     1      -0.218  -2.116  -1.302  0.00  0.00    +0.026 A 
ATOM     10  C   UNL     1      -0.010  -2.773  -0.097  0.00  0.00    +0.052 A 
ATOM     11  C   UNL     1       0.153  -2.041   1.071  0.00  0.00    +0.046 A 
ATOM     12  C   UNL     1       0.113  -0.660   1.030  0.00  0.00    +0.046 A 
ATOM     13 CL   UNL     1       0.324   0.258   2.488  0.00  0.00    -0.083 Cl
ENDBRANCH   1  10
BRANCH   2  14
ATOM     14  C   UNL     1      -2.115  -4.627   1.234  0.00  0.00    +0.020 A 
ATOM     15  C   UNL     1      -2.648  -3.348   1.058  0.00  0.00    +0.013 A 
ATOM     16  C   UNL     1      -3.799  -2.986   1.726  0.00  0.00    +0.021 A 
ATOM     17  C   UNL     1      -4.426  -3.887   2.570  0.00  0.00    +0.041 A 
ATOM     18  C   UNL     1      -3.903  -5.156   2.749  0.00  0.00    +0.021 A 
ATOM     19  C   UNL     1      -2.756  -5.533   2.082  0.00  0.00    +0.013 A 
ATOM     20 CL   UNL     1      -5.874  -3.422   3.408  0.00  0.00    -0.084 Cl
ENDBRANCH   2  14
BRANCH   5  21
ATOM     21  S   UNL     1       2.430  -4.465  -1.481  0.00  0.00    -0.076 S 
BRANCH  21  22
ATOM     22  C   UNL     1       3.267  -6.016  -1.911  0.00  0.00    +0.173 C 
BRANCH  22  23
ATOM     23  C   UNL     1       4.527  -5.710  -2.680  0.00  0.00    +0.223 C 
ATOM     24  O   UNL     1       4.830  -4.559  -2.914  0.00  0.00    -0.275 OA
ATOM     25  N   UNL     1       5.316  -6.715  -3.107  0.00  0.00    -0.313 N 
ATOM     26  H   UNL     1       5.074  -7.635  -2.920  0.00  0.00    +0.149 HD
BRANCH  25  27
ATOM     27  C   UNL     1       6.541  -6.418  -3.854  0.00  0.00    +0.123 C 
BRANCH  27  28
ATOM     28  C   UNL     1       7.247  -7.726  -4.217  0.00  0.00    +0.136 C 
BRANCH  28  29
ATOM     29  N   UNL     1       8.472  -7.428  -4.964  0.00  0.00    -0.231 N 
ATOM     30  C   UNL     1       8.397  -7.342  -6.281  0.00  0.00    +0.233 C 
ATOM     31  O   UNL     1       7.356  -7.500  -6.883  0.00  0.00    -0.274 OA
ATOM     32  C   UNL     1       9.707  -7.030  -6.990  0.00  0.00    +0.175 C 
ATOM     33  S   UNL     1      10.832  -6.921  -5.537  0.00  0.00    -0.058 S 
ATOM     34  C   UNL     1       9.613  -7.252  -4.272  0.00  0.00    +0.281 C 
ATOM     35  O   UNL     1       9.777  -7.307  -3.069  0.00  0.00    -0.262 OA
ENDBRANCH  28  29
ENDBRANCH  27  28
ENDBRANCH  25  27
ENDBRANCH  22  23
ENDBRANCH  21  22
ENDBRANCH   5  21
TORSDOF 8
