REMARK  Name = ZINC24622005
REMARK  7 active torsions:
REMARK  status: ('A' for Active; 'I' for Inactive)
REMARK    1  A    between atoms: C_3  and  N_31
REMARK    2  A    between atoms: C_6  and  N_7
REMARK    3  A    between atoms: C_11  and  C_13
REMARK    4  A    between atoms: C_13  and  N_14
REMARK    5  A    between atoms: N_17  and  C_20
REMARK    6  A    between atoms: C_20  and  C_21
REMARK    7  A    between atoms: N_23  and  C_24
REMARK                            x       y       z     vdW  Elec       q    Type
REMARK                         _______ _______ _______ _____ _____    ______ ____
ROOT
ATOM      1  N   UNL     1       5.833   2.015  -0.504  0.00  0.00    -0.298 NA
ATOM      2  C   UNL     1       5.998   2.817  -1.725  0.00  0.00    +0.066 C 
ATOM      3  C   UNL     1       7.083   3.872  -1.496  0.00  0.00    -0.063 C 
ATOM      4  N   UNL     1       8.341   3.206  -1.132  0.00  0.00    +0.387 N 
ATOM      5  C   UNL     1       8.176   2.405   0.089  0.00  0.00    -0.063 C 
ATOM      6  C   UNL     1       7.092   1.349  -0.140  0.00  0.00    +0.066 C 
ATOM      7  H   UNL     1       8.615   2.525  -1.951  0.00  0.00    -0.081 HD
ENDROOT
BRANCH   1   8
ATOM      8  C   UNL     1       4.747   1.038  -0.659  0.00  0.00    +0.180 C 
BRANCH   8  13
ATOM      9  N   UNL     1      -0.029   1.020  -1.207  0.00  0.00    -0.269 N 
ATOM     10  C   UNL     1       1.114   1.717  -1.055  0.00  0.00    +0.310 C 
ATOM     11  O   UNL     1       1.085   2.932  -1.021  0.00  0.00    -0.252 OA
ATOM     12  N   UNL     1       2.289   1.068  -0.940  0.00  0.00    -0.239 N 
ATOM     13  C   UNL     1       3.433   1.765  -0.787  0.00  0.00    +0.234 C 
ATOM     14  O   UNL     1       3.404   2.976  -0.753  0.00  0.00    -0.274 OA
ATOM     15  H   UNL     1       0.004  -0.075  -1.310  0.00  0.00    +0.156 HD
ATOM     16  H   UNL     1       2.315  -0.032  -0.971  0.00  0.00    +0.159 HD
BRANCH   9  22
ATOM     17  C   UNL     1      -2.385   1.098  -0.678  0.00  0.00    +0.025 A 
ATOM     18  C   UNL     1      -3.595   1.763  -0.702  0.00  0.00    +0.034 A 
ATOM     19  C   UNL     1      -3.688   3.011  -1.289  0.00  0.00    +0.126 A 
ATOM     20  C   UNL     1      -2.569   3.600  -1.849  0.00  0.00    +0.034 A 
ATOM     21  C   UNL     1      -1.355   2.943  -1.824  0.00  0.00    +0.025 A 
ATOM     22  C   UNL     1      -1.258   1.689  -1.235  0.00  0.00    +0.035 A 
BRANCH  19  23
ATOM     23  N   UNL     1      -4.988   3.719  -1.318  0.00  0.00    +0.056 N 
ATOM     24  O   UNL     1      -5.071   4.819  -1.834  0.00  0.00    -0.126 OA
ATOM     25  O   UNL     1      -5.974   3.201  -0.825  0.00  0.00    -0.126 OA
ENDBRANCH  19  23
ENDBRANCH   9  22
ENDBRANCH   8  13
ENDBRANCH   1   8
BRANCH   4  26
ATOM     26  C   UNL     1       9.428   4.183  -0.977  0.00  0.00    +0.019 C 
BRANCH  26  27
ATOM     27  C   UNL     1      10.743   3.457  -0.859  0.00  0.00    +0.201 C 
ATOM     28  O   UNL     1      10.770   2.244  -0.880  0.00  0.00    -0.278 OA
ATOM     29  N   UNL     1      11.889   4.155  -0.731  0.00  0.00    -0.287 N 
ATOM     30  H   UNL     1      11.858   5.250  -0.637  0.00  0.00    +0.155 HD
BRANCH  29  31
ATOM     31  C   UNL     1      13.119   3.485  -0.718  0.00  0.00    +0.033 A 
ATOM     32  C   UNL     1      13.228   2.244  -0.106  0.00  0.00    +0.026 A 
ATOM     33  C   UNL     1      14.440   1.583  -0.099  0.00  0.00    +0.040 A 
ATOM     34  C   UNL     1      15.549   2.162  -0.692  0.00  0.00    +0.124 A 
ATOM     35  C   UNL     1      15.444   3.402  -1.298  0.00  0.00    +0.040 A 
ATOM     36  C   UNL     1      14.232   4.064  -1.312  0.00  0.00    +0.026 A 
ATOM     37  F   UNL     1      16.736   1.516  -0.680  0.00  0.00    -0.205 F 
ENDBRANCH  29  31
ENDBRANCH  26  27
ENDBRANCH   4  26
TORSDOF 7
