REMARK  Name = ZINC65477770
REMARK  10 active torsions:
REMARK  status: ('A' for Active; 'I' for Inactive)
REMARK    1  A    between atoms: C_1  and  C_2
REMARK    2  A    between atoms: N_5  and  C_8
REMARK    3  A    between atoms: C_8  and  C_9
REMARK    4  A    between atoms: C_8  and  C_10
REMARK    5  A    between atoms: C_10  and  N_11
REMARK    6  A    between atoms: N_14  and  C_15
REMARK    7  A    between atoms: C_15  and  C_16
REMARK    8  A    between atoms: C_16  and  C_17
REMARK    9  A    between atoms: C_20  and  S_23
REMARK   10  A    between atoms: S_23  and  N_26
REMARK                            x       y       z     vdW  Elec       q    Type
REMARK                         _______ _______ _______ _____ _____    ______ ____
ROOT
ATOM      1  N   UNL     1       1.955  -3.921   2.403  0.00  0.00    -0.301 N 
ATOM      2  C   UNL     1       2.600  -4.105   3.572  0.00  0.00    +0.300 C 
ATOM      3  O   UNL     1       3.702  -4.619   3.584  0.00  0.00    -0.253 OA
ATOM      4  N   UNL     1       2.024  -3.719   4.728  0.00  0.00    -0.299 N 
ATOM      5  H   UNL     1       1.076  -3.512   2.393  0.00  0.00    +0.150 HD
ATOM      6  H   UNL     1       1.145  -3.309   4.718  0.00  0.00    +0.150 HD
ENDROOT
BRANCH   1   7
ATOM      7  C   UNL     1       2.582  -4.341   1.147  0.00  0.00    +0.090 C 
BRANCH   7   8
ATOM      8  C   UNL     1       1.710  -3.900  -0.030  0.00  0.00    -0.054 C 
ATOM      9  C   UNL     1       2.420  -4.233  -1.344  0.00  0.00    -0.012 C 
BRANCH   8  14
ATOM     10  C   UNL     1       1.235   1.728  -0.822  0.00  0.00    +0.007 C 
ATOM     11  C   UNL     1       1.521   0.239  -1.027  0.00  0.00    -0.018 C 
ATOM     12  C   UNL     1       2.531  -0.238   0.020  0.00  0.00    -0.016 C 
ATOM     13  C   UNL     1       2.752  -1.744  -0.140  0.00  0.00    -0.078 C 
ATOM     14  N   UNL     1       1.479  -2.451   0.048  0.00  0.00    +0.382 N 
ATOM     15  C   UNL     1       0.528  -2.052  -0.997  0.00  0.00    -0.078 C 
ATOM     16  C   UNL     1       0.223  -0.558  -0.869  0.00  0.00    -0.016 C 
ATOM     17  H   UNL     1       1.099  -2.221   0.953  0.00  0.00    -0.081 HD
ENDBRANCH   8  14
ENDBRANCH   7   8
ENDBRANCH   1   7
BRANCH   4  18
ATOM     18  C   UNL     1       2.725  -3.918   5.998  0.00  0.00    +0.110 C 
BRANCH  18  19
ATOM     19  C   UNL     1       1.859  -3.397   7.146  0.00  0.00    +0.054 C 
BRANCH  19  20
ATOM     20  C   UNL     1       2.580  -3.602   8.454  0.00  0.00    -0.046 A 
ATOM     21  C   UNL     1       2.411  -4.778   9.160  0.00  0.00    +0.005 A 
ATOM     22  C   UNL     1       3.072  -4.966  10.359  0.00  0.00    +0.029 A 
ATOM     23  C   UNL     1       3.904  -3.978  10.851  0.00  0.00    +0.105 A 
ATOM     24  C   UNL     1       4.074  -2.802  10.145  0.00  0.00    +0.029 A 
ATOM     25  C   UNL     1       3.416  -2.616   8.944  0.00  0.00    +0.005 A 
BRANCH  23  26
ATOM     26  S   UNL     1       4.746  -4.217  12.380  0.00  0.00    +0.056 S 
ATOM     27  O   UNL     1       5.037  -2.923  12.891  0.00  0.00    -0.153 OA
ATOM     28  O   UNL     1       3.994  -5.174  13.113  0.00  0.00    -0.153 OA
BRANCH  26  29
ATOM     29  N   UNL     1       6.202  -4.926  12.032  0.00  0.00    -0.204 NA
ATOM     30  H   UNL     1       6.436  -5.125  11.112  0.00  0.00    +0.144 HD
ATOM     31  H   UNL     1       6.820  -5.141  12.747  0.00  0.00    +0.144 HD
ENDBRANCH  26  29
ENDBRANCH  23  26
ENDBRANCH  19  20
ENDBRANCH  18  19
ENDBRANCH   4  18
TORSDOF 8
