REMARK  Name = ZINC41586532
REMARK  11 active torsions:
REMARK  status: ('A' for Active; 'I' for Inactive)
REMARK    1  A    between atoms: C_1  and  C_2
REMARK    2  A    between atoms: C_2  and  O_3
REMARK    3  A    between atoms: O_3  and  C_4
REMARK    4  A    between atoms: C_4  and  C_6
REMARK    5  A    between atoms: N_11  and  C_13
REMARK    6  A    between atoms: C_13  and  C_14
REMARK    7  A    between atoms: C_15  and  O_37
REMARK    8  A    between atoms: C_22  and  C_23
REMARK    9  A    between atoms: N_25  and  C_34
REMARK   10  A    between atoms: C_29  and  O_32
REMARK   11  A    between atoms: O_32  and  C_33
REMARK                            x       y       z     vdW  Elec       q    Type
REMARK                         _______ _______ _______ _____ _____    ______ ____
ROOT
ATOM      1  C   UNL     1      -5.406  -6.592   0.218  0.00  0.00    +0.020 A 
ATOM      2  C   UNL     1      -5.947  -6.799   1.477  0.00  0.00    +0.122 A 
ATOM      3  C   UNL     1      -7.220  -7.346   1.619  0.00  0.00    +0.046 A 
ATOM      4  C   UNL     1      -7.950  -7.686   0.515  0.00  0.00    +0.019 A 
ATOM      5  C   UNL     1      -7.418  -7.483  -0.758  0.00  0.00    +0.068 A 
ATOM      6  C   UNL     1      -6.137  -6.927  -0.913  0.00  0.00    +0.144 A 
ATOM      7  O   UNL     1      -5.862  -6.829  -2.231  0.00  0.00    -0.451 OA
ATOM      8  C   UNL     1      -6.890  -7.285  -2.986  0.00  0.00    +0.176 C 
ATOM      9  C   UNL     1      -6.922  -7.321  -4.348  0.00  0.00    +0.060 C 
ATOM     10  C   UNL     1      -7.922  -7.732  -2.120  0.00  0.00    +0.231 C 
ATOM     11  O   UNL     1      -9.001  -8.206  -2.435  0.00  0.00    -0.283 OA
ENDROOT
BRANCH   9  12
ATOM     12  C   UNL     1      -5.778  -6.839  -5.119  0.00  0.00    +0.004 A 
ATOM     13  C   UNL     1      -4.600  -6.328  -4.619  0.00  0.00    +0.094 A 
ATOM     14  N   UNL     1      -3.782  -5.989  -5.645  0.00  0.00    -0.349 N 
ATOM     15  C   UNL     1      -4.387  -6.261  -6.857  0.00  0.00    +0.050 A 
ATOM     16  C   UNL     1      -5.652  -6.808  -6.589  0.00  0.00    +0.011 A 
ATOM     17  C   UNL     1      -6.487  -7.185  -7.637  0.00  0.00    +0.056 A 
ATOM     18  C   UNL     1      -6.062  -7.022  -8.943  0.00  0.00    +0.121 A 
ATOM     19  C   UNL     1      -4.807  -6.484  -9.208  0.00  0.00    +0.047 A 
ATOM     20  C   UNL     1      -3.977  -6.100  -8.177  0.00  0.00    +0.030 A 
ATOM     21  C   UNL     1      -2.444  -5.413  -5.490  0.00  0.00    +0.149 C 
BRANCH  18  22
ATOM     22  O   UNL     1      -6.874  -7.389  -9.970  0.00  0.00    -0.495 OA
ATOM     23  C   UNL     1      -6.372  -7.193 -11.294  0.00  0.00    +0.277 C 
ENDBRANCH  18  22
ENDBRANCH   9  12
BRANCH   2  24
ATOM     24  O   UNL     1      -5.231  -6.466   2.581  0.00  0.00    -0.506 OA
ATOM     25  H   UNL     1      -5.373  -5.559   2.884  0.00  0.00    +0.292 HD
ENDBRANCH   2  24
BRANCH   1  26
ATOM     26  C   UNL     1      -4.028  -6.000   0.078  0.00  0.00    -0.036 C 
BRANCH  26  31
ATOM     27  C   UNL     1      -2.881  -2.427   0.017  0.00  0.00    +0.081 C 
ATOM     28  C   UNL     1      -3.647  -1.960  -1.225  0.00  0.00    +0.011 C 
ATOM     29  C   UNL     1      -5.023  -2.632  -1.246  0.00  0.00    -0.018 C 
ATOM     30  C   UNL     1      -4.844  -4.151  -1.211  0.00  0.00    -0.078 C 
ATOM     31  N   UNL     1      -4.129  -4.535   0.011  0.00  0.00    +0.383 N 
ATOM     32  C   UNL     1      -2.781  -3.954   0.005  0.00  0.00    -0.064 C 
ATOM     33  H   UNL     1      -4.635  -4.198   0.816  0.00  0.00    -0.081 HD
BRANCH  27  34
ATOM     34  C   UNL     1      -1.496  -1.832   0.006  0.00  0.00    +0.308 C 
ATOM     35  O   UNL     1      -0.528  -2.555  -0.007  0.00  0.00    -0.251 OA
BRANCH  34  36
ATOM     36  O   UNL     1      -1.339  -0.499   0.012  0.00  0.00    -0.465 OA
BRANCH  36  38
ATOM     37  C   UNL     1      -0.019   1.526   0.010  0.00  0.00    +0.048 C 
ATOM     38  C   UNL     1       0.002  -0.004   0.002  0.00  0.00    +0.229 C 
ENDBRANCH  36  38
ENDBRANCH  34  36
ENDBRANCH  27  34
ENDBRANCH  26  31
ENDBRANCH   1  26
TORSDOF 8
