REMARK  Name = ZINC12151950
REMARK  8 active torsions:
REMARK  status: ('A' for Active; 'I' for Inactive)
REMARK    1  A    between atoms: C_1  and  C_2
REMARK    2  A    between atoms: C_2  and  C_4
REMARK    3  A    between atoms: C_7  and  C_9
REMARK    4  A    between atoms: C_16  and  C_19
REMARK    5  A    between atoms: C_19  and  N_20
REMARK    6  A    between atoms: C_21  and  C_23
REMARK    7  A    between atoms: C_23  and  C_25
REMARK    8  A    between atoms: C_23  and  N_61
REMARK                            x       y       z     vdW  Elec       q    Type
REMARK                         _______ _______ _______ _____ _____    ______ ____
ROOT
ATOM      1  C   UNL     1       0.506  -2.640   3.293  0.00  0.00    +0.149 C 
ENDROOT
BRANCH   1   9
ATOM      2  C   UNL     1       1.930  -3.876   7.798  0.00  0.00    +0.033 A 
ATOM      3  C   UNL     1       2.309  -5.056   8.438  0.00  0.00    +0.051 A 
ATOM      4  C   UNL     1       2.428  -6.228   7.718  0.00  0.00    +0.124 A 
ATOM      5  C   UNL     1       2.174  -6.231   6.354  0.00  0.00    +0.045 A 
ATOM      6  C   UNL     1       1.802  -5.069   5.714  0.00  0.00    +0.001 A 
ATOM      7  C   UNL     1       1.668  -3.880   6.416  0.00  0.00    +0.133 A 
ATOM      8  O   UNL     1       1.282  -2.864   5.599  0.00  0.00    -0.486 OA
ATOM      9  C   UNL     1       1.564  -3.220   4.235  0.00  0.00    +0.195 C 
ATOM     10  C   UNL     1       1.488  -4.765   4.258  0.00  0.00    +0.085 C 
ATOM     11  F   UNL     1       2.792  -7.371   8.341  0.00  0.00    -0.205 F 
BRANCH   2  15
ATOM     12  C   UNL     1       1.848  -0.145   9.636  0.00  0.00    +0.055 A 
ATOM     13  C   UNL     1       1.139  -1.146  10.297  0.00  0.00    +0.019 A 
ATOM     14  C   UNL     1       1.113  -2.396   9.753  0.00  0.00    +0.017 A 
ATOM     15  C   UNL     1       1.804  -2.625   8.570  0.00  0.00    +0.024 A 
ATOM     16  S   UNL     1       2.494  -1.016   8.218  0.00  0.00    -0.085 S 
BRANCH  12  18
ATOM     17  C   UNL     1       2.831   2.125   9.123  0.00  0.00    +0.092 C 
ATOM     18  C   UNL     1       2.013   1.208   9.995  0.00  0.00    +0.167 C 
ATOM     19  O   UNL     1       1.495   1.635  11.008  0.00  0.00    -0.292 OA
ENDBRANCH  12  18
ENDBRANCH   2  15
ENDBRANCH   1   9
BRANCH   1  20
ATOM     20  N   UNL     1       0.641  -1.182   3.247  0.00  0.00    -0.313 N 
ATOM     21  C   UNL     1      -0.191  -0.453   2.477  0.00  0.00    +0.204 C 
ATOM     22  O   UNL     1      -1.051  -1.003   1.823  0.00  0.00    -0.277 OA
ATOM     23  H   UNL     1       1.328  -0.741   3.771  0.00  0.00    +0.149 HD
BRANCH  21  24
ATOM     24  C   UNL     1      -0.053   1.047   2.430  0.00  0.00    +0.052 C 
BRANCH  24  30
ATOM     25  C   UNL     1      -0.013   1.086   0.008  0.00  0.00    -0.049 C 
ATOM     26  C   UNL     1      -0.755   1.594  -1.231  0.00  0.00    +0.141 C 
ATOM     27  O   UNL     1      -0.837   3.021  -1.180  0.00  0.00    -0.383 OA
ATOM     28  C   UNL     1      -1.504   3.518  -0.017  0.00  0.00    +0.141 C 
ATOM     29  C   UNL     1      -0.769   3.029   1.235  0.00  0.00    -0.049 C 
ATOM     30  N   UNL     1      -0.728   1.552   1.214  0.00  0.00    +0.393 N 
ATOM     31  H   UNL     1      -1.689   1.191   1.193  0.00  0.00    -0.080 HD
ENDBRANCH  24  30
BRANCH  24  32
ATOM     32  C   UNL     1      -0.709   1.651   3.645  0.00  0.00    -0.034 A 
ATOM     33  C   UNL     1       0.056   2.047   4.732  0.00  0.00    +0.005 A 
ATOM     34  C   UNL     1      -0.591   2.597   5.827  0.00  0.00    +0.020 A 
ATOM     35  C   UNL     1      -1.966   2.732   5.801  0.00  0.00    +0.111 A 
ATOM     36  N   UNL     1      -2.661   2.345   4.749  0.00  0.00    -0.263 NA
ATOM     37  C   UNL     1      -2.079   1.823   3.687  0.00  0.00    +0.113 A 
ENDBRANCH  24  32
ENDBRANCH  21  24
ENDBRANCH   1  20
TORSDOF 7
