REMARK  Name = ZINC43757918
REMARK  11 active torsions:
REMARK  status: ('A' for Active; 'I' for Inactive)
REMARK    1  A    between atoms: C_1  and  C_2
REMARK    2  A    between atoms: C_2  and  C_4
REMARK    3  A    between atoms: C_2  and  C_10
REMARK    4  A    between atoms: C_4  and  C_5
REMARK    5  A    between atoms: C_5  and  C_6
REMARK    6  A    between atoms: C_6  and  C_7
REMARK    7  A    between atoms: C_7  and  C_8
REMARK    8  A    between atoms: C_7  and  C_9
REMARK    9  A    between atoms: C_16  and  C_36
REMARK   10  A    between atoms: C_23  and  N_35
REMARK   11  A    between atoms: C_27  and  C_34
REMARK                            x       y       z     vdW  Elec       q    Type
REMARK                         _______ _______ _______ _____ _____    ______ ____
ROOT
ATOM      1  C   UNL     1       0.992  -0.138   1.163  0.00  0.00    -0.002 C 
ATOM      2  C   UNL     1       0.286   0.154   2.507  0.00  0.00    +0.004 C 
ATOM      3  C   UNL     1       0.893  -0.822   3.535  0.00  0.00    +0.004 C 
ATOM      4  C   UNL     1       1.927  -1.691   2.778  0.00  0.00    -0.003 C 
ATOM      5  C   UNL     1       1.451  -1.598   1.322  0.00  0.00    -0.026 C 
ATOM      6  C   UNL     1       2.495  -1.999   0.308  0.00  0.00    +0.007 C 
ATOM      7  C   UNL     1       3.771  -1.184   0.544  0.00  0.00    +0.005 C 
ATOM      8  C   UNL     1       4.309  -1.560   1.923  0.00  0.00    +0.001 C 
ATOM      9  C   UNL     1       3.327  -1.140   3.022  0.00  0.00    -0.014 C 
ATOM     10  C   UNL     1       3.882  -1.766   4.317  0.00  0.00    -0.048 C 
ATOM     11  C   UNL     1       5.279  -1.265   4.548  0.00  0.00    -0.043 C 
ATOM     12  C   UNL     1       6.069  -0.895   3.591  0.00  0.00    -0.067 C 
ATOM     13  C   UNL     1       5.680  -0.940   2.137  0.00  0.00    -0.008 C 
ATOM     14  C   UNL     1       5.782   0.466   1.557  0.00  0.00    +0.012 C 
ATOM     15  C   UNL     1       6.347   1.431   2.599  0.00  0.00    +0.020 C 
ATOM     16  C   UNL     1       7.667   0.937   3.181  0.00  0.00    +0.085 C 
ATOM     17  C   UNL     1       7.461  -0.389   3.921  0.00  0.00    +0.050 C 
ATOM     18 CL   UNL     1       8.873   0.717   1.859  0.00  0.00    -0.121 Cl
ATOM     19  C   UNL     1       6.702  -1.827   1.411  0.00  0.00    +0.016 C 
ATOM     20  C   UNL     1       0.233  -2.517   1.145  0.00  0.00    +0.012 C 
ENDROOT
BRANCH  10  21
ATOM     21  N   UNL     1       3.064  -1.432   5.482  0.00  0.00    +0.382 N 
ATOM     22  H   UNL     1       2.126  -1.775   5.344  0.00  0.00    -0.089 HD
ATOM     23  H   UNL     1       3.462  -1.859   6.305  0.00  0.00    -0.089 HD
ATOM     24  H   UNL     1       3.042  -0.430   5.601  0.00  0.00    -0.089 HD
ENDBRANCH  10  21
BRANCH   1  26
ATOM     25  C   UNL     1      -0.322   1.474  -0.224  0.00  0.00    +0.008 C 
ATOM     26  C   UNL     1       0.002  -0.004   0.002  0.00  0.00    -0.010 C 
BRANCH  26  27
ATOM     27  C   UNL     1       0.623  -0.590  -1.268  0.00  0.00    +0.003 C 
BRANCH  27  28
ATOM     28  C   UNL     1      -0.295  -0.312  -2.459  0.00  0.00    +0.001 C 
BRANCH  28  29
ATOM     29  C   UNL     1       0.325  -0.898  -3.729  0.00  0.00    +0.003 C 
BRANCH  29  30
ATOM     30  C   UNL     1      -0.593  -0.621  -4.921  0.00  0.00    -0.017 C 
ATOM     31  C   UNL     1       0.084  -1.096  -6.208  0.00  0.00    +0.007 C 
ATOM     32  C   UNL     1      -1.914  -1.370  -4.733  0.00  0.00    +0.007 C 
ENDBRANCH  29  30
ENDBRANCH  28  29
ENDBRANCH  27  28
ENDBRANCH  26  27
ENDBRANCH   1  26
TORSDOF 6
