REMARK  Name = ZINC04237040
REMARK  16 active torsions:
REMARK  status: ('A' for Active; 'I' for Inactive)
REMARK    1  A    between atoms: C_1  and  C_2
REMARK    2  A    between atoms: C_2  and  C_3
REMARK    3  A    between atoms: C_3  and  C_4
REMARK    4  A    between atoms: C_4  and  C_5
REMARK    5  A    between atoms: C_5  and  C_6
REMARK    6  A    between atoms: C_17  and  C_37
REMARK    7  A    between atoms: C_18  and  C_20
REMARK    8  A    between atoms: C_20  and  C_21
REMARK    9  A    between atoms: N_23  and  C_24
REMARK   10  A    between atoms: C_24  and  C_25
REMARK   11  A    between atoms: C_25  and  O_26
REMARK   12  A    between atoms: O_26  and  C_27
REMARK   13  A    between atoms: C_30  and  O_36
REMARK   14  A    between atoms: C_32  and  C_33
REMARK   15  A    between atoms: C_32  and  C_34
REMARK   16  A    between atoms: C_34  and  O_35
REMARK                            x       y       z     vdW  Elec       q    Type
REMARK                         _______ _______ _______ _____ _____    ______ ____
ROOT
ATOM      1  C   UNL     1       0.716   1.182   4.394  0.00  0.00    +0.219 C 
ATOM      2  O   UNL     1       1.735   0.526   4.348  0.00  0.00    -0.275 OA
ATOM      3  N   UNL     1       0.140   1.449   5.583  0.00  0.00    -0.265 N 
ATOM      4  C   UNL     1       0.713   0.972   6.756  0.00  0.00    +0.165 A 
ATOM      5  N   UNL     1       0.307   1.129   7.999  0.00  0.00    -0.229 NA
ATOM      6  C   UNL     1       0.964   0.604   9.031  0.00  0.00    +0.058 A 
ATOM      7  C   UNL     1       2.087  -0.097   8.728  0.00  0.00    +0.015 A 
ATOM      8  S   UNL     1       2.153   0.020   6.960  0.00  0.00    -0.057 S 
ATOM      9  C   UNL     1       3.011  -0.785   9.669  0.00  0.00    +0.049 C 
ATOM     10  C   UNL     1       2.722  -0.301  11.103  0.00  0.00    +0.011 C 
ATOM     11  C   UNL     1       1.210  -0.317  11.337  0.00  0.00    -0.019 C 
ATOM     12  C   UNL     1       0.530   0.760  10.481  0.00  0.00    +0.054 C 
ATOM     13  C   UNL     1       0.899  -0.001  12.804  0.00  0.00    +0.010 C 
ATOM     14  C   UNL     1       1.588  -0.983  13.729  0.00  0.00    +0.032 C 
ATOM     15  C   UNL     1       3.102  -0.890  13.515  0.00  0.00    +0.123 C 
ATOM     16  C   UNL     1       3.417  -1.266  12.069  0.00  0.00    +0.021 C 
ATOM     17  C   UNL     1       4.929  -1.202  11.847  0.00  0.00    +0.016 C 
ATOM     18  C   UNL     1       0.649  -1.692  10.971  0.00  0.00    +0.012 C 
ATOM     19  H   UNL     1      -0.675   1.974   5.620  0.00  0.00    +0.157 HD
ENDROOT
BRANCH  15  20
ATOM     20  O   UNL     1       3.767  -1.792  14.401  0.00  0.00    -0.391 OA
ATOM     21  H   UNL     1       3.610  -1.611  15.338  0.00  0.00    +0.210 HD
ENDBRANCH  15  20
BRANCH   1  22
ATOM     22  C   UNL     1       0.095   1.699   3.123  0.00  0.00    +0.096 C 
BRANCH  22  23
ATOM     23  C   UNL     1       0.940   1.259   1.926  0.00  0.00    +0.009 C 
BRANCH  23  24
ATOM     24  C   UNL     1       0.309   1.784   0.635  0.00  0.00    +0.000 C 
BRANCH  24  26
ATOM     25  C   UNL     1       0.524   1.869  -1.853  0.00  0.00    +0.004 C 
ATOM     26  C   UNL     1       1.155   1.343  -0.562  0.00  0.00    -0.003 C 
ENDBRANCH  24  26
ENDBRANCH  23  24
ENDBRANCH  22  23
ENDBRANCH   1  22
BRANCH  12  27
ATOM     27  C   UNL     1      -0.989   0.605  10.578  0.00  0.00    +0.106 C 
BRANCH  27  28
ATOM     28  C   UNL     1      -1.657   1.771   9.896  0.00  0.00    +0.214 C 
ATOM     29  O   UNL     1      -0.985   2.640   9.383  0.00  0.00    -0.276 OA
ATOM     30  N   UNL     1      -3.002   1.848   9.857  0.00  0.00    -0.313 N 
ATOM     31  H   UNL     1      -3.540   1.153  10.267  0.00  0.00    +0.149 HD
BRANCH  30  32
ATOM     32  C   UNL     1      -3.652   2.982   9.194  0.00  0.00    +0.132 C 
BRANCH  32  33
ATOM     33  C   UNL     1      -5.171   2.827   9.291  0.00  0.00    +0.178 C 
BRANCH  33  34
ATOM     34  O   UNL     1      -5.571   2.909  10.660  0.00  0.00    -0.381 OA
ATOM     35  C   UNL     1      -6.980   2.776  10.863  0.00  0.00    +0.194 C 
ENDBRANCH  33  34
ENDBRANCH  32  33
ENDBRANCH  30  32
ENDBRANCH  27  28
ENDBRANCH  12  27
BRANCH  16  36
ATOM     36  C   UNL     1       2.926  -2.691  11.802  0.00  0.00    +0.165 C 
BRANCH  36  37
ATOM     37  O   UNL     1       3.688  -3.611  12.585  0.00  0.00    -0.394 OA
ATOM     38  H   UNL     1       3.430  -4.536  12.466  0.00  0.00    +0.209 HD
ENDBRANCH  36  37
ENDBRANCH  16  36
TORSDOF 12
