REMARK  Name = ZINC60362727
REMARK  7 active torsions:
REMARK  status: ('A' for Active; 'I' for Inactive)
REMARK    1  A    between atoms: C_4  and  N_7
REMARK    2  A    between atoms: N_10  and  C_11
REMARK    3  A    between atoms: C_11  and  C_12
REMARK    4  A    between atoms: C_12  and  C_13
REMARK    5  A    between atoms: C_13  and  C_14
REMARK    6  A    between atoms: N_16  and  C_17
REMARK    7  A    between atoms: C_24  and  N_26
REMARK                            x       y       z     vdW  Elec       q    Type
REMARK                         _______ _______ _______ _____ _____    ______ ____
ROOT
ATOM      1  C   UNL     1       6.753  -5.335   6.158  0.00  0.00    +0.213 C 
ATOM      2  O   UNL     1       6.698  -4.500   7.036  0.00  0.00    -0.276 OA
ATOM      3  N   UNL     1       7.400  -6.497   6.373  0.00  0.00    -0.312 N 
ATOM      4  H   UNL     1       7.443  -7.165   5.670  0.00  0.00    +0.149 HD
ENDROOT
BRANCH   3   5
ATOM      5  C   UNL     1       8.037  -6.752   7.667  0.00  0.00    +0.082 C 
ATOM      6  C   UNL     1       9.436  -6.096   7.665  0.00  0.00    +0.186 C 
ATOM      7  S   UNL     1      10.413  -7.329   8.631  0.00  0.00    -0.031 S 
ATOM      8  O   UNL     1      11.735  -7.391   8.113  0.00  0.00    -0.174 OA
ATOM      9  O   UNL     1      10.209  -7.108  10.019  0.00  0.00    -0.174 OA
ATOM     10  C   UNL     1       9.480  -8.833   8.106  0.00  0.00    +0.152 C 
ATOM     11  C   UNL     1       8.065  -8.254   7.907  0.00  0.00    -0.025 C 
BRANCH  11  12
ATOM     12  N   UNL     1       7.268  -8.553   9.104  0.00  0.00    +0.384 N 
ATOM     13  C   UNL     1       7.196 -10.007   9.291  0.00  0.00    -0.078 C 
ATOM     14  C   UNL     1       6.436 -10.321  10.581  0.00  0.00    -0.019 C 
ATOM     15  C   UNL     1       5.019  -9.747  10.485  0.00  0.00    -0.004 C 
ATOM     16  C   UNL     1       5.106  -8.242  10.215  0.00  0.00    -0.019 C 
ATOM     17  C   UNL     1       5.916  -8.005   8.939  0.00  0.00    -0.078 C 
ATOM     18  H   UNL     1       7.704  -8.133   9.911  0.00  0.00    -0.081 HD
ENDBRANCH  11  12
ENDBRANCH   3   5
BRANCH   1  19
ATOM     19  C   UNL     1       6.097  -5.072   4.827  0.00  0.00    +0.097 C 
BRANCH  19  20
ATOM     20  C   UNL     1       5.438  -3.692   4.846  0.00  0.00    +0.028 C 
BRANCH  20  21
ATOM     21  C   UNL     1       4.772  -3.425   3.494  0.00  0.00    +0.106 C 
BRANCH  21  25
ATOM     22  N   UNL     1       2.909  -0.436   2.440  0.00  0.00    -0.297 N 
ATOM     23  C   UNL     1       3.489  -1.652   2.423  0.00  0.00    +0.300 C 
ATOM     24  O   UNL     1       3.426  -2.342   1.424  0.00  0.00    -0.253 OA
ATOM     25  N   UNL     1       4.141  -2.103   3.513  0.00  0.00    -0.299 N 
ATOM     26  H   UNL     1       2.959   0.115   3.237  0.00  0.00    +0.151 HD
ATOM     27  H   UNL     1       4.191  -1.553   4.310  0.00  0.00    +0.150 HD
BRANCH  22  31
ATOM     28  C   UNL     1       0.009   1.572   0.040  0.00  0.00    +0.000 C 
ATOM     29  C   UNL     1       1.446   2.097   0.029  0.00  0.00    +0.002 C 
ATOM     30  C   UNL     1       2.185   1.585   1.267  0.00  0.00    +0.022 C 
ATOM     31  C   UNL     1       2.201   0.055   1.255  0.00  0.00    +0.074 C 
ATOM     32  C   UNL     1       0.763  -0.470   1.266  0.00  0.00    +0.022 C 
ATOM     33  C   UNL     1       0.024   0.042   0.028  0.00  0.00    +0.002 C 
ENDBRANCH  22  31
ENDBRANCH  21  25
ENDBRANCH  20  21
ENDBRANCH  19  20
ENDBRANCH   1  19
TORSDOF 7
