REMARK  Name = ZINC64317321
REMARK  8 active torsions:
REMARK  status: ('A' for Active; 'I' for Inactive)
REMARK    1  A    between atoms: C_1  and  C_2
REMARK    2  A    between atoms: C_3  and  C_13
REMARK    3  A    between atoms: C_4  and  C_12
REMARK    4  A    between atoms: C_9  and  O_11
REMARK    5  A    between atoms: C_13  and  C_14
REMARK    6  A    between atoms: C_14  and  C_15
REMARK    7  A    between atoms: N_17  and  C_18
REMARK    8  A    between atoms: C_20  and  C_26
REMARK                            x       y       z     vdW  Elec       q    Type
REMARK                         _______ _______ _______ _____ _____    ______ ____
ROOT
ATOM      1  C   UNL     1      -4.309   0.953   1.487  0.00  0.00    +0.218 C 
ATOM      2  O   UNL     1      -4.973   1.047   0.476  0.00  0.00    -0.275 OA
ATOM      3  N   UNL     1      -4.748   1.505   2.635  0.00  0.00    -0.281 N 
ATOM      4  H   UNL     1      -4.255   1.369   3.459  0.00  0.00    +0.155 HD
ENDROOT
BRANCH   3   5
ATOM      5  C   UNL     1      -5.918   2.277   2.639  0.00  0.00    +0.099 A 
ATOM      6  C   UNL     1      -6.975   1.929   3.436  0.00  0.00    +0.042 A 
ATOM      7  C   UNL     1      -8.133   2.718   3.421  0.00  0.00    +0.073 A 
ATOM      8  C   UNL     1      -8.198   3.810   2.625  0.00  0.00    +0.098 A 
ATOM      9  N   UNL     1      -7.149   4.158   1.832  0.00  0.00    -0.327 N 
ATOM     10  H   UNL     1      -7.215   4.944   1.268  0.00  0.00    +0.168 HD
ATOM     11  C   UNL     1      -6.019   3.426   1.825  0.00  0.00    +0.270 A 
ATOM     12  O   UNL     1      -5.084   3.753   1.112  0.00  0.00    -0.266 OA
BRANCH   7  13
ATOM     13  C   UNL     1      -9.307   2.350   4.292  0.00  0.00    +0.419 C 
ATOM     14  F   UNL     1     -10.335   3.280   4.105  0.00  0.00    -0.166 F 
ATOM     15  F   UNL     1      -9.763   1.074   3.945  0.00  0.00    -0.166 F 
ATOM     16  F   UNL     1      -8.912   2.355   5.634  0.00  0.00    -0.166 F 
ENDBRANCH   7  13
ENDBRANCH   3   5
BRANCH   1  17
ATOM     17  C   UNL     1      -2.994   0.218   1.459  0.00  0.00    +0.101 C 
BRANCH  17  18
ATOM     18  C   UNL     1      -2.733  -0.307   0.046  0.00  0.00    +0.048 C 
BRANCH  18  21
ATOM     19  C   UNL     1      -0.247   1.158  -0.344  0.00  0.00    +0.066 C 
ATOM     20  C   UNL     1      -0.219  -0.339  -0.169  0.00  0.00    +0.045 A 
ATOM     21  C   UNL     1      -1.417  -1.042   0.018  0.00  0.00    -0.005 A 
ATOM     22  C   UNL     1      -1.383  -2.388   0.175  0.00  0.00    +0.047 A 
ATOM     23  N   UNL     1      -0.179  -3.030   0.146  0.00  0.00    -0.215 N 
ATOM     24  C   UNL     1       0.973  -2.309  -0.039  0.00  0.00    +0.160 A 
ATOM     25  N   UNL     1       0.926  -0.979  -0.198  0.00  0.00    -0.233 NA
ATOM     26  C   UNL     1       2.025  -3.215  -0.023  0.00  0.00    +0.116 A 
ATOM     27  C   UNL     1       1.486  -4.482   0.174  0.00  0.00    +0.234 A 
ATOM     28  N   UNL     1       0.177  -4.377   0.275  0.00  0.00    -0.127 NA
ATOM     29  C   UNL     1      -2.658  -3.166   0.378  0.00  0.00    +0.066 C 
BRANCH  27  30
ATOM     30  O   UNL     1       2.195  -5.640   0.249  0.00  0.00    -0.491 OA
ATOM     31  H   UNL     1       2.476  -5.871   1.145  0.00  0.00    +0.294 HD
ENDBRANCH  27  30
ENDBRANCH  18  21
ENDBRANCH  17  18
ENDBRANCH   1  17
TORSDOF 6
