REMARK  Name = ZINC59116566
REMARK  10 active torsions:
REMARK  status: ('A' for Active; 'I' for Inactive)
REMARK    1  A    between atoms: C_1  and  C_2
REMARK    2  A    between atoms: C_5  and  S_8
REMARK    3  A    between atoms: S_8  and  N_11
REMARK    4  A    between atoms: N_11  and  C_12
REMARK    5  A    between atoms: C_15  and  C_18
REMARK    6  A    between atoms: C_18  and  N_19
REMARK    7  A    between atoms: N_19  and  C_20
REMARK    8  A    between atoms: C_21  and  C_33
REMARK    9  A    between atoms: N_22  and  C_32
REMARK   10  A    between atoms: N_23  and  C_26
REMARK                            x       y       z     vdW  Elec       q    Type
REMARK                         _______ _______ _______ _____ _____    ______ ____
ROOT
ATOM      1  C   UNL     1       2.739  -5.706   1.288  0.00  0.00    +0.048 A 
ATOM      2  C   UNL     1       2.602  -4.395   1.728  0.00  0.00    +0.025 A 
ATOM      3  C   UNL     1       3.284  -3.971   2.851  0.00  0.00    +0.007 A 
ATOM      4  C   UNL     1       4.103  -4.848   3.538  0.00  0.00    -0.030 A 
ATOM      5  C   UNL     1       4.242  -6.154   3.102  0.00  0.00    +0.007 A 
ATOM      6  C   UNL     1       3.558  -6.586   1.983  0.00  0.00    +0.025 A 
ENDROOT
BRANCH   1   7
ATOM      7  N   UNL     1       2.050  -6.139   0.153  0.00  0.00    -0.216 N 
ATOM      8  H   UNL     1       2.525  -6.265  -0.684  0.00  0.00    +0.174 HD
BRANCH   7   9
ATOM      9  S   UNL     1       0.423  -6.437   0.234  0.00  0.00    +0.072 S 
ATOM     10  O   UNL     1       0.023  -6.865  -1.060  0.00  0.00    -0.150 OA
ATOM     11  O   UNL     1      -0.163  -5.315   0.880  0.00  0.00    -0.150 OA
BRANCH   9  16
ATOM     12  C   UNL     1      -0.347 -11.147   3.925  0.00  0.00    +0.044 C 
ATOM     13  C   UNL     1      -0.155  -9.971   3.003  0.00  0.00    -0.050 A 
ATOM     14  C   UNL     1      -0.097  -8.690   3.520  0.00  0.00    +0.005 A 
ATOM     15  C   UNL     1       0.080  -7.611   2.675  0.00  0.00    +0.029 A 
ATOM     16  C   UNL     1       0.199  -7.812   1.312  0.00  0.00    +0.109 A 
ATOM     17  C   UNL     1       0.143  -9.093   0.795  0.00  0.00    +0.029 A 
ATOM     18  C   UNL     1      -0.030 -10.173   1.641  0.00  0.00    +0.005 A 
ENDBRANCH   9  16
ENDBRANCH   7   9
ENDBRANCH   1   7
BRANCH   4  19
ATOM     19  C   UNL     1       4.846  -4.381   4.762  0.00  0.00    +0.137 C 
BRANCH  19  20
ATOM     20  N   UNL     1       4.020  -4.607   5.951  0.00  0.00    -0.334 N 
ATOM     21  H   UNL     1       3.139  -5.003   5.861  0.00  0.00    +0.147 HD
BRANCH  20  22
ATOM     22  C   UNL     1       4.505  -4.247   7.226  0.00  0.00    +0.115 A 
ATOM     23  C   UNL     1       3.852  -4.405   8.396  0.00  0.00    +0.059 A 
ATOM     24  N   UNL     1       4.655  -3.933   9.407  0.00  0.00    -0.282 N 
ATOM     25  N   UNL     1       5.847  -3.469   8.835  0.00  0.00    -0.216 N 
ATOM     26  C   UNL     1       5.768  -3.662   7.503  0.00  0.00    +0.293 A 
ATOM     27  O   UNL     1       6.624  -3.381   6.684  0.00  0.00    -0.264 OA
ATOM     28  C   UNL     1       4.323  -3.919  10.833  0.00  0.00    +0.171 C 
ATOM     29  C   UNL     1       2.476  -4.996   8.566  0.00  0.00    +0.067 C 
BRANCH  25  30
ATOM     30  C   UNL     1       6.929  -2.910   9.524  0.00  0.00    +0.067 A 
ATOM     31  C   UNL     1       7.497  -1.723   9.081  0.00  0.00    +0.028 A 
ATOM     32  C   UNL     1       8.564  -1.173   9.764  0.00  0.00    +0.002 A 
ATOM     33  C   UNL     1       9.068  -1.805  10.886  0.00  0.00    +0.000 A 
ATOM     34  C   UNL     1       8.505  -2.988  11.329  0.00  0.00    +0.002 A 
ATOM     35  C   UNL     1       7.433  -3.539  10.655  0.00  0.00    +0.028 A 
ENDBRANCH  25  30
ENDBRANCH  20  22
ENDBRANCH  19  20
ENDBRANCH   4  19
TORSDOF 7
