REMARK  Name = ZINC09102173
REMARK  15 active torsions:
REMARK  status: ('A' for Active; 'I' for Inactive)
REMARK    1  A    between atoms: C_1  and  C_2
REMARK    2  A    between atoms: C_2  and  O_3
REMARK    3  A    between atoms: O_3  and  C_4
REMARK    4  A    between atoms: C_4  and  C_6
REMARK    5  A    between atoms: C_7  and  C_14
REMARK    6  A    between atoms: C_8  and  C_12
REMARK    7  A    between atoms: C_9  and  N_11
REMARK    8  A    between atoms: C_14  and  S_15
REMARK    9  A    between atoms: S_15  and  C_16
REMARK   10  A    between atoms: C_19  and  C_28
REMARK   11  A    between atoms: N_20  and  C_21
REMARK   12  A    between atoms: C_28  and  C_30
REMARK   13  A    between atoms: C_28  and  N_55
REMARK   14  A    between atoms: C_31  and  N_55
REMARK   15  A    between atoms: C_32  and  N_55
REMARK                            x       y       z     vdW  Elec       q    Type
REMARK                         _______ _______ _______ _____ _____    ______ ____
ROOT
ATOM      1  C   UNL     1      -1.729  -0.334   0.017  0.00  0.00    +0.196 A 
ATOM      2  N   UNL     1      -2.693   0.557   0.036  0.00  0.00    -0.122 NA
ATOM      3  N   UNL     1      -3.835  -0.034   0.038  0.00  0.00    -0.135 NA
ATOM      4  C   UNL     1      -3.671  -1.326   0.030  0.00  0.00    +0.125 A 
ATOM      5  N   UNL     1      -2.322  -1.566   0.016  0.00  0.00    -0.275 N 
ENDROOT
BRANCH   5   6
ATOM      6  C   UNL     1      -1.683  -2.815   0.003  0.00  0.00    +0.050 A 
ATOM      7  C   UNL     1      -1.834  -3.662  -1.086  0.00  0.00    +0.028 A 
ATOM      8  C   UNL     1      -1.200  -4.889  -1.099  0.00  0.00    +0.022 A 
ATOM      9  C   UNL     1      -0.424  -5.278  -0.022  0.00  0.00    +0.041 A 
ATOM     10  C   UNL     1      -0.276  -4.438   1.068  0.00  0.00    +0.022 A 
ATOM     11  C   UNL     1      -0.904  -3.208   1.082  0.00  0.00    +0.028 A 
ATOM     12 CL   UNL     1       0.367  -6.824  -0.038  0.00  0.00    -0.084 Cl
ENDBRANCH   5   6
BRANCH   4  13
ATOM     13  C   UNL     1      -4.763  -2.365   0.036  0.00  0.00    -0.003 C 
ATOM     14  C   UNL     1      -5.403  -2.439  -1.352  0.00  0.00    -0.005 C 
BRANCH  13  17
ATOM     15  C   UNL     1      -6.477  -0.763   0.635  0.00  0.00    -0.096 C 
ATOM     16  C   UNL     1      -6.737  -3.096   1.232  0.00  0.00    -0.096 C 
ATOM     17  N   UNL     1      -5.770  -1.993   1.052  0.00  0.00    +0.382 N 
ATOM     18  H   UNL     1      -5.294  -1.818   1.944  0.00  0.00    -0.082 HD
ENDBRANCH  13  17
ENDBRANCH   4  13
BRANCH   1  19
ATOM     19  S   UNL     1       0.002  -0.004   0.002  0.00  0.00    -0.081 S 
BRANCH  19  20
ATOM     20  C   UNL     1      -0.022   1.806   0.012  0.00  0.00    +0.115 C 
BRANCH  20  22
ATOM     21  C   UNL     1       2.053   2.582  -1.183  0.00  0.00    +0.103 A 
ATOM     22  C   UNL     1       1.391   2.327   0.001  0.00  0.00    +0.003 A 
ATOM     23  C   UNL     1       2.076   2.575   1.179  0.00  0.00    +0.084 A 
ATOM     24  C   UNL     1       3.387   3.055   1.085  0.00  0.00    +0.082 A 
ATOM     25  S   UNL     1       3.643   3.164  -0.625  0.00  0.00    -0.066 S 
BRANCH  24  26
ATOM     26  N   UNL     1       4.259   3.368   2.103  0.00  0.00    -0.352 N 
ATOM     27  H   UNL     1       5.147   3.698   1.896  0.00  0.00    +0.143 HD
ATOM     28  H   UNL     1       3.985   3.259   3.027  0.00  0.00    +0.143 HD
ENDBRANCH  24  26
BRANCH  21  29
ATOM     29  C   UNL     1       1.585   2.421  -2.512  0.00  0.00    +0.346 C 
ATOM     30  O   UNL     1       0.458   2.008  -2.714  0.00  0.00    -0.244 OA
BRANCH  29  31
ATOM     31  O   UNL     1       2.388   2.727  -3.552  0.00  0.00    -0.461 OA
BRANCH  31  33
ATOM     32  C   UNL     1       2.900   2.937  -5.905  0.00  0.00    +0.048 C 
ATOM     33  C   UNL     1       1.851   2.541  -4.863  0.00  0.00    +0.229 C 
ENDBRANCH  31  33
ENDBRANCH  29  31
ENDBRANCH  21  29
BRANCH  23  34
ATOM     34  C   UNL     1       1.463   2.345   2.453  0.00  0.00    +0.102 C 
ATOM     35  N   UNL     1       0.976   2.162   3.463  0.00  0.00    -0.191 NA
ENDBRANCH  23  34
ENDBRANCH  20  22
ENDBRANCH  19  20
ENDBRANCH   1  19
TORSDOF 11
