REMARK  Name = ZINC01037161
REMARK  11 active torsions:
REMARK  status: ('A' for Active; 'I' for Inactive)
REMARK    1  A    between atoms: C_3  and  C_8
REMARK    2  A    between atoms: C_4  and  O_7
REMARK    3  A    between atoms: N_9  and  C_10
REMARK    4  A    between atoms: C_10  and  C_12
REMARK    5  A    between atoms: C_10  and  C_30
REMARK    6  A    between atoms: C_12  and  N_14
REMARK    7  A    between atoms: C_12  and  C_23
REMARK    8  A    between atoms: C_15  and  C_16
REMARK    9  A    between atoms: C_17  and  O_22
REMARK   10  A    between atoms: C_24  and  O_29
REMARK   11  A    between atoms: C_31  and  O_36
REMARK                            x       y       z     vdW  Elec       q    Type
REMARK                         _______ _______ _______ _____ _____    ______ ____
ROOT
ATOM      1  C   UNL     1       6.032   2.293   0.164  0.00  0.00    +0.141 C 
ENDROOT
BRANCH   1   2
ATOM      2  C   UNL     1       6.731   1.935   1.450  0.00  0.00    +0.018 A 
ATOM      3  C   UNL     1       7.612   2.833   2.035  0.00  0.00    +0.122 A 
ATOM      4  C   UNL     1       8.254   2.499   3.219  0.00  0.00    +0.046 A 
ATOM      5  C   UNL     1       8.014   1.275   3.812  0.00  0.00    +0.004 A 
ATOM      6  C   UNL     1       7.136   0.382   3.227  0.00  0.00    +0.001 A 
ATOM      7  C   UNL     1       6.490   0.714   2.050  0.00  0.00    +0.009 A 
BRANCH   3   8
ATOM      8  O   UNL     1       7.846   4.036   1.450  0.00  0.00    -0.506 OA
ATOM      9  H   UNL     1       7.248   4.738   1.740  0.00  0.00    +0.292 HD
ENDBRANCH   3   8
ENDBRANCH   1   2
BRANCH   1  11
ATOM     10  C   UNL     1       3.651   2.169  -0.022  0.00  0.00    +0.090 C 
ATOM     11  N   UNL     1       4.780   1.540   0.062  0.00  0.00    -0.380 N 
ATOM     12  H   UNL     1       4.796   0.570   0.057  0.00  0.00    +0.160 HD
BRANCH  10  15
ATOM     13  C   UNL     1      -0.017   1.383   0.038  0.00  0.00    +0.001 A 
ATOM     14  C   UNL     1       1.164   2.094   0.022  0.00  0.00    +0.013 A 
ATOM     15  C   UNL     1       2.385   1.415  -0.004  0.00  0.00    +0.032 A 
ATOM     16  C   UNL     1       2.399   0.013  -0.012  0.00  0.00    +0.125 A 
ATOM     17  C   UNL     1       1.202  -0.685   0.004  0.00  0.00    +0.046 A 
ATOM     18  C   UNL     1       0.001  -0.002   0.030  0.00  0.00    +0.004 A 
BRANCH  16  19
ATOM     19  O   UNL     1       3.579  -0.657  -0.038  0.00  0.00    -0.506 OA
ATOM     20  H   UNL     1       3.936  -0.856   0.838  0.00  0.00    +0.292 HD
ENDBRANCH  16  19
ENDBRANCH  10  15
ENDBRANCH   1  11
BRANCH   1  21
ATOM     21  C   UNL     1       6.935   1.945  -1.021  0.00  0.00    +0.165 C 
BRANCH  21  22
ATOM     22  C   UNL     1       7.134   0.453  -1.079  0.00  0.00    +0.021 A 
ATOM     23  C   UNL     1       6.206  -0.347  -1.729  0.00  0.00    +0.122 A 
ATOM     24  C   UNL     1       6.392  -1.721  -1.781  0.00  0.00    +0.046 A 
ATOM     25  C   UNL     1       7.502  -2.289  -1.185  0.00  0.00    +0.004 A 
ATOM     26  C   UNL     1       8.425  -1.490  -0.537  0.00  0.00    +0.001 A 
ATOM     27  C   UNL     1       8.245  -0.120  -0.489  0.00  0.00    +0.009 A 
BRANCH  23  28
ATOM     28  O   UNL     1       5.115   0.214  -2.315  0.00  0.00    -0.506 OA
ATOM     29  H   UNL     1       5.250   0.466  -3.238  0.00  0.00    +0.292 HD
ENDBRANCH  23  28
ENDBRANCH  21  22
BRANCH  21  30
ATOM     30  N   UNL     1       8.232   2.605  -0.858  0.00  0.00    -0.280 NA
ATOM     31  C   UNL     1       8.647   3.447  -1.749  0.00  0.00    +0.117 C 
BRANCH  31  32
ATOM     32  C   UNL     1       9.953   4.111  -1.585  0.00  0.00    +0.034 A 
ATOM     33  C   UNL     1      10.751   3.830  -0.467  0.00  0.00    +0.125 A 
ATOM     34  C   UNL     1      11.976   4.461  -0.322  0.00  0.00    +0.046 A 
ATOM     35  C   UNL     1      12.409   5.362  -1.275  0.00  0.00    +0.004 A 
ATOM     36  C   UNL     1      11.624   5.642  -2.381  0.00  0.00    +0.001 A 
ATOM     37  C   UNL     1      10.405   5.019  -2.544  0.00  0.00    +0.013 A 
BRANCH  33  38
ATOM     38  O   UNL     1      10.324   2.945   0.470  0.00  0.00    -0.506 OA
ATOM     39  H   UNL     1      10.591   2.032   0.298  0.00  0.00    +0.292 HD
ENDBRANCH  33  38
ENDBRANCH  31  32
ENDBRANCH  21  30
ENDBRANCH   1  21
TORSDOF 11
