REMARK  Name = ZINC04258138
REMARK  7 active torsions:
REMARK  status: ('A' for Active; 'I' for Inactive)
REMARK    1  A    between atoms: C_1  and  C_2
REMARK    2  A    between atoms: C_2  and  N_3
REMARK    3  A    between atoms: C_13  and  S_14
REMARK    4  A    between atoms: S_14  and  C_15
REMARK    5  A    between atoms: C_15  and  C_16
REMARK    6  A    between atoms: C_21  and  C_24
REMARK    7  A    between atoms: C_21  and  N_27
REMARK                            x       y       z     vdW  Elec       q    Type
REMARK                         _______ _______ _______ _____ _____    ______ ____
ROOT
ATOM      1  C   UNL     1      -1.794  -1.135  -5.353  0.00  0.00    +0.226 C 
ATOM      2  O   UNL     1      -0.624  -0.824  -5.428  0.00  0.00    -0.275 OA
ATOM      3  N   UNL     1      -2.545  -1.210  -6.469  0.00  0.00    -0.301 N 
ATOM      4  C   UNL     1      -3.965  -1.580  -6.393  0.00  0.00    +0.107 C 
ATOM      5  C   UNL     1      -4.793  -0.506  -7.106  0.00  0.00    +0.016 C 
ATOM      6  C   UNL     1      -4.266  -0.324  -8.531  0.00  0.00    +0.015 C 
ATOM      7  C   UNL     1      -2.809   0.142  -8.483  0.00  0.00    +0.016 C 
ATOM      8  C   UNL     1      -1.960  -0.918  -7.785  0.00  0.00    +0.107 C 
ENDROOT
BRANCH   6   9
ATOM      9  N   UNL     1      -5.079   0.682  -9.228  0.00  0.00    +0.389 N 
ATOM     10  C   UNL     1      -6.476   0.234  -9.272  0.00  0.00    -0.077 C 
ATOM     11  C   UNL     1      -7.341   1.315  -9.926  0.00  0.00    -0.019 C 
ATOM     12  C   UNL     1      -6.840   1.570 -11.350  0.00  0.00    -0.004 C 
ATOM     13  C   UNL     1      -5.361   1.964 -11.297  0.00  0.00    -0.019 C 
ATOM     14  C   UNL     1      -4.569   0.860 -10.594  0.00  0.00    -0.077 C 
ATOM     15  H   UNL     1      -5.024   1.559  -8.733  0.00  0.00    -0.080 HD
ENDBRANCH   6   9
BRANCH   6  16
ATOM     16  C   UNL     1      -4.349  -1.635  -9.268  0.00  0.00    +0.200 C 
ATOM     17  O   UNL     1      -5.022  -2.541  -8.822  0.00  0.00    -0.278 OA
ATOM     18  N   UNL     1      -3.676  -1.803 -10.424  0.00  0.00    -0.330 N 
ATOM     19  H   UNL     1      -3.078  -1.108 -10.742  0.00  0.00    +0.145 HD
ATOM     20  H   UNL     1      -3.790  -2.618 -10.938  0.00  0.00    +0.145 HD
ENDBRANCH   6  16
BRANCH   1  21
ATOM     21  C   UNL     1      -2.408  -1.438  -4.010  0.00  0.00    +0.173 C 
BRANCH  21  22
ATOM     22  S   UNL     1      -1.152  -1.250  -2.715  0.00  0.00    -0.078 S 
BRANCH  22  33
ATOM     23  N   UNL     1      -1.329  -1.581  -0.046  0.00  0.00    -0.288 N 
ATOM     24  C   UNL     1      -1.953  -1.862   1.122  0.00  0.00    +0.262 A 
ATOM     25  O   UNL     1      -1.358  -1.816   2.183  0.00  0.00    -0.267 OA
ATOM     26  C   UNL     1      -3.376  -2.224   1.061  0.00  0.00    +0.065 A 
ATOM     27  C   UNL     1      -4.108  -2.531   2.207  0.00  0.00    +0.015 A 
ATOM     28  C   UNL     1      -5.430  -2.861   2.094  0.00  0.00    +0.001 A 
ATOM     29  C   UNL     1      -6.049  -2.895   0.851  0.00  0.00    +0.002 A 
ATOM     30  C   UNL     1      -5.356  -2.599  -0.288  0.00  0.00    +0.028 A 
ATOM     31  C   UNL     1      -4.002  -2.257  -0.206  0.00  0.00    +0.079 A 
ATOM     32  N   UNL     1      -3.281  -1.958  -1.304  0.00  0.00    -0.223 NA
ATOM     33  C   UNL     1      -2.014  -1.633  -1.226  0.00  0.00    +0.173 A 
BRANCH  23  35
ATOM     34  C   UNL     1       0.222   0.303   0.107  0.00  0.00    +0.027 C 
ATOM     35  C   UNL     1       0.089  -1.214  -0.043  0.00  0.00    +0.124 C 
ENDBRANCH  23  35
ENDBRANCH  22  33
ENDBRANCH  21  22
ENDBRANCH   1  21
TORSDOF 6
