REMARK  Name = ZINC63393940
REMARK  10 active torsions:
REMARK  status: ('A' for Active; 'I' for Inactive)
REMARK    1  A    between atoms: C_1  and  N_2
REMARK    2  A    between atoms: N_2  and  C_3
REMARK    3  A    between atoms: N_2  and  C_4
REMARK    4  A    between atoms: C_7  and  C_10
REMARK    5  A    between atoms: C_11  and  C_12
REMARK    6  A    between atoms: C_11  and  N_26
REMARK    7  A    between atoms: N_14  and  C_15
REMARK    8  A    between atoms: C_15  and  C_16
REMARK    9  A    between atoms: C_16  and  C_17
REMARK   10  A    between atoms: C_27  and  C_29
REMARK                            x       y       z     vdW  Elec       q    Type
REMARK                         _______ _______ _______ _____ _____    ______ ____
ROOT
ATOM      1  C   UNL     1       0.432  -2.785  -5.035  0.00  0.00    +0.036 C 
ATOM      2  C   UNL     1      -0.135  -2.120  -6.070  0.00  0.00    +0.097 C 
ENDROOT
BRANCH   1   6
ATOM      3  C   UNL     1       2.382  -0.632  -1.945  0.00  0.00    +0.029 A 
ATOM      4  C   UNL     1       2.418  -0.154  -3.252  0.00  0.00    +0.023 A 
ATOM      5  C   UNL     1       1.787  -0.850  -4.258  0.00  0.00    +0.010 A 
ATOM      6  C   UNL     1       1.108  -2.039  -3.965  0.00  0.00    -0.023 A 
ATOM      7  C   UNL     1       1.075  -2.515  -2.648  0.00  0.00    +0.010 A 
ATOM      8  C   UNL     1       1.713  -1.816  -1.650  0.00  0.00    +0.023 A 
BRANCH   3  10
ATOM      9  C   UNL     1       2.992  -0.428   0.446  0.00  0.00    +0.129 C 
ATOM     10  N   UNL     1       3.023   0.075  -0.930  0.00  0.00    -0.336 N 
ATOM     11  C   UNL     1       3.728   1.322  -1.238  0.00  0.00    +0.129 C 
ENDBRANCH   3  10
ENDBRANCH   1   6
BRANCH   2  12
ATOM     12  C   UNL     1      -0.207  -0.654  -6.049  0.00  0.00    +0.258 C 
ATOM     13  O   UNL     1       0.532   0.002  -6.760  0.00  0.00    -0.269 OA
ATOM     14  N   UNL     1      -1.091  -0.034  -5.242  0.00  0.00    -0.310 N 
ATOM     15  H   UNL     1      -1.630  -0.552  -4.624  0.00  0.00    +0.149 HD
BRANCH  14  16
ATOM     16  C   UNL     1      -1.239   1.423  -5.300  0.00  0.00    +0.109 C 
BRANCH  16  17
ATOM     17  C   UNL     1      -2.299   1.868  -4.291  0.00  0.00    +0.052 C 
BRANCH  17  18
ATOM     18  C   UNL     1      -2.451   3.366  -4.350  0.00  0.00    -0.040 C 
ATOM     19  C   UNL     1      -3.365   4.063  -5.064  0.00  0.00    -0.001 A 
ATOM     20  C   UNL     1      -4.447   3.651  -5.965  0.00  0.00    +0.010 A 
ATOM     21  C   UNL     1      -5.213   4.602  -6.548  0.00  0.00    +0.001 A 
ATOM     22  C   UNL     1      -4.998   5.967  -6.314  0.00  0.00    +0.002 A 
ATOM     23  C   UNL     1      -4.024   6.423  -5.499  0.00  0.00    +0.026 A 
ATOM     24  C   UNL     1      -3.159   5.511  -4.833  0.00  0.00    +0.043 A 
ATOM     25  N   UNL     1      -2.157   5.702  -4.009  0.00  0.00    -0.380 N 
ATOM     26  C   UNL     1      -1.617   4.394  -3.618  0.00  0.00    +0.144 C 
ATOM     27  H   UNL     1      -1.830   6.563  -3.705  0.00  0.00    +0.160 HD
ENDBRANCH  17  18
ENDBRANCH  16  17
ENDBRANCH  14  16
ENDBRANCH   2  12
BRANCH   2  28
ATOM     28  N   UNL     1      -0.653  -2.830  -7.158  0.00  0.00    -0.277 N 
ATOM     29  C   UNL     1      -1.257  -2.171  -8.168  0.00  0.00    +0.248 C 
ATOM     30  O   UNL     1      -1.268  -0.956  -8.179  0.00  0.00    -0.270 OA
ATOM     31  H   UNL     1      -0.578  -3.797  -7.186  0.00  0.00    +0.155 HD
BRANCH  29  32
ATOM     32  C   UNL     1      -1.904  -2.927  -9.261  0.00  0.00    +0.037 A 
ATOM     33  C   UNL     1      -1.898  -4.323  -9.248  0.00  0.00    +0.013 A 
ATOM     34  C   UNL     1      -2.505  -5.022 -10.271  0.00  0.00    +0.001 A 
ATOM     35  C   UNL     1      -3.119  -4.342 -11.308  0.00  0.00    +0.000 A 
ATOM     36  C   UNL     1      -3.128  -2.959 -11.327  0.00  0.00    +0.001 A 
ATOM     37  C   UNL     1      -2.530  -2.248 -10.307  0.00  0.00    +0.013 A 
ENDBRANCH  29  32
ENDBRANCH   2  28
TORSDOF 8
