REMARK  Name = ZINC45513298
REMARK  7 active torsions:
REMARK  status: ('A' for Active; 'I' for Inactive)
REMARK    1  A    between atoms: C_1  and  C_2
REMARK    2  A    between atoms: C_2  and  C_3
REMARK    3  A    between atoms: C_3  and  C_31
REMARK    4  A    between atoms: N_6  and  N_10
REMARK    5  A    between atoms: C_11  and  C_13
REMARK    6  A    between atoms: C_13  and  N_14
REMARK    7  A    between atoms: C_17  and  N_20
REMARK                            x       y       z     vdW  Elec       q    Type
REMARK                         _______ _______ _______ _____ _____    ______ ____
ROOT
ATOM      1  N   UNL     1       1.103  -5.861   5.516  0.00  0.00    +0.386 N 
ATOM      2  C   UNL     1       0.826  -4.980   6.657  0.00  0.00    -0.076 C 
ATOM      3  C   UNL     1       1.823  -5.267   7.782  0.00  0.00    +0.006 C 
ATOM      4  C   UNL     1       1.685  -6.729   8.218  0.00  0.00    +0.089 C 
ATOM      5  C   UNL     1       1.903  -7.636   7.004  0.00  0.00    +0.006 C 
ATOM      6  C   UNL     1       0.903  -7.261   5.908  0.00  0.00    -0.076 C 
ATOM      7  H   UNL     1       2.057  -5.729   5.217  0.00  0.00    -0.081 HD
ENDROOT
BRANCH   4   8
ATOM      8  N   UNL     1       2.688  -7.031   9.242  0.00  0.00    -0.289 N 
ATOM      9  C   UNL     1       2.424  -7.468  10.538  0.00  0.00    +0.070 A 
ATOM     10  C   UNL     1       1.254  -7.737  11.232  0.00  0.00    +0.028 A 
ATOM     11  C   UNL     1       1.316  -8.168  12.542  0.00  0.00    +0.002 A 
ATOM     12  C   UNL     1       2.541  -8.330  13.167  0.00  0.00    +0.002 A 
ATOM     13  C   UNL     1       3.711  -8.064  12.485  0.00  0.00    +0.028 A 
ATOM     14  C   UNL     1       3.660  -7.633  11.168  0.00  0.00    +0.067 A 
ATOM     15  N   UNL     1       4.636  -7.291  10.235  0.00  0.00    -0.306 N 
ATOM     16  H   UNL     1       5.594  -7.307  10.384  0.00  0.00    +0.170 HD
ATOM     17  C   UNL     1       4.023  -6.940   9.088  0.00  0.00    +0.328 A 
ATOM     18  O   UNL     1       4.589  -6.591   8.069  0.00  0.00    -0.247 OA
ENDBRANCH   4   8
BRANCH   1  19
ATOM     19  C   UNL     1       0.194  -5.528   4.411  0.00  0.00    +0.020 C 
BRANCH  19  21
ATOM     20  N   UNL     1      -0.233  -3.608   2.911  0.00  0.00    -0.225 N 
ATOM     21  C   UNL     1       0.483  -4.130   3.927  0.00  0.00    +0.213 C 
ATOM     22  O   UNL     1       1.359  -3.476   4.450  0.00  0.00    -0.276 OA
ATOM     23  H   UNL     1      -0.934  -4.131   2.492  0.00  0.00    +0.173 HD
BRANCH  20  27
ATOM     24  C   UNL     1       0.742  -0.511   1.242  0.00  0.00    +0.111 C 
ATOM     25  C   UNL     1       0.685  -2.024   1.315  0.00  0.00    +0.263 C 
ATOM     26  O   UNL     1       1.132  -2.813   0.511  0.00  0.00    -0.271 OA
ATOM     27  N   UNL     1       0.035  -2.309   2.461  0.00  0.00    -0.137 N 
ATOM     28  C   UNL     1      -0.323  -1.198   3.115  0.00  0.00    +0.326 C 
ATOM     29  O   UNL     1      -0.920  -1.199   4.173  0.00  0.00    -0.251 OA
ATOM     30  N   UNL     1       0.053  -0.079   2.470  0.00  0.00    -0.284 N 
ATOM     31  C   UNL     1       2.192  -0.023   1.238  0.00  0.00    +0.041 C 
ATOM     32  H   UNL     1      -0.100   0.835   2.757  0.00  0.00    +0.151 HD
BRANCH  24  34
ATOM     33  C   UNL     1      -0.019   1.526   0.010  0.00  0.00    +0.006 C 
ATOM     34  C   UNL     1       0.002  -0.004   0.002  0.00  0.00    +0.032 C 
ENDBRANCH  24  34
ENDBRANCH  20  27
ENDBRANCH  19  21
ENDBRANCH   1  19
TORSDOF 5
