REMARK  Name = ZINC20691689
REMARK  9 active torsions:
REMARK  status: ('A' for Active; 'I' for Inactive)
REMARK    1  A    between atoms: C_1  and  C_2
REMARK    2  A    between atoms: C_2  and  C_3
REMARK    3  A    between atoms: C_3  and  C_4
REMARK    4  A    between atoms: C_4  and  O_5
REMARK    5  A    between atoms: O_5  and  C_6
REMARK    6  A    between atoms: C_13  and  C_22
REMARK    7  A    between atoms: C_23  and  C_30
REMARK    8  A    between atoms: C_25  and  C_29
REMARK    9  A    between atoms: C_27  and  C_28
REMARK                            x       y       z     vdW  Elec       q    Type
REMARK                         _______ _______ _______ _____ _____    ______ ____
ROOT
ATOM      1  C   UNL     1      -0.928   1.112   4.287  0.00  0.00    +0.142 A 
ATOM      2  C   UNL     1      -2.062   1.880   4.475  0.00  0.00    +0.047 A 
ATOM      3  C   UNL     1      -2.345   2.390   5.729  0.00  0.00    +0.004 A 
ATOM      4  C   UNL     1      -1.498   2.134   6.786  0.00  0.00    +0.006 A 
ATOM      5  C   UNL     1      -0.354   1.364   6.610  0.00  0.00    -0.016 A 
ATOM      6  C   UNL     1      -0.071   0.846   5.360  0.00  0.00    +0.074 A 
ATOM      7  N   UNL     1       1.062   0.066   5.117  0.00  0.00    -0.334 N 
ATOM      8  C   UNL     1       2.144   0.350   6.061  0.00  0.00    +0.105 C 
ATOM      9  C   UNL     1       1.647   0.116   7.489  0.00  0.00    +0.029 C 
ATOM     10  C   UNL     1       0.526   1.129   7.803  0.00  0.00    +0.049 C 
ATOM     11  C   UNL     1       1.264   2.393   8.177  0.00  0.00    -0.023 C 
ATOM     12  C   UNL     1       2.492   2.117   8.539  0.00  0.00    -0.030 C 
ATOM     13  C   UNL     1       2.746   0.625   8.465  0.00  0.00    +0.033 C 
ATOM     14  H   UNL     1       1.203  -0.692   4.332  0.00  0.00    +0.147 HD
ENDROOT
BRANCH   8  15
ATOM     15  C   UNL     1       3.311  -0.561   5.778  0.00  0.00    -0.021 A 
ATOM     16  C   UNL     1       4.594  -0.049   5.740  0.00  0.00    -0.045 A 
ATOM     17  C   UNL     1       5.665  -0.885   5.486  0.00  0.00    +0.007 A 
ATOM     18  C   UNL     1       5.451  -2.232   5.259  0.00  0.00    -0.050 A 
ATOM     19  C   UNL     1       4.167  -2.743   5.292  0.00  0.00    +0.007 A 
ATOM     20  C   UNL     1       3.097  -1.908   5.552  0.00  0.00    -0.045 A 
ATOM     21  C   UNL     1       1.697  -2.465   5.588  0.00  0.00    +0.044 C 
ATOM     22  C   UNL     1       6.617  -3.143   4.976  0.00  0.00    +0.044 C 
ATOM     23  C   UNL     1       4.827   1.421   5.981  0.00  0.00    +0.044 C 
ENDBRANCH   8  15
BRANCH   1  24
ATOM     24  O   UNL     1      -0.646   0.609   3.055  0.00  0.00    -0.490 OA
BRANCH  24  25
ATOM     25  C   UNL     1      -1.565   0.914   2.005  0.00  0.00    +0.229 C 
BRANCH  25  26
ATOM     26  C   UNL     1      -1.086   0.267   0.704  0.00  0.00    +0.041 C 
BRANCH  26  28
ATOM     27  C   UNL     1      -1.591  -0.054  -1.722  0.00  0.00    +0.004 C 
ATOM     28  C   UNL     1      -2.070   0.593  -0.421  0.00  0.00    -0.000 C 
ENDBRANCH  26  28
ENDBRANCH  25  26
ENDBRANCH  24  25
ENDBRANCH   1  24
TORSDOF 5
