REMARK  Name = ZINC37042133
REMARK  4 active torsions:
REMARK  status: ('A' for Active; 'I' for Inactive)
REMARK    1  A    between atoms: C_3  and  N_11
REMARK    2  A    between atoms: C_4  and  N_8
REMARK    3  A    between atoms: C_12  and  C_14
REMARK    4  A    between atoms: C_17  and  O_21
REMARK                            x       y       z     vdW  Elec       q    Type
REMARK                         _______ _______ _______ _____ _____    ______ ____
ROOT
ATOM      1  N   UNL     1       3.421   2.037  -0.041  0.00  0.00    -0.285 N 
ATOM      2  C   UNL     1       3.343   3.376  -0.177  0.00  0.00    +0.203 C 
ATOM      3  O   UNL     1       2.260   3.921  -0.190  0.00  0.00    -0.277 OA
ATOM      4  H   UNL     1       4.287   1.609   0.052  0.00  0.00    +0.155 HD
ENDROOT
BRANCH   1   7
ATOM      5  C   UNL     1      -0.043   0.967  -0.652  0.00  0.00    +0.017 A 
ATOM      6  C   UNL     1       1.107   1.731  -0.661  0.00  0.00    +0.027 A 
ATOM      7  C   UNL     1       2.254   1.265  -0.033  0.00  0.00    +0.064 A 
ATOM      8  C   UNL     1       2.241   0.030   0.604  0.00  0.00    +0.148 A 
ATOM      9  C   UNL     1       1.088  -0.730   0.609  0.00  0.00    +0.050 A 
ATOM     10  C   UNL     1      -0.053  -0.263  -0.018  0.00  0.00    +0.020 A 
ATOM     11 BR   UNL     1      -1.630  -1.306  -0.007  0.00  0.00    -0.050 Br
BRANCH   8  12
ATOM     12  N   UNL     1       3.462  -0.470   1.274  0.00  0.00    +0.058 N 
ATOM     13  O   UNL     1       3.480  -1.584   1.744  0.00  0.00    -0.126 OA
ATOM     14  O   UNL     1       4.441   0.234   1.352  0.00  0.00    -0.126 OA
ENDBRANCH   8  12
ENDBRANCH   1   7
BRANCH   2  15
ATOM     15  C   UNL     1       4.601   4.195  -0.312  0.00  0.00    +0.019 C 
ATOM     16  C   UNL     1       5.111   4.161  -1.774  0.00  0.00    +0.023 C 
ATOM     17  C   UNL     1       5.939   5.471  -1.847  0.00  0.00    +0.097 C 
ATOM     18  C   UNL     1       5.134   6.441  -0.957  0.00  0.00    -0.050 C 
ATOM     19  N   UNL     1       4.318   5.620  -0.040  0.00  0.00    +0.388 N 
ATOM     20  H   UNL     1       3.339   5.808  -0.196  0.00  0.00    -0.085 HD
ATOM     21  H   UNL     1       4.557   5.837   0.916  0.00  0.00    -0.085 HD
BRANCH  17  22
ATOM     22  O   UNL     1       6.007   5.952  -3.191  0.00  0.00    -0.394 OA
ATOM     23  H   UNL     1       6.514   6.769  -3.291  0.00  0.00    +0.210 HD
ENDBRANCH  17  22
ENDBRANCH   2  15
TORSDOF 4
