REMARK  Name = ZINC39912595
REMARK  15 active torsions:
REMARK  status: ('A' for Active; 'I' for Inactive)
REMARK    1  A    between atoms: C_1  and  C_2
REMARK    2  A    between atoms: C_2  and  O_3
REMARK    3  A    between atoms: O_3  and  C_4
REMARK    4  A    between atoms: C_7  and  C_13
REMARK    5  A    between atoms: C_9  and  O_10
REMARK    6  A    between atoms: O_10  and  C_11
REMARK    7  A    between atoms: C_11  and  C_12
REMARK    8  A    between atoms: C_16  and  C_33
REMARK    9  A    between atoms: N_23  and  C_24
REMARK   10  A    between atoms: C_24  and  C_25
REMARK   11  A    between atoms: C_28  and  O_31
REMARK   12  A    between atoms: O_31  and  C_32
REMARK   13  A    between atoms: C_35  and  C_41
REMARK   14  A    between atoms: C_37  and  C_40
REMARK   15  A    between atoms: C_38  and  O_39
REMARK                            x       y       z     vdW  Elec       q    Type
REMARK                         _______ _______ _______ _____ _____    ______ ____
ROOT
ATOM      1  C   UNL     1      -1.882  -5.941  -0.898  0.00  0.00    +0.142 C 
ATOM      2  C   UNL     1      -1.742  -6.243  -2.365  0.00  0.00    +0.035 A 
ATOM      3  C   UNL     1      -2.225  -6.040  -3.663  0.00  0.00    +0.102 A 
ATOM      4  N   UNL     1      -1.462  -6.738  -4.481  0.00  0.00    -0.173 NA
ATOM      5  N   UNL     1      -0.546  -7.362  -3.829  0.00  0.00    -0.272 N 
ATOM      6  H   UNL     1       0.128  -7.935  -4.226  0.00  0.00    +0.189 HD
ATOM      7  C   UNL     1      -0.662  -7.096  -2.494  0.00  0.00    +0.126 A 
ATOM      8  C   UNL     1      -0.107  -7.350  -1.161  0.00  0.00    +0.266 C 
ATOM      9  O   UNL     1       0.853  -8.063  -0.932  0.00  0.00    -0.268 OA
ATOM     10  N   UNL     1      -0.809  -6.684  -0.225  0.00  0.00    -0.281 N 
ENDROOT
BRANCH   3  11
ATOM     11  C   UNL     1      -3.383  -5.195  -4.047  0.00  0.00    +0.044 A 
ATOM     12  C   UNL     1      -4.181  -4.614  -3.065  0.00  0.00    +0.017 A 
ATOM     13  C   UNL     1      -5.256  -3.829  -3.427  0.00  0.00    -0.049 A 
ATOM     14  C   UNL     1      -5.545  -3.616  -4.763  0.00  0.00    +0.010 A 
ATOM     15  C   UNL     1      -4.760  -4.189  -5.746  0.00  0.00    -0.008 A 
ATOM     16  C   UNL     1      -3.673  -4.974  -5.396  0.00  0.00    +0.129 A 
ATOM     17  C   UNL     1      -5.082  -3.954  -7.199  0.00  0.00    +0.047 C 
ATOM     18  C   UNL     1      -6.120  -3.200  -2.363  0.00  0.00    +0.044 C 
BRANCH  16  19
ATOM     19  O   UNL     1      -2.897  -5.533  -6.361  0.00  0.00    -0.506 OA
ATOM     20  H   UNL     1      -3.191  -6.409  -6.645  0.00  0.00    +0.292 HD
ENDBRANCH  16  19
ENDBRANCH   3  11
BRANCH   1  24
ATOM     21  C   UNL     1      -1.431  -1.745  -0.207  0.00  0.00    +0.162 A 
ATOM     22  C   UNL     1      -2.666  -2.350  -0.036  0.00  0.00    +0.050 A 
ATOM     23  C   UNL     1      -2.809  -3.706  -0.261  0.00  0.00    +0.009 A 
ATOM     24  C   UNL     1      -1.721  -4.463  -0.655  0.00  0.00    -0.019 A 
ATOM     25  C   UNL     1      -0.486  -3.866  -0.827  0.00  0.00    +0.055 A 
ATOM     26  C   UNL     1      -0.337  -2.506  -0.609  0.00  0.00    +0.162 A 
BRANCH  21  27
ATOM     27  O   UNL     1      -1.289  -0.411   0.013  0.00  0.00    -0.489 OA
BRANCH  27  29
ATOM     28  C   UNL     1      -2.102   1.782   0.622  0.00  0.00    +0.048 C 
ATOM     29  C   UNL     1      -2.454   0.306   0.424  0.00  0.00    +0.226 C 
ENDBRANCH  27  29
ENDBRANCH  21  27
BRANCH  26  30
ATOM     30  O   UNL     1       0.876  -1.916  -0.783  0.00  0.00    -0.489 OA
BRANCH  30  31
ATOM     31  C   UNL     1       1.942  -2.750  -1.242  0.00  0.00    +0.226 C 
ATOM     32  C   UNL     1       3.203  -1.904  -1.435  0.00  0.00    +0.048 C 
ENDBRANCH  30  31
ENDBRANCH  26  30
ENDBRANCH   1  24
BRANCH  10  33
ATOM     33  C   UNL     1      -0.548  -6.697   1.217  0.00  0.00    +0.144 C 
BRANCH  33  34
ATOM     34  C   UNL     1      -1.324  -7.818   1.858  0.00  0.00    -0.030 A 
ATOM     35  C   UNL     1      -2.608  -7.593   2.321  0.00  0.00    +0.009 A 
ATOM     36  C   UNL     1      -3.321  -8.619   2.909  0.00  0.00    +0.046 A 
ATOM     37  C   UNL     1      -2.749  -9.877   3.035  0.00  0.00    +0.120 A 
ATOM     38  C   UNL     1      -1.462 -10.100   2.570  0.00  0.00    +0.046 A 
ATOM     39  C   UNL     1      -0.754  -9.072   1.978  0.00  0.00    +0.009 A 
BRANCH  37  40
ATOM     40  O   UNL     1      -3.449 -10.887   3.615  0.00  0.00    -0.495 OA
ATOM     41  C   UNL     1      -2.797 -12.155   3.711  0.00  0.00    +0.277 C 
ENDBRANCH  37  40
ENDBRANCH  33  34
ENDBRANCH  10  33
TORSDOF 10
