REMARK  Name = ZINC03205849
REMARK  9 active torsions:
REMARK  status: ('A' for Active; 'I' for Inactive)
REMARK    1  A    between atoms: C_1  and  O_2
REMARK    2  A    between atoms: O_2  and  C_3
REMARK    3  A    between atoms: C_6  and  N_9
REMARK    4  A    between atoms: N_9  and  C_10
REMARK    5  A    between atoms: C_10  and  N_12
REMARK    6  A    between atoms: N_12  and  N_13
REMARK    7  A    between atoms: N_13  and  P_14
REMARK    8  A    between atoms: C_17  and  C_27
REMARK    9  A    between atoms: C_19  and  C_21
REMARK                            x       y       z     vdW  Elec       q    Type
REMARK                         _______ _______ _______ _____ _____    ______ ____
ROOT
ATOM      1  P   UNL     1       1.108  -5.755  -1.601  0.00  0.00    +0.214 P 
ATOM      2  O   UNL     1       2.224  -6.727  -1.645  0.00  0.00    -0.294 OA
ATOM      3  C   UNL     1       1.102  -4.731  -3.115  0.00  0.00    +0.107 C 
ATOM      4  C   UNL     1      -0.086  -4.603  -3.727  0.00  0.00    +0.140 C 
ATOM      5  O   UNL     1      -1.223  -5.154  -3.298  0.00  0.00    -0.454 OA
ATOM      6  C   UNL     1      -1.409  -6.183  -2.468  0.00  0.00    +0.140 C 
ATOM      7  C   UNL     1      -0.496  -6.631  -1.600  0.00  0.00    +0.107 C 
ENDROOT
BRANCH   6   8
ATOM      8  C   UNL     1      -2.717  -6.876  -2.512  0.00  0.00    +0.017 A 
ATOM      9  C   UNL     1      -2.963  -7.961  -1.671  0.00  0.00    +0.011 A 
ATOM     10  C   UNL     1      -4.185  -8.600  -1.714  0.00  0.00    +0.001 A 
ATOM     11  C   UNL     1      -5.162  -8.172  -2.595  0.00  0.00    +0.000 A 
ATOM     12  C   UNL     1      -4.922  -7.100  -3.436  0.00  0.00    +0.001 A 
ATOM     13  C   UNL     1      -3.705  -6.450  -3.399  0.00  0.00    +0.011 A 
ENDBRANCH   6   8
BRANCH   4  14
ATOM     14  C   UNL     1      -0.137  -3.795  -4.967  0.00  0.00    +0.017 A 
ATOM     15  C   UNL     1       1.021  -3.192  -5.457  0.00  0.00    +0.011 A 
ATOM     16  C   UNL     1       0.968  -2.444  -6.616  0.00  0.00    +0.001 A 
ATOM     17  C   UNL     1      -0.232  -2.283  -7.285  0.00  0.00    +0.000 A 
ATOM     18  C   UNL     1      -1.385  -2.875  -6.800  0.00  0.00    +0.001 A 
ATOM     19  C   UNL     1      -1.344  -3.629  -5.646  0.00  0.00    +0.011 A 
ENDBRANCH   4  14
BRANCH   1  20
ATOM     20  N   UNL     1       1.241  -4.778  -0.237  0.00  0.00    -0.182 NA
ATOM     21  H   UNL     1       1.149  -5.323   0.607  0.00  0.00    +0.153 HD
BRANCH  20  22
ATOM     22  N   UNL     1       2.416  -4.082  -0.245  0.00  0.00    -0.256 N 
ATOM     23  H   UNL     1       3.259  -4.555  -0.329  0.00  0.00    +0.168 HD
BRANCH  22  24
ATOM     24  C   UNL     1       2.405  -2.739  -0.137  0.00  0.00    +0.149 C 
ATOM     25  S   UNL     1       3.878  -1.867  -0.147  0.00  0.00    -0.017 S 
BRANCH  24  26
ATOM     26  N   UNL     1       1.234  -2.082  -0.021  0.00  0.00    -0.296 N 
ATOM     27  H   UNL     1       0.405  -2.579   0.066  0.00  0.00    +0.154 HD
BRANCH  26  31
ATOM     28  C   UNL     1       1.171   2.087  -0.033  0.00  0.00    +0.120 A 
ATOM     29  C   UNL     1       1.990   1.403  -0.920  0.00  0.00    +0.047 A 
ATOM     30  C   UNL     1       2.011   0.022  -0.916  0.00  0.00    +0.027 A 
ATOM     31  C   UNL     1       1.213  -0.681  -0.025  0.00  0.00    +0.033 A 
ATOM     32  C   UNL     1       0.393   0.004   0.863  0.00  0.00    +0.027 A 
ATOM     33  C   UNL     1       0.373   1.384   0.858  0.00  0.00    +0.047 A 
BRANCH  28  35
ATOM     34  C   UNL     1       0.283   4.085   0.902  0.00  0.00    +0.277 C 
ATOM     35  O   UNL     1       1.150   3.446  -0.038  0.00  0.00    -0.495 OA
ENDBRANCH  28  35
ENDBRANCH  26  31
ENDBRANCH  24  26
ENDBRANCH  22  24
ENDBRANCH  20  22
ENDBRANCH   1  20
TORSDOF 8
