REMARK  Name = ZINC24704782
REMARK  11 active torsions:
REMARK  status: ('A' for Active; 'I' for Inactive)
REMARK    1  A    between atoms: C_1  and  C_2
REMARK    2  A    between atoms: C_2  and  C_3
REMARK    3  A    between atoms: C_2  and  C_4
REMARK    4  A    between atoms: C_7  and  S_10
REMARK    5  A    between atoms: S_10  and  N_13
REMARK    6  A    between atoms: N_13  and  C_14
REMARK    7  A    between atoms: C_14  and  C_15
REMARK    8  A    between atoms: C_15  and  C_16
REMARK    9  A    between atoms: N_18  and  N_19
REMARK   10  A    between atoms: C_20  and  C_22
REMARK   11  A    between atoms: C_22  and  C_23
REMARK                            x       y       z     vdW  Elec       q    Type
REMARK                         _______ _______ _______ _____ _____    ______ ____
ROOT
ATOM      1  C   UNL     1      -1.855   4.955  -3.279  0.00  0.00    +0.230 C 
ATOM      2  O   UNL     1      -1.645   5.772  -2.408  0.00  0.00    -0.274 OA
ATOM      3  N   UNL     1      -2.298   5.356  -4.487  0.00  0.00    -0.234 N 
ATOM      4  H   UNL     1      -2.489   4.614  -5.276  0.00  0.00    +0.173 HD
ENDROOT
BRANCH   3   5
ATOM      5  N   UNL     1      -2.515   6.717  -4.737  0.00  0.00    -0.234 N 
ATOM      6  C   UNL     1      -2.958   7.118  -5.945  0.00  0.00    +0.233 C 
ATOM      7  O   UNL     1      -3.168   6.300  -6.816  0.00  0.00    -0.274 OA
ATOM      8  H   UNL     1      -2.325   7.459  -3.947  0.00  0.00    +0.173 HD
BRANCH   6   9
ATOM      9  C   UNL     1      -3.192   8.582  -6.214  0.00  0.00    +0.134 C 
BRANCH   9  10
ATOM     10  C   UNL     1      -3.681   8.761  -7.628  0.00  0.00    -0.014 A 
ATOM     11  C   UNL     1      -2.931   9.054  -8.702  0.00  0.00    +0.087 A 
ATOM     12  N   UNL     1      -3.722   9.136  -9.816  0.00  0.00    -0.360 N 
ATOM     13  H   UNL     1      -3.272   9.363 -10.794  0.00  0.00    +0.165 HD
ATOM     14  C   UNL     1      -5.035   8.899  -9.476  0.00  0.00    +0.047 A 
ATOM     15  C   UNL     1      -5.067   8.654  -8.091  0.00  0.00    +0.003 A 
ATOM     16  C   UNL     1      -6.282   8.380  -7.460  0.00  0.00    +0.010 A 
ATOM     17  C   UNL     1      -7.435   8.350  -8.193  0.00  0.00    +0.001 A 
ATOM     18  C   UNL     1      -7.409   8.592  -9.559  0.00  0.00    +0.002 A 
ATOM     19  C   UNL     1      -6.221   8.865 -10.202  0.00  0.00    +0.026 A 
ENDBRANCH   9  10
ENDBRANCH   6   9
ENDBRANCH   3   5
BRANCH   1  20
ATOM     20  C   UNL     1      -1.622   3.491  -3.009  0.00  0.00    +0.114 C 
BRANCH  20  21
ATOM     21  C   UNL     1      -1.125   3.309  -1.574  0.00  0.00    +0.115 C 
BRANCH  21  22
ATOM     22  N   UNL     1      -0.897   1.885  -1.312  0.00  0.00    -0.189 NA
ATOM     23  H   UNL     1      -1.442   1.126  -1.892  0.00  0.00    +0.148 HD
BRANCH  22  24
ATOM     24  S   UNL     1      -0.017   1.417   0.010  0.00  0.00    +0.058 S 
ATOM     25  O   UNL     1       0.002  -0.004   0.002  0.00  0.00    -0.153 OA
ATOM     26  O   UNL     1       1.172   2.195   0.003  0.00  0.00    -0.153 OA
BRANCH  24  30
ATOM     27  C   UNL     1      -2.354   2.659   3.683  0.00  0.00    -0.045 A 
ATOM     28  C   UNL     1      -2.559   1.412   3.121  0.00  0.00    +0.006 A 
ATOM     29  C   UNL     1      -1.846   1.033   2.000  0.00  0.00    +0.029 A 
ATOM     30  C   UNL     1      -0.927   1.900   1.439  0.00  0.00    +0.105 A 
ATOM     31  C   UNL     1      -0.717   3.145   2.004  0.00  0.00    +0.029 A 
ATOM     32  C   UNL     1      -1.434   3.526   3.123  0.00  0.00    +0.006 A 
BRANCH  27  34
ATOM     33  C   UNL     1      -2.163   3.372   6.050  0.00  0.00    +0.012 C 
ATOM     34  C   UNL     1      -3.132   3.072   4.905  0.00  0.00    +0.013 C 
ATOM     35  C   UNL     1      -3.950   4.326   4.588  0.00  0.00    +0.012 C 
ENDBRANCH  27  34
ENDBRANCH  24  30
ENDBRANCH  22  24
ENDBRANCH  21  22
ENDBRANCH  20  21
ENDBRANCH   1  20
TORSDOF 9
