REMARK  Name = ZINC00659202
REMARK  12 active torsions:
REMARK  status: ('A' for Active; 'I' for Inactive)
REMARK    1  A    between atoms: C_1  and  C_2
REMARK    2  A    between atoms: C_2  and  O_3
REMARK    3  A    between atoms: O_3  and  C_4
REMARK    4  A    between atoms: C_6  and  C_21
REMARK    5  A    between atoms: C_9  and  O_10
REMARK    6  A    between atoms: O_10  and  C_11
REMARK    7  A    between atoms: C_11  and  C_12
REMARK    8  A    between atoms: N_14  and  C_15
REMARK    9  A    between atoms: C_23  and  C_36
REMARK   10  A    between atoms: C_24  and  N_35
REMARK   11  A    between atoms: C_31  and  C_33
REMARK   12  A    between atoms: C_31  and  C_34
REMARK                            x       y       z     vdW  Elec       q    Type
REMARK                         _______ _______ _______ _____ _____    ______ ____
ROOT
ATOM      1  C   UNL     1      -0.016   1.381   0.017  0.00  0.00    +0.162 A 
ATOM      2  C   UNL     1       0.003  -0.004   0.016  0.00  0.00    +0.054 A 
ATOM      3  C   UNL     1       1.209  -0.679   0.011  0.00  0.00    -0.031 A 
ATOM      4  C   UNL     1       2.399   0.025   0.007  0.00  0.00    +0.008 A 
ATOM      5  C   UNL     1       2.387   1.408   0.008  0.00  0.00    +0.050 A 
ATOM      6  C   UNL     1       1.181   2.090   0.012  0.00  0.00    +0.163 A 
ENDROOT
BRANCH   3   7
ATOM      7  C   UNL     1       1.228  -2.186   0.010  0.00  0.00    +0.101 C 
ATOM      8  C   UNL     1       1.925  -2.675  -1.229  0.00  0.00    +0.098 C 
ATOM      9  C   UNL     1       3.206  -3.114  -1.168  0.00  0.00    +0.198 C 
ATOM     10  O   UNL     1       3.887  -3.121  -0.011  0.00  0.00    -0.445 OA
ATOM     11  C   UNL     1       3.220  -3.119   1.158  0.00  0.00    +0.115 C 
ATOM     12  C   UNL     1       1.951  -2.678   1.240  0.00  0.00    +0.046 C 
ATOM     13  C   UNL     1       1.261  -2.659   2.467  0.00  0.00    +0.164 C 
ATOM     14  O   UNL     1       0.111  -2.269   2.499  0.00  0.00    -0.292 OA
ATOM     15  C   UNL     1       1.922  -3.114   3.740  0.00  0.00    +0.086 C 
ATOM     16  C   UNL     1       3.433  -2.884   3.623  0.00  0.00    -0.021 C 
ATOM     17  C   UNL     1       3.941  -3.626   2.385  0.00  0.00    +0.081 C 
ATOM     18  C   UNL     1       3.716  -1.388   3.479  0.00  0.00    +0.012 C 
ATOM     19  C   UNL     1       4.133  -3.422   4.873  0.00  0.00    +0.012 C 
BRANCH   9  20
ATOM     20  N   UNL     1       3.819  -3.560  -2.312  0.00  0.00    -0.328 N 
ATOM     21  H   UNL     1       4.735  -3.876  -2.280  0.00  0.00    +0.145 HD
ATOM     22  H   UNL     1       3.336  -3.559  -3.153  0.00  0.00    +0.145 HD
ENDBRANCH   9  20
BRANCH   8  23
ATOM     23  C   UNL     1       1.230  -2.678  -2.482  0.00  0.00    +0.101 C 
ATOM     24  N   UNL     1       0.680  -2.681  -3.475  0.00  0.00    -0.191 NA
ENDBRANCH   8  23
ENDBRANCH   3   7
BRANCH   1  25
ATOM     25  O   UNL     1      -1.202   2.046   0.016  0.00  0.00    -0.489 OA
BRANCH  25  27
ATOM     26  C   UNL     1      -3.616   2.170   0.014  0.00  0.00    +0.048 C 
ATOM     27  C   UNL     1      -2.391   1.253   0.015  0.00  0.00    +0.226 C 
ENDBRANCH  25  27
ENDBRANCH   1  25
BRANCH   6  28
ATOM     28  O   UNL     1       1.168   3.450   0.012  0.00  0.00    -0.479 OA
BRANCH  28  29
ATOM     29  C   UNL     1       2.434   4.111   0.007  0.00  0.00    +0.325 C 
BRANCH  29  30
ATOM     30  C   UNL     1       2.222   5.603   0.008  0.00  0.00    +0.255 C 
ATOM     31  O   UNL     1       1.097   6.056   0.013  0.00  0.00    -0.272 OA
ATOM     32  N   UNL     1       3.283   6.435   0.004  0.00  0.00    -0.283 N 
ATOM     33  H   UNL     1       4.181   6.075   0.069  0.00  0.00    +0.155 HD
BRANCH  32  34
ATOM     34  C   UNL     1       3.088   7.817  -0.093  0.00  0.00    +0.033 A 
ATOM     35  C   UNL     1       3.998   8.601  -0.789  0.00  0.00    +0.023 A 
ATOM     36  C   UNL     1       3.800   9.964  -0.887  0.00  0.00    +0.002 A 
ATOM     37  C   UNL     1       2.702  10.550  -0.284  0.00  0.00    +0.000 A 
ATOM     38  C   UNL     1       1.797   9.773   0.415  0.00  0.00    +0.002 A 
ATOM     39  C   UNL     1       1.986   8.409   0.512  0.00  0.00    +0.023 A 
ENDBRANCH  32  34
ENDBRANCH  29  30
ENDBRANCH  28  29
ENDBRANCH   6  28
TORSDOF 9
