REMARK  Name = ZINC20154306
REMARK  7 active torsions:
REMARK  status: ('A' for Active; 'I' for Inactive)
REMARK    1  A    between atoms: C_1  and  C_2
REMARK    2  A    between atoms: N_5  and  C_8
REMARK    3  A    between atoms: C_11  and  N_32
REMARK    4  A    between atoms: C_13  and  C_14
REMARK    5  A    between atoms: N_16  and  C_17
REMARK    6  A    between atoms: C_20  and  N_26
REMARK    7  A    between atoms: C_21  and  N_23
REMARK                            x       y       z     vdW  Elec       q    Type
REMARK                         _______ _______ _______ _____ _____    ______ ____
ROOT
ATOM      1  C   UNL     1      -4.965   0.825   0.311  0.00  0.00    +0.250 C 
ATOM      2  O   UNL     1      -6.062   1.347   0.354  0.00  0.00    -0.270 OA
ATOM      3  N   UNL     1      -4.850  -0.513   0.422  0.00  0.00    -0.281 N 
ATOM      4  H   UNL     1      -3.855  -0.979   0.461  0.00  0.00    +0.155 HD
ENDROOT
BRANCH   1  10
ATOM      5  C   UNL     1      -3.879   3.036  -0.089  0.00  0.00    +0.042 A 
ATOM      6  C   UNL     1      -2.735   3.808  -0.252  0.00  0.00    +0.026 A 
ATOM      7  C   UNL     1      -1.489   3.219  -0.184  0.00  0.00    +0.034 A 
ATOM      8  C   UNL     1      -1.368   1.856   0.034  0.00  0.00    +0.127 A 
ATOM      9  C   UNL     1      -2.490   1.074   0.198  0.00  0.00    +0.047 A 
ATOM     10  C   UNL     1      -3.759   1.656   0.138  0.00  0.00    +0.060 A 
BRANCH   5  15
ATOM     11  C   UNL     1      -8.497   6.237  -0.534  0.00  0.00    +0.007 C 
ATOM     12  C   UNL     1      -7.042   5.765  -0.507  0.00  0.00    -0.011 C 
ATOM     13  C   UNL     1      -6.837   4.677  -1.565  0.00  0.00    +0.022 C 
ATOM     14  C   UNL     1      -5.396   4.167  -1.492  0.00  0.00    +0.105 C 
ATOM     15  N   UNL     1      -5.135   3.626  -0.151  0.00  0.00    -0.329 N 
ATOM     16  C   UNL     1      -5.279   4.664   0.877  0.00  0.00    +0.105 C 
ATOM     17  C   UNL     1      -6.717   5.190   0.874  0.00  0.00    +0.022 C 
ENDBRANCH   5  15
BRANCH   8  18
ATOM     18  N   UNL     1      -0.024   1.238   0.098  0.00  0.00    +0.056 N 
ATOM     19  O   UNL     1       0.087   0.041   0.295  0.00  0.00    -0.126 OA
ATOM     20  O   UNL     1       0.970   1.925  -0.051  0.00  0.00    -0.126 OA
ENDBRANCH   8  18
ENDBRANCH   1  10
BRANCH   3  21
ATOM     21  C   UNL     1      -6.000  -1.311   0.489  0.00  0.00    +0.036 A 
ATOM     22  C   UNL     1      -7.129  -0.848   1.151  0.00  0.00    +0.025 A 
ATOM     23  C   UNL     1      -8.264  -1.632   1.212  0.00  0.00    +0.027 A 
ATOM     24  C   UNL     1      -8.272  -2.889   0.620  0.00  0.00    +0.060 A 
ATOM     25  C   UNL     1      -7.141  -3.354  -0.037  0.00  0.00    +0.149 A 
ATOM     26  C   UNL     1      -6.008  -2.567  -0.102  0.00  0.00    +0.058 A 
BRANCH  24  27
ATOM     27  N   UNL     1      -9.420  -3.686   0.687  0.00  0.00    -0.332 N 
ATOM     28  C   UNL     1      -9.792  -3.957   2.082  0.00  0.00    +0.086 C 
ATOM     29  C   UNL     1     -11.002  -4.894   2.112  0.00  0.00    -0.063 C 
ATOM     30  N   UNL     1     -12.117  -4.274   1.383  0.00  0.00    +0.381 N 
ATOM     31  C   UNL     1     -11.745  -4.002  -0.012  0.00  0.00    -0.063 C 
ATOM     32  C   UNL     1     -10.536  -3.065  -0.041  0.00  0.00    +0.086 C 
ATOM     33  H   UNL     1     -12.984  -4.951   1.393  0.00  0.00    -0.086 HD
ATOM     34  H   UNL     1     -12.389  -3.324   1.869  0.00  0.00    -0.086 HD
ENDBRANCH  24  27
BRANCH  25  35
ATOM     35  N   UNL     1      -7.150  -4.693  -0.668  0.00  0.00    +0.058 N 
ATOM     36  O   UNL     1      -6.130  -5.140  -1.162  0.00  0.00    -0.126 OA
ATOM     37  O   UNL     1      -8.177  -5.348  -0.693  0.00  0.00    -0.126 OA
ENDBRANCH  25  35
ENDBRANCH   3  21
TORSDOF 6
