REMARK  Name = ZINC64058195
REMARK  9 active torsions:
REMARK  status: ('A' for Active; 'I' for Inactive)
REMARK    1  A    between atoms: C_1  and  O_2
REMARK    2  A    between atoms: O_2  and  C_3
REMARK    3  A    between atoms: C_3  and  C_5
REMARK    4  A    between atoms: N_7  and  C_10
REMARK    5  A    between atoms: C_13  and  C_22
REMARK    6  A    between atoms: N_15  and  C_17
REMARK    7  A    between atoms: N_24  and  C_25
REMARK    8  A    between atoms: C_25  and  C_26
REMARK    9  A    between atoms: C_26  and  C_27
REMARK                            x       y       z     vdW  Elec       q    Type
REMARK                         _______ _______ _______ _____ _____    ______ ____
ROOT
ATOM      1  C   UNL     1      -2.989  -5.186   0.291  0.00  0.00    +0.074 C 
ATOM      2  C   UNL     1      -2.462  -5.979  -0.934  0.00  0.00    +0.016 C 
ATOM      3  C   UNL     1      -2.937  -7.419  -0.647  0.00  0.00    +0.021 C 
ATOM      4  N   UNL     1      -3.161  -7.523   0.807  0.00  0.00    +0.390 N 
ATOM      5  C   UNL     1      -2.826  -6.224   1.430  0.00  0.00    -0.053 C 
ATOM      6  H   UNL     1      -4.129  -7.744   0.986  0.00  0.00    -0.080 HD
ENDROOT
BRANCH   1   9
ATOM      7  C   UNL     1      -1.577  -1.895   0.861  0.00  0.00    +0.142 C 
ATOM      8  C   UNL     1      -2.627  -2.710   0.619  0.00  0.00    +0.121 C 
ATOM      9  N   UNL     1      -2.166  -4.000   0.541  0.00  0.00    -0.255 N 
ATOM     10  N   UNL     1      -0.815  -3.996   0.736  0.00  0.00    -0.160 NA
ATOM     11  N   UNL     1      -0.420  -2.702   0.931  0.00  0.00    -0.257 N 
ATOM     12  H   UNL     1      -0.335  -4.402  -0.053  0.00  0.00    +0.168 HD
ATOM     13  H   UNL     1       0.486  -2.395   1.091  0.00  0.00    +0.168 HD
BRANCH   7  14
ATOM     14  C   UNL     1      -1.627  -0.487   1.010  0.00  0.00    +0.355 C 
ATOM     15  O   UNL     1      -2.692   0.097   0.926  0.00  0.00    -0.243 OA
BRANCH  14  17
ATOM     16  C   UNL     1      -0.617   1.624   1.384  0.00  0.00    +0.280 C 
ATOM     17  O   UNL     1      -0.493   0.207   1.244  0.00  0.00    -0.464 OA
ENDBRANCH  14  17
ENDBRANCH   7  14
ENDBRANCH   1   9
BRANCH   4  18
ATOM     18  C   UNL     1      -2.303  -8.576   1.366  0.00  0.00    -0.067 C 
ATOM     19  C   UNL     1      -2.765  -9.958   0.859  0.00  0.00    -0.015 C 
ATOM     20  C   UNL     1      -2.558 -10.896   2.074  0.00  0.00    -0.002 C 
ATOM     21  C   UNL     1      -2.969 -10.002   3.270  0.00  0.00    -0.002 C 
ATOM     22  C   UNL     1      -2.433  -8.604   2.899  0.00  0.00    -0.015 C 
ENDBRANCH   4  18
BRANCH   3  23
ATOM     23  C   UNL     1      -1.880  -8.403  -1.077  0.00  0.00    +0.200 C 
ATOM     24  O   UNL     1      -0.746  -8.296  -0.660  0.00  0.00    -0.278 OA
ATOM     25  N   UNL     1      -2.194  -9.401  -1.926  0.00  0.00    -0.316 N 
ATOM     26  H   UNL     1      -3.101  -9.487  -2.260  0.00  0.00    +0.149 HD
BRANCH  25  27
ATOM     27  C   UNL     1      -1.167 -10.358  -2.344  0.00  0.00    +0.108 C 
BRANCH  27  28
ATOM     28  C   UNL     1      -1.782 -11.381  -3.301  0.00  0.00    +0.052 C 
BRANCH  28  29
ATOM     29  C   UNL     1      -0.724 -12.365  -3.732  0.00  0.00    -0.040 C 
ATOM     30  C   UNL     1      -0.469 -13.575  -3.185  0.00  0.00    -0.001 A 
ATOM     31  C   UNL     1      -1.075 -14.310  -2.067  0.00  0.00    +0.010 A 
ATOM     32  C   UNL     1      -0.592 -15.531  -1.746  0.00  0.00    +0.001 A 
ATOM     33  C   UNL     1       0.471 -16.113  -2.452  0.00  0.00    +0.002 A 
ATOM     34  C   UNL     1       1.079 -15.500  -3.490  0.00  0.00    +0.026 A 
ATOM     35  C   UNL     1       0.651 -14.211  -3.914  0.00  0.00    +0.043 A 
ATOM     36  N   UNL     1       1.072 -13.424  -4.875  0.00  0.00    -0.380 N 
ATOM     37  C   UNL     1       0.262 -12.202  -4.867  0.00  0.00    +0.144 C 
ATOM     38  H   UNL     1       1.796 -13.620  -5.490  0.00  0.00    +0.160 HD
ENDBRANCH  28  29
ENDBRANCH  27  28
ENDBRANCH  25  27
ENDBRANCH   3  23
TORSDOF 8
