REMARK  Name = ZINC08773786
REMARK  10 active torsions:
REMARK  status: ('A' for Active; 'I' for Inactive)
REMARK    1  A    between atoms: C_1  and  C_2
REMARK    2  A    between atoms: C_2  and  O_3
REMARK    3  A    between atoms: O_3  and  C_4
REMARK    4  A    between atoms: C_4  and  C_6
REMARK    5  A    between atoms: C_9  and  N_12
REMARK    6  A    between atoms: C_13  and  C_15
REMARK    7  A    between atoms: C_15  and  C_16
REMARK    8  A    between atoms: N_20  and  C_32
REMARK    9  A    between atoms: N_23  and  C_24
REMARK   10  A    between atoms: C_24  and  C_25
REMARK                            x       y       z     vdW  Elec       q    Type
REMARK                         _______ _______ _______ _____ _____    ______ ____
ROOT
ATOM      1  C   UNL     1      -2.597  -1.025   2.525  0.00  0.00    +0.173 C 
ATOM      2  C   UNL     1      -3.388  -0.686   3.773  0.00  0.00    +0.248 C 
ATOM      3  O   UNL     1      -3.294  -1.207   4.863  0.00  0.00    -0.273 OA
ATOM      4  N   UNL     1      -4.221   0.311   3.416  0.00  0.00    -0.193 N 
ATOM      5  C   UNL     1      -4.064   0.649   2.131  0.00  0.00    +0.317 C 
ATOM      6  O   UNL     1      -4.704   1.523   1.579  0.00  0.00    -0.252 OA
ATOM      7  N   UNL     1      -3.120  -0.086   1.518  0.00  0.00    -0.269 N 
ENDROOT
BRANCH   4   8
ATOM      8  C   UNL     1      -5.138   0.920   4.285  0.00  0.00    +0.046 A 
ATOM      9  C   UNL     1      -5.145   0.588   5.633  0.00  0.00    +0.025 A 
ATOM     10  C   UNL     1      -6.045   1.194   6.487  0.00  0.00    +0.022 A 
ATOM     11  C   UNL     1      -6.947   2.123   5.999  0.00  0.00    +0.041 A 
ATOM     12  C   UNL     1      -6.946   2.451   4.655  0.00  0.00    +0.022 A 
ATOM     13  C   UNL     1      -6.044   1.852   3.797  0.00  0.00    +0.025 A 
ATOM     14 CL   UNL     1      -8.081   2.878   7.075  0.00  0.00    -0.084 Cl
ENDBRANCH   4   8
BRANCH   1  15
ATOM     15  C   UNL     1      -1.103  -0.789   2.756  0.00  0.00    +0.128 C 
BRANCH  15  17
ATOM     16  N   UNL     1       0.965  -0.900   1.403  0.00  0.00    -0.285 N 
ATOM     17  C   UNL     1      -0.328  -1.252   1.550  0.00  0.00    +0.219 C 
ATOM     18  O   UNL     1      -0.868  -1.940   0.710  0.00  0.00    -0.275 OA
ATOM     19  H   UNL     1       1.424  -0.433   2.119  0.00  0.00    +0.155 HD
BRANCH  16  23
ATOM     20  C   UNL     1       2.987  -1.819  -2.120  0.00  0.00    +0.059 A 
ATOM     21  C   UNL     1       3.666  -1.837  -0.898  0.00  0.00    +0.017 A 
ATOM     22  C   UNL     1       2.994  -1.533   0.265  0.00  0.00    +0.024 A 
ATOM     23  C   UNL     1       1.642  -1.208   0.224  0.00  0.00    +0.033 A 
ATOM     24  C   UNL     1       0.962  -1.195  -0.990  0.00  0.00    +0.024 A 
ATOM     25  C   UNL     1       1.629  -1.493  -2.157  0.00  0.00    +0.017 A 
BRANCH  20  26
ATOM     26  C   UNL     1       3.703  -2.145  -3.367  0.00  0.00    +0.339 C 
ATOM     27  O   UNL     1       4.884  -2.430  -3.333  0.00  0.00    -0.245 OA
BRANCH  26  28
ATOM     28  O   UNL     1       3.048  -2.128  -4.545  0.00  0.00    -0.461 OA
BRANCH  28  30
ATOM     29  C   UNL     1       2.909  -2.387  -6.962  0.00  0.00    +0.048 C 
ATOM     30  C   UNL     1       3.816  -2.459  -5.731  0.00  0.00    +0.229 C 
ENDBRANCH  28  30
ENDBRANCH  26  28
ENDBRANCH  20  26
ENDBRANCH  16  23
ENDBRANCH  15  17
ENDBRANCH   1  15
BRANCH   7  31
ATOM     31  C   UNL     1      -2.698   0.021   0.119  0.00  0.00    +0.145 C 
BRANCH  31  32
ATOM     32  C   UNL     1      -3.597  -0.827  -0.744  0.00  0.00    -0.030 A 
ATOM     33  C   UNL     1      -4.798  -0.318  -1.201  0.00  0.00    +0.006 A 
ATOM     34  C   UNL     1      -5.619  -1.093  -1.997  0.00  0.00    +0.020 A 
ATOM     35  C   UNL     1      -5.243  -2.382  -2.331  0.00  0.00    +0.041 A 
ATOM     36  C   UNL     1      -4.043  -2.893  -1.869  0.00  0.00    +0.020 A 
ATOM     37  C   UNL     1      -3.222  -2.117  -1.073  0.00  0.00    +0.006 A 
ATOM     38 CL   UNL     1      -6.274  -3.356  -3.331  0.00  0.00    -0.084 Cl
ENDBRANCH  31  32
ENDBRANCH   7  31
TORSDOF 9
