REMARK  Name = ZINC08870367
REMARK  10 active torsions:
REMARK  status: ('A' for Active; 'I' for Inactive)
REMARK    1  A    between atoms: C_1  and  C_2
REMARK    2  A    between atoms: C_7  and  N_8
REMARK    3  A    between atoms: N_8  and  S_9
REMARK    4  A    between atoms: S_9  and  C_12
REMARK    5  A    between atoms: C_25  and  C_29
REMARK    6  A    between atoms: C_26  and  C_28
REMARK    7  A    between atoms: C_29  and  O_31
REMARK    8  A    between atoms: O_31  and  C_32
REMARK    9  A    between atoms: C_32  and  C_33
REMARK   10  A    between atoms: C_32  and  C_34
REMARK                            x       y       z     vdW  Elec       q    Type
REMARK                         _______ _______ _______ _____ _____    ______ ____
ROOT
ATOM      1  N   UNL     1       3.573  -0.636   0.022  0.00  0.00    -0.216 N 
ATOM      2  H   UNL     1       3.606  -1.445  -0.511  0.00  0.00    +0.174 HD
ENDROOT
BRANCH   1   9
ATOM      3  C   UNL     1       1.251  -2.244   0.314  0.00  0.00    +0.046 C 
ATOM      4  C   UNL     1       1.187  -0.741   0.391  0.00  0.00    -0.025 A 
ATOM      5  C   UNL     1      -0.024  -0.119   0.608  0.00  0.00    +0.052 A 
ATOM      6  C   UNL     1      -0.092   1.267   0.681  0.00  0.00    +0.136 A 
ATOM      7  C   UNL     1       1.081   2.022   0.531  0.00  0.00    +0.036 A 
ATOM      8  C   UNL     1       2.300   1.391   0.312  0.00  0.00    +0.037 A 
ATOM      9  C   UNL     1       2.351   0.009   0.242  0.00  0.00    +0.052 A 
ATOM     10  C   UNL     1       0.660   3.432   0.659  0.00  0.00    +0.107 A 
ATOM     11  C   UNL     1      -0.686   3.398   0.868  0.00  0.00    +0.117 A 
ATOM     12  O   UNL     1      -1.112   2.130   0.874  0.00  0.00    -0.459 OA
ATOM     13  C   UNL     1      -1.564   4.608   1.058  0.00  0.00    +0.087 C 
BRANCH  10  14
ATOM     14  C   UNL     1       1.514   4.624   0.578  0.00  0.00    +0.343 C 
ATOM     15  O   UNL     1       1.706   5.163  -0.495  0.00  0.00    -0.245 OA
BRANCH  14  16
ATOM     16  O   UNL     1       2.087   5.120   1.693  0.00  0.00    -0.458 OA
BRANCH  16  17
ATOM     17  C   UNL     1       2.919   6.300   1.538  0.00  0.00    +0.171 C 
ATOM     18  C   UNL     1       2.060   7.555   1.700  0.00  0.00    +0.052 C 
ATOM     19  C   UNL     1       4.018   6.292   2.602  0.00  0.00    +0.052 C 
ENDBRANCH  16  17
ENDBRANCH  14  16
ENDBRANCH  10  14
ENDBRANCH   1   9
BRANCH   1  20
ATOM     20  S   UNL     1       4.964  -0.016   0.673  0.00  0.00    +0.073 S 
ATOM     21  O   UNL     1       4.672   0.306   2.025  0.00  0.00    -0.150 OA
ATOM     22  O   UNL     1       6.013  -0.905   0.311  0.00  0.00    -0.150 OA
BRANCH  20  23
ATOM     23  C   UNL     1       5.290   1.508  -0.149  0.00  0.00    +0.116 A 
ATOM     24  C   UNL     1       5.287   2.690   0.541  0.00  0.00    +0.031 A 
ATOM     25  C   UNL     1       5.544   3.924  -0.055  0.00  0.00    +0.026 A 
ATOM     26  C   UNL     1       5.807   3.995  -1.410  0.00  0.00    +0.042 A 
ATOM     27  C   UNL     1       5.801   2.787  -2.100  0.00  0.00    +0.017 A 
ATOM     28  C   UNL     1       5.553   1.538  -1.529  0.00  0.00    +0.011 A 
ATOM     29  C   UNL     1       5.589   0.423  -2.383  0.00  0.00    +0.010 A 
ATOM     30  C   UNL     1       5.860   0.614  -3.711  0.00  0.00    +0.001 A 
ATOM     31  C   UNL     1       6.106   1.870  -4.266  0.00  0.00    +0.014 A 
ATOM     32  C   UNL     1       6.080   2.993  -3.459  0.00  0.00    +0.047 A 
ATOM     33  C   UNL     1       6.265   4.445  -3.573  0.00  0.00    +0.249 C 
ATOM     34  O   UNL     1       6.526   5.055  -4.593  0.00  0.00    -0.270 OA
ATOM     35  N   UNL     1       6.094   4.988  -2.339  0.00  0.00    -0.281 N 
ATOM     36  H   UNL     1       6.162   5.934  -2.135  0.00  0.00    +0.155 HD
ENDBRANCH  20  23
ENDBRANCH   1  20
TORSDOF 6
