REMARK  Name = ZINC34782864
REMARK  13 active torsions:
REMARK  status: ('A' for Active; 'I' for Inactive)
REMARK    1  A    between atoms: C_1  and  C_2
REMARK    2  A    between atoms: C_2  and  N_3
REMARK    3  A    between atoms: N_3  and  C_4
REMARK    4  A    between atoms: C_4  and  C_5
REMARK    5  A    between atoms: C_6  and  C_8
REMARK    6  A    between atoms: C_8  and  N_9
REMARK    7  A    between atoms: C_13  and  C_35
REMARK    8  A    between atoms: C_14  and  C_31
REMARK    9  A    between atoms: N_17  and  C_20
REMARK   10  A    between atoms: C_20  and  C_21
REMARK   11  A    between atoms: N_23  and  C_24
REMARK   12  A    between atoms: C_24  and  C_25
REMARK   13  A    between atoms: N_33  and  N_34
REMARK                            x       y       z     vdW  Elec       q    Type
REMARK                         _______ _______ _______ _____ _____    ______ ____
ROOT
ATOM      1  N   UNL     1       4.196  -1.337   2.056  0.00  0.00    -0.251 N 
ATOM      2  C   UNL     1       4.647  -2.507   1.571  0.00  0.00    +0.266 A 
ATOM      3  O   UNL     1       3.881  -3.435   1.389  0.00  0.00    -0.267 OA
ATOM      4  C   UNL     1       6.090  -2.652   1.260  0.00  0.00    +0.074 A 
ATOM      5  C   UNL     1       6.767  -3.768   0.752  0.00  0.00    -0.017 A 
ATOM      6  C   UNL     1       8.111  -3.643   0.551  0.00  0.00    +0.081 A 
ATOM      7  S   UNL     1       8.431  -1.969   1.071  0.00  0.00    -0.065 S 
ATOM      8  C   UNL     1       6.881  -1.521   1.507  0.00  0.00    +0.098 A 
ATOM      9  N   UNL     1       6.334  -0.371   2.003  0.00  0.00    -0.278 N 
ATOM     10  C   UNL     1       5.015  -0.293   2.263  0.00  0.00    +0.334 A 
ATOM     11  O   UNL     1       4.556   0.745   2.699  0.00  0.00    -0.246 OA
ATOM     12  C   UNL     1       6.043  -5.052   0.441  0.00  0.00    +0.046 C 
ENDROOT
BRANCH   6  13
ATOM     13  C   UNL     1       9.056  -4.637   0.037  0.00  0.00    +0.264 C 
ATOM     14  O   UNL     1       8.663  -5.746  -0.274  0.00  0.00    -0.268 OA
ATOM     15  N   UNL     1      10.361  -4.324  -0.091  0.00  0.00    -0.249 N 
ATOM     16  H   UNL     1      10.674  -3.440   0.157  0.00  0.00    +0.169 HD
BRANCH  15  17
ATOM     17  N   UNL     1      11.242  -5.251  -0.570  0.00  0.00    -0.254 NA
ATOM     18  H   UNL     1      12.177  -4.875  -0.610  0.00  0.00    +0.140 HD
ATOM     19  H   UNL     1      11.215  -6.095  -0.018  0.00  0.00    +0.140 HD
ENDBRANCH  15  17
ENDBRANCH   6  13
BRANCH   1  20
ATOM     20  C   UNL     1       2.771  -1.195   2.363  0.00  0.00    +0.225 C 
BRANCH  20  22
ATOM     21  N   UNL     1       0.711  -0.489   1.189  0.00  0.00    -0.301 N 
ATOM     22  C   UNL     1       2.042  -0.696   1.142  0.00  0.00    +0.236 C 
ATOM     23  O   UNL     1       2.653  -0.480   0.117  0.00  0.00    -0.274 OA
BRANCH  21  25
ATOM     24  C   UNL     1      -0.019   1.526   0.010  0.00  0.00    +0.024 C 
ATOM     25  C   UNL     1       0.002  -0.004   0.002  0.00  0.00    +0.104 C 
ENDBRANCH  21  25
BRANCH  21  26
ATOM     26  C   UNL     1      -0.028  -0.750   2.427  0.00  0.00    +0.104 C 
ATOM     27  C   UNL     1      -0.511  -2.202   2.437  0.00  0.00    +0.024 C 
ENDBRANCH  21  26
ENDBRANCH  20  22
ENDBRANCH   1  20
BRANCH   9  28
ATOM     28  C   UNL     1       7.190   0.791   2.249  0.00  0.00    +0.223 C 
BRANCH  28  29
ATOM     29  C   UNL     1       7.244   1.647   1.010  0.00  0.00    +0.233 C 
ATOM     30  O   UNL     1       6.628   1.318   0.018  0.00  0.00    -0.274 OA
ATOM     31  N   UNL     1       7.978   2.777   1.003  0.00  0.00    -0.310 N 
ATOM     32  H   UNL     1       8.471   3.041   1.796  0.00  0.00    +0.149 HD
BRANCH  31  33
ATOM     33  C   UNL     1       8.030   3.609  -0.202  0.00  0.00    +0.139 C 
BRANCH  33  34
ATOM     34  C   UNL     1       8.911   4.805   0.051  0.00  0.00    -0.030 A 
ATOM     35  C   UNL     1       8.367   5.970   0.558  0.00  0.00    +0.005 A 
ATOM     36  C   UNL     1       9.175   7.067   0.790  0.00  0.00    +0.000 A 
ATOM     37  C   UNL     1      10.528   6.999   0.516  0.00  0.00    +0.000 A 
ATOM     38  C   UNL     1      11.073   5.834   0.010  0.00  0.00    +0.000 A 
ATOM     39  C   UNL     1      10.265   4.735  -0.218  0.00  0.00    +0.005 A 
ENDBRANCH  33  34
ENDBRANCH  31  33
ENDBRANCH  28  29
ENDBRANCH   9  28
TORSDOF 10
