REMARK  Name = ZINC37425955
REMARK  13 active torsions:
REMARK  status: ('A' for Active; 'I' for Inactive)
REMARK    1  A    between atoms: C_1  and  C_2
REMARK    2  A    between atoms: C_2  and  C_3
REMARK    3  A    between atoms: C_2  and  C_4
REMARK    4  A    between atoms: C_2  and  C_5
REMARK    5  A    between atoms: N_8  and  C_10
REMARK    6  A    between atoms: N_17  and  C_29
REMARK    7  A    between atoms: C_22  and  C_24
REMARK    8  A    between atoms: C_29  and  C_30
REMARK    9  A    between atoms: N_32  and  C_33
REMARK   10  A    between atoms: C_33  and  C_34
REMARK   11  A    between atoms: C_34  and  N_35
REMARK   12  A    between atoms: N_35  and  C_36
REMARK   13  A    between atoms: N_35  and  C_37
REMARK                            x       y       z     vdW  Elec       q    Type
REMARK                         _______ _______ _______ _____ _____    ______ ____
ROOT
ATOM      1  C   UNL     1       0.655   0.038  -1.434  0.00  0.00    +0.075 A 
ATOM      2  C   UNL     1      -0.038  -0.241  -2.613  0.00  0.00    +0.034 A 
ATOM      3  C   UNL     1       0.685   0.251  -3.646  0.00  0.00    +0.136 A 
ATOM      4  N   UNL     1       1.801   0.829  -3.142  0.00  0.00    -0.218 N 
ATOM      5  N   UNL     1       1.754   0.683  -1.746  0.00  0.00    -0.169 NA
ATOM      6  N   UNL     1       0.298   0.146  -4.991  0.00  0.00    -0.246 N 
ATOM      7  C   UNL     1      -0.094  -1.047  -5.450  0.00  0.00    +0.231 C 
ATOM      8  O   UNL     1      -0.713  -1.120  -6.490  0.00  0.00    -0.274 OA
ATOM      9  C   UNL     1       0.229  -2.295  -4.684  0.00  0.00    +0.166 C 
ATOM     10  S   UNL     1      -1.048  -2.628  -3.425  0.00  0.00    -0.138 S 
ATOM     11  C   UNL     1      -1.357  -0.956  -2.750  0.00  0.00    +0.118 C 
ENDROOT
BRANCH   4  12
ATOM     12  C   UNL     1       2.814   1.461  -3.877  0.00  0.00    +0.068 A 
ATOM     13  C   UNL     1       3.280   0.889  -5.053  0.00  0.00    +0.030 A 
ATOM     14  C   UNL     1       4.277   1.513  -5.776  0.00  0.00    +0.040 A 
ATOM     15  C   UNL     1       4.814   2.708  -5.328  0.00  0.00    +0.124 A 
ATOM     16  C   UNL     1       4.351   3.281  -4.155  0.00  0.00    +0.040 A 
ATOM     17  C   UNL     1       3.349   2.662  -3.432  0.00  0.00    +0.030 A 
ATOM     18  F   UNL     1       5.790   3.317  -6.036  0.00  0.00    -0.205 F 
ENDBRANCH   4  12
BRANCH  11  19
ATOM     19  C   UNL     1      -2.014  -1.069  -1.399  0.00  0.00    +0.007 A 
ATOM     20  C   UNL     1      -1.798  -1.980  -0.418  0.00  0.00    +0.012 A 
ATOM     21  C   UNL     1      -2.525  -1.888   0.754  0.00  0.00    +0.008 A 
ATOM     22  C   UNL     1      -3.432  -0.890   0.888  0.00  0.00    +0.045 A 
ATOM     23  S   UNL     1      -3.273  -0.034  -0.670  0.00  0.00    -0.100 S 
ENDBRANCH  11  19
BRANCH   1  25
ATOM     24  C   UNL     1       1.177   0.277   0.978  0.00  0.00    +0.017 C 
ATOM     25  C   UNL     1       0.213  -0.332  -0.042  0.00  0.00    +0.007 C 
ATOM     26  C   UNL     1       0.209  -1.855   0.105  0.00  0.00    +0.017 C 
ATOM     27  C   UNL     1      -1.198   0.208   0.206  0.00  0.00    +0.017 C 
ENDBRANCH   1  25
BRANCH   6  28
ATOM     28  C   UNL     1       0.323   1.316  -5.871  0.00  0.00    +0.210 C 
BRANCH  28  29
ATOM     29  C   UNL     1      -0.973   2.074  -5.736  0.00  0.00    +0.231 C 
ATOM     30  O   UNL     1      -1.794   1.729  -4.913  0.00  0.00    -0.274 OA
ATOM     31  N   UNL     1      -1.218   3.135  -6.529  0.00  0.00    -0.316 N 
ATOM     32  H   UNL     1      -0.595   3.368  -7.236  0.00  0.00    +0.149 HD
BRANCH  31  33
ATOM     33  C   UNL     1      -2.426   3.939  -6.325  0.00  0.00    +0.085 C 
BRANCH  33  34
ATOM     34  C   UNL     1      -2.527   4.997  -7.425  0.00  0.00    -0.061 C 
BRANCH  34  35
ATOM     35  N   UNL     1      -3.739   5.802  -7.220  0.00  0.00    +0.377 N 
ATOM     36  C   UNL     1      -3.619   6.557  -5.965  0.00  0.00    -0.097 C 
ATOM     37  C   UNL     1      -3.900   6.738  -8.341  0.00  0.00    -0.097 C 
ATOM     38  H   UNL     1      -4.543   5.194  -7.171  0.00  0.00    -0.083 HD
ENDBRANCH  34  35
ENDBRANCH  33  34
ENDBRANCH  31  33
ENDBRANCH  28  29
ENDBRANCH   6  28
TORSDOF 8
