REMARK  Name = ZINC64480277
REMARK  7 active torsions:
REMARK  status: ('A' for Active; 'I' for Inactive)
REMARK    1  A    between atoms: C_1  and  C_2
REMARK    2  A    between atoms: N_4  and  C_5
REMARK    3  A    between atoms: C_8  and  N_11
REMARK    4  A    between atoms: C_19  and  C_25
REMARK    5  A    between atoms: N_27  and  C_28
REMARK    6  A    between atoms: C_28  and  C_29
REMARK    7  A    between atoms: C_29  and  C_30
REMARK                            x       y       z     vdW  Elec       q    Type
REMARK                         _______ _______ _______ _____ _____    ______ ____
ROOT
ATOM      1  N   UNL     1      -0.859  -6.247   0.336  0.00  0.00    -0.268 N 
ATOM      2  C   UNL     1      -2.033  -7.175   0.334  0.00  0.00    +0.153 C 
ATOM      3  C   UNL     1      -1.422  -8.445  -0.171  0.00  0.00    +0.116 C 
ATOM      4  C   UNL     1      -1.071  -8.385  -1.646  0.00  0.00    +0.008 C 
ATOM      5  C   UNL     1      -0.556  -9.569  -1.942  0.00  0.00    +0.004 C 
ATOM      6  C   UNL     1      -0.537 -10.337  -0.614  0.00  0.00    +0.155 C 
ATOM      7  O   UNL     1      -1.753  -9.796   0.052  0.00  0.00    -0.359 OA
ATOM      8  C   UNL     1       0.636  -9.625   0.165  0.00  0.00    +0.122 C 
ATOM      9  C   UNL     1      -0.084  -8.375   0.670  0.00  0.00    +0.127 C 
ATOM     10  C   UNL     1       0.304  -6.974   0.424  0.00  0.00    +0.227 C 
ATOM     11  O   UNL     1       1.433  -6.544   0.321  0.00  0.00    -0.275 OA
ENDROOT
BRANCH   1  15
ATOM     12  C   UNL     1      -1.081  -2.090   0.092  0.00  0.00    +0.033 A 
ATOM     13  C   UNL     1       0.156  -2.715   0.178  0.00  0.00    +0.025 A 
ATOM     14  C   UNL     1       0.229  -4.091   0.259  0.00  0.00    +0.025 A 
ATOM     15  C   UNL     1      -0.934  -4.851   0.254  0.00  0.00    +0.036 A 
ATOM     16  C   UNL     1      -2.171  -4.225   0.168  0.00  0.00    +0.025 A 
ATOM     17  C   UNL     1      -2.244  -2.849   0.093  0.00  0.00    +0.025 A 
BRANCH  12  21
ATOM     18  C   UNL     1      -2.194   1.470   0.609  0.00  0.00    +0.109 C 
ATOM     19  C   UNL     1      -2.169  -0.037   0.608  0.00  0.00    +0.214 C 
ATOM     20  O   UNL     1      -3.061  -0.658   1.146  0.00  0.00    -0.276 OA
ATOM     21  N   UNL     1      -1.156  -0.694   0.009  0.00  0.00    -0.286 N 
ATOM     22  H   UNL     1      -0.478  -0.200  -0.478  0.00  0.00    +0.155 HD
ENDBRANCH  12  21
ENDBRANCH   1  15
BRANCH   8  23
ATOM     23  C   UNL     1       1.771  -9.280  -0.765  0.00  0.00    +0.220 C 
ATOM     24  O   UNL     1       2.095  -8.122  -0.922  0.00  0.00    -0.275 OA
ATOM     25  N   UNL     1       2.425 -10.258  -1.422  0.00  0.00    -0.315 N 
ATOM     26  H   UNL     1       2.166 -11.184  -1.296  0.00  0.00    +0.149 HD
BRANCH  25  27
ATOM     27  C   UNL     1       3.529  -9.923  -2.325  0.00  0.00    +0.108 C 
BRANCH  27  28
ATOM     28  C   UNL     1       4.095 -11.205  -2.938  0.00  0.00    +0.052 C 
BRANCH  28  29
ATOM     29  C   UNL     1       5.229 -10.860  -3.867  0.00  0.00    -0.040 C 
ATOM     30  C   UNL     1       6.549 -10.855  -3.571  0.00  0.00    -0.001 A 
ATOM     31  C   UNL     1       7.295 -11.155  -2.343  0.00  0.00    +0.010 A 
ATOM     32  C   UNL     1       8.644 -11.059  -2.354  0.00  0.00    +0.001 A 
ATOM     33  C   UNL     1       9.346 -10.680  -3.507  0.00  0.00    +0.002 A 
ATOM     34  C   UNL     1       8.731 -10.388  -4.672  0.00  0.00    +0.026 A 
ATOM     35  C   UNL     1       7.314 -10.457  -4.775  0.00  0.00    +0.043 A 
ATOM     36  N   UNL     1       6.499 -10.225  -5.775  0.00  0.00    -0.380 N 
ATOM     37  C   UNL     1       5.124 -10.457  -5.321  0.00  0.00    +0.144 C 
ATOM     38  H   UNL     1       6.762  -9.951  -6.668  0.00  0.00    +0.160 HD
ENDBRANCH  28  29
ENDBRANCH  27  28
ENDBRANCH  25  27
ENDBRANCH   8  23
TORSDOF 6
