REMARK  Name = ZINC20323511
REMARK  7 active torsions:
REMARK  status: ('A' for Active; 'I' for Inactive)
REMARK    1  A    between atoms: C_1  and  C_2
REMARK    2  A    between atoms: C_5  and  S_8
REMARK    3  A    between atoms: S_8  and  N_11
REMARK    4  A    between atoms: N_11  and  N_12
REMARK    5  A    between atoms: C_14  and  C_23
REMARK    6  A    between atoms: N_25  and  C_26
REMARK    7  A    between atoms: C_31  and  C_32
REMARK                            x       y       z     vdW  Elec       q    Type
REMARK                         _______ _______ _______ _____ _____    ______ ____
ROOT
ATOM      1  N   UNL     1      -2.173   1.226   2.965  0.00  0.00    -0.260 N 
ATOM      2  C   UNL     1      -2.665   1.027   4.155  0.00  0.00    +0.225 A 
ATOM      3  C   UNL     1      -3.197   2.152   4.960  0.00  0.00    +0.099 A 
ATOM      4  C   UNL     1      -4.168   1.853   5.889  0.00  0.00    +0.030 A 
ATOM      5  C   UNL     1      -4.586   0.451   6.011  0.00  0.00    +0.018 A 
ATOM      6  C   UNL     1      -5.736   0.108   6.729  0.00  0.00    +0.011 A 
ATOM      7  C   UNL     1      -6.111  -1.214   6.825  0.00  0.00    +0.001 A 
ATOM      8  C   UNL     1      -5.356  -2.203   6.214  0.00  0.00    +0.004 A 
ATOM      9  C   UNL     1      -4.216  -1.878   5.502  0.00  0.00    +0.047 A 
ATOM     10  C   UNL     1      -3.821  -0.555   5.396  0.00  0.00    +0.137 A 
ATOM     11  O   UNL     1      -2.702  -0.223   4.703  0.00  0.00    -0.437 OA
ATOM     12  H   UNL     1      -2.229   2.224   2.506  0.00  0.00    +0.189 HD
ENDROOT
BRANCH   3  13
ATOM     13  C   UNL     1      -2.711   3.529   4.769  0.00  0.00    +0.253 C 
ATOM     14  O   UNL     1      -1.933   3.779   3.868  0.00  0.00    -0.270 OA
ATOM     15  N   UNL     1      -3.128   4.511   5.592  0.00  0.00    -0.281 N 
ATOM     16  H   UNL     1      -3.767   4.271   6.455  0.00  0.00    +0.155 HD
BRANCH  15  17
ATOM     17  C   UNL     1      -2.750   5.835   5.349  0.00  0.00    +0.037 A 
ATOM     18  C   UNL     1      -2.322   6.215   4.083  0.00  0.00    +0.023 A 
ATOM     19  C   UNL     1      -1.949   7.523   3.847  0.00  0.00    +0.002 A 
ATOM     20  C   UNL     1      -2.001   8.454   4.868  0.00  0.00    +0.000 A 
ATOM     21  C   UNL     1      -2.427   8.079   6.129  0.00  0.00    +0.005 A 
ATOM     22  C   UNL     1      -2.806   6.773   6.371  0.00  0.00    -0.029 A 
ATOM     23  C   UNL     1      -3.276   6.366   7.744  0.00  0.00    +0.045 C 
ENDBRANCH  15  17
ENDBRANCH   3  13
BRANCH   1  24
ATOM     24  N   UNL     1      -1.573   0.168   2.270  0.00  0.00    -0.157 N 
ATOM     25  H   UNL     1      -1.588  -0.728   2.642  0.00  0.00    +0.194 HD
BRANCH  24  26
ATOM     26  S   UNL     1      -0.838   0.447   0.812  0.00  0.00    +0.085 S 
ATOM     27  O   UNL     1      -1.791   1.116  -0.002  0.00  0.00    -0.149 OA
ATOM     28  O   UNL     1      -0.230  -0.777   0.424  0.00  0.00    -0.149 OA
BRANCH  26  33
ATOM     29  C   UNL     1       3.648   4.363   1.783  0.00  0.00    +0.044 C 
ATOM     30  C   UNL     1       2.527   3.385   1.544  0.00  0.00    -0.050 A 
ATOM     31  C   UNL     1       2.734   2.033   1.744  0.00  0.00    +0.005 A 
ATOM     32  C   UNL     1       1.706   1.136   1.524  0.00  0.00    +0.029 A 
ATOM     33  C   UNL     1       0.471   1.591   1.099  0.00  0.00    +0.110 A 
ATOM     34  C   UNL     1       0.262   2.943   0.905  0.00  0.00    +0.029 A 
ATOM     35  C   UNL     1       1.290   3.840   1.124  0.00  0.00    +0.005 A 
ENDBRANCH  26  33
ENDBRANCH  24  26
ENDBRANCH   1  24
TORSDOF 5
