REMARK  Name = ZINC13915111
REMARK  9 active torsions:
REMARK  status: ('A' for Active; 'I' for Inactive)
REMARK    1  A    between atoms: C_4  and  C_7
REMARK    2  A    between atoms: C_7  and  N_8
REMARK    3  A    between atoms: C_9  and  C_11
REMARK    4  A    between atoms: C_11  and  O_12
REMARK    5  A    between atoms: O_12  and  C_13
REMARK    6  A    between atoms: C_18  and  C_19
REMARK    7  A    between atoms: N_20  and  N_21
REMARK    8  A    between atoms: C_25  and  S_28
REMARK    9  A    between atoms: N_26  and  N_27
REMARK                            x       y       z     vdW  Elec       q    Type
REMARK                         _______ _______ _______ _____ _____    ______ ____
ROOT
ATOM      1  C   UNL     1       8.508   3.595   0.241  0.00  0.00    +0.130 A 
ATOM      2  C   UNL     1       9.742   3.911   0.784  0.00  0.00    +0.047 A 
ATOM      3  C   UNL     1      10.812   4.199  -0.043  0.00  0.00    +0.019 A 
ATOM      4  C   UNL     1      10.659   4.169  -1.420  0.00  0.00    +0.019 A 
ATOM      5  C   UNL     1       9.438   3.850  -1.978  0.00  0.00    +0.028 A 
ATOM      6  C   UNL     1       8.351   3.558  -1.151  0.00  0.00    +0.037 A 
ATOM      7 BR   UNL     1      12.131   4.565  -2.539  0.00  0.00    -0.050 Br
ENDROOT
BRANCH   6   8
ATOM      8  C   UNL     1       7.043   3.217  -1.740  0.00  0.00    +0.142 C 
ATOM      9  N   UNL     1       6.035   2.945  -0.968  0.00  0.00    -0.187 NA
BRANCH   9  10
ATOM     10  N   UNL     1       4.792   2.621  -1.528  0.00  0.00    -0.204 N 
ATOM     11  C   UNL     1       3.715   2.331  -0.704  0.00  0.00    +0.254 A 
ATOM     12  N   UNL     1       3.727   2.324   0.607  0.00  0.00    -0.109 NA
ATOM     13  N   UNL     1       2.442   1.987   1.051  0.00  0.00    -0.119 NA
ATOM     14  C   UNL     1       1.688   1.790  -0.004  0.00  0.00    +0.207 A 
ATOM     15  N   UNL     1       2.453   2.001  -1.116  0.00  0.00    -0.211 N 
ATOM     16  H   UNL     1       4.685   2.600  -2.492  0.00  0.00    +0.177 HD
BRANCH  15  17
ATOM     17  N   UNL     1       2.033   1.899  -2.412  0.00  0.00    -0.294 N 
ATOM     18  H   UNL     1       1.681   2.783  -2.748  0.00  0.00    +0.163 HD
ATOM     19  H   UNL     1       2.772   1.555  -3.006  0.00  0.00    +0.163 HD
ENDBRANCH  15  17
BRANCH  14  20
ATOM     20  S   UNL     1      -0.016   1.341   0.009  0.00  0.00    -0.102 S 
ATOM     21  H   UNL     1       0.002  -0.004   0.002  0.00  0.00    +0.110 HD
ENDBRANCH  14  20
ENDBRANCH   9  10
ENDBRANCH   6   8
BRANCH   1  22
ATOM     22  O   UNL     1       7.456   3.318   1.054  0.00  0.00    -0.482 OA
BRANCH  22  23
ATOM     23  C   UNL     1       7.691   3.376   2.462  0.00  0.00    +0.324 C 
BRANCH  23  25
ATOM     24  N   UNL     1       6.403   3.034   4.546  0.00  0.00    -0.308 N 
ATOM     25  C   UNL     1       6.420   3.041   3.198  0.00  0.00    +0.251 C 
ATOM     26  O   UNL     1       5.411   2.779   2.578  0.00  0.00    -0.272 OA
ATOM     27  H   UNL     1       7.210   3.243   5.042  0.00  0.00    +0.149 HD
BRANCH  24  28
ATOM     28  C   UNL     1       5.167   2.708   5.261  0.00  0.00    +0.139 C 
BRANCH  28  32
ATOM     29  C   UNL     1       5.870   2.881   9.471  0.00  0.00    +0.000 A 
ATOM     30  C   UNL     1       5.453   4.011   8.793  0.00  0.00    +0.000 A 
ATOM     31  C   UNL     1       5.226   3.955   7.431  0.00  0.00    +0.005 A 
ATOM     32  C   UNL     1       5.415   2.769   6.747  0.00  0.00    -0.030 A 
ATOM     33  C   UNL     1       5.827   1.638   7.426  0.00  0.00    +0.005 A 
ATOM     34  C   UNL     1       6.059   1.695   8.787  0.00  0.00    +0.000 A 
ENDBRANCH  28  32
ENDBRANCH  24  28
ENDBRANCH  23  25
ENDBRANCH  22  23
ENDBRANCH   1  22
TORSDOF 9
