REMARK  Name = ZINC48322662
REMARK  7 active torsions:
REMARK  status: ('A' for Active; 'I' for Inactive)
REMARK    1  A    between atoms: C_1  and  N_2
REMARK    2  A    between atoms: N_2  and  S_3
REMARK    3  A    between atoms: S_3  and  C_6
REMARK    4  A    between atoms: C_9  and  C_12
REMARK    5  A    between atoms: C_12  and  N_13
REMARK    6  A    between atoms: C_14  and  C_16
REMARK    7  A    between atoms: C_22  and  N_26
REMARK                            x       y       z     vdW  Elec       q    Type
REMARK                         _______ _______ _______ _____ _____    ______ ____
ROOT
ATOM      1  N   UNL     1       6.879   1.382   0.041  0.00  0.00    -0.306 N 
ATOM      2  C   UNL     1       8.136   1.808   0.276  0.00  0.00    +0.261 C 
ATOM      3  O   UNL     1       9.046   1.445  -0.445  0.00  0.00    -0.269 OA
ATOM      4  H   UNL     1       6.154   1.672   0.616  0.00  0.00    +0.149 HD
ENDROOT
BRANCH   2   5
ATOM      5  C   UNL     1       8.408   2.712   1.403  0.00  0.00    +0.103 A 
ATOM      6  C   UNL     1       9.626   3.213   1.736  0.00  0.00    +0.041 A 
ATOM      7  C   UNL     1       9.458   4.036   2.875  0.00  0.00    +0.003 A 
ATOM      8  C   UNL     1      10.341   4.800   3.650  0.00  0.00    +0.010 A 
ATOM      9  C   UNL     1       9.870   5.507   4.717  0.00  0.00    +0.003 A 
ATOM     10  C   UNL     1       8.520   5.478   5.045  0.00  0.00    +0.035 A 
ATOM     11  C   UNL     1       7.633   4.735   4.300  0.00  0.00    +0.150 A 
ATOM     12  C   UNL     1       8.089   4.005   3.206  0.00  0.00    +0.078 A 
ATOM     13  N   UNL     1       7.463   3.194   2.289  0.00  0.00    -0.349 N 
ATOM     14  H   UNL     1       6.515   2.991   2.269  0.00  0.00    +0.166 HD
BRANCH  11  15
ATOM     15  N   UNL     1       6.197   4.713   4.661  0.00  0.00    +0.058 N 
ATOM     16  O   UNL     1       5.803   5.348   5.611  0.00  0.00    -0.126 OA
ATOM     17  O   UNL     1       5.419   4.060   4.005  0.00  0.00    -0.126 OA
ENDBRANCH  11  15
ENDBRANCH   2   5
BRANCH   1  18
ATOM     18  C   UNL     1       6.609   0.481  -1.082  0.00  0.00    +0.140 C 
BRANCH  18  22
ATOM     19  C   UNL     1       2.438  -0.437  -1.202  0.00  0.00    +0.105 A 
ATOM     20  C   UNL     1       2.926   0.656  -1.894  0.00  0.00    +0.029 A 
ATOM     21  C   UNL     1       4.275   0.953  -1.855  0.00  0.00    +0.007 A 
ATOM     22  C   UNL     1       5.137   0.158  -1.123  0.00  0.00    -0.030 A 
ATOM     23  C   UNL     1       4.650  -0.935  -0.431  0.00  0.00    +0.007 A 
ATOM     24  C   UNL     1       3.300  -1.230  -0.466  0.00  0.00    +0.029 A 
BRANCH  19  25
ATOM     25  S   UNL     1       0.718  -0.816  -1.251  0.00  0.00    +0.058 S 
ATOM     26  O   UNL     1       0.599  -2.201  -0.959  0.00  0.00    -0.153 OA
ATOM     27  O   UNL     1       0.211  -0.243  -2.449  0.00  0.00    -0.153 OA
BRANCH  25  29
ATOM     28  C   UNL     1      -0.018   1.461   0.010  0.00  0.00    +0.127 C 
ATOM     29  N   UNL     1       0.002  -0.004   0.002  0.00  0.00    -0.193 NA
ATOM     30  H   UNL     1      -0.404  -0.499   0.731  0.00  0.00    +0.148 HD
ENDBRANCH  25  29
ENDBRANCH  19  25
ENDBRANCH  18  22
ENDBRANCH   1  18
TORSDOF 6
