REMARK  Name = ZINC21263386
REMARK  18 active torsions:
REMARK  status: ('A' for Active; 'I' for Inactive)
REMARK    1  A    between atoms: C_1  and  C_2
REMARK    2  A    between atoms: C_2  and  C_4
REMARK    3  A    between atoms: C_2  and  N_10
REMARK    4  A    between atoms: N_10  and  C_11
REMARK    5  A    between atoms: N_10  and  C_24
REMARK    6  A    between atoms: C_11  and  C_12
REMARK    7  A    between atoms: C_14  and  O_22
REMARK    8  A    between atoms: C_15  and  O_20
REMARK    9  A    between atoms: C_16  and  O_18
REMARK   10  A    between atoms: O_18  and  C_19
REMARK   11  A    between atoms: O_20  and  C_21
REMARK   12  A    between atoms: O_22  and  C_23
REMARK   13  A    between atoms: C_24  and  N_26
REMARK   14  A    between atoms: N_26  and  C_27
REMARK   15  A    between atoms: C_29  and  C_35
REMARK   16  A    between atoms: C_29  and  C_36
REMARK   17  A    between atoms: C_31  and  C_33
REMARK   18  A    between atoms: C_31  and  C_34
REMARK                            x       y       z     vdW  Elec       q    Type
REMARK                         _______ _______ _______ _____ _____    ______ ____
ROOT
ATOM      1  N   UNL     1       1.125  -2.814  -1.464  0.00  0.00    -0.302 N 
ENDROOT
BRANCH   1   3
ATOM      2  C   UNL     1       3.571  -2.779  -1.449  0.00  0.00    +0.033 C 
ATOM      3  C   UNL     1       2.315  -2.929  -2.310  0.00  0.00    +0.103 C 
BRANCH   3   4
ATOM      4  C   UNL     1       2.293  -1.847  -3.359  0.00  0.00    -0.027 A 
ATOM      5  C   UNL     1       1.936  -0.557  -3.013  0.00  0.00    +0.005 A 
ATOM      6  C   UNL     1       1.920   0.436  -3.974  0.00  0.00    +0.000 A 
ATOM      7  C   UNL     1       2.252   0.138  -5.282  0.00  0.00    +0.000 A 
ATOM      8  C   UNL     1       2.604  -1.153  -5.629  0.00  0.00    +0.000 A 
ATOM      9  C   UNL     1       2.624  -2.146  -4.667  0.00  0.00    +0.005 A 
ENDBRANCH   3   4
ENDBRANCH   1   3
BRANCH   1  10
ATOM     10  C   UNL     1      -0.099  -3.010  -1.992  0.00  0.00    +0.134 C 
ATOM     11  S   UNL     1      -1.495  -2.763  -1.032  0.00  0.00    -0.019 S 
BRANCH  10  12
ATOM     12  N   UNL     1      -0.225  -3.401  -3.275  0.00  0.00    -0.324 N 
ATOM     13  H   UNL     1       0.671  -3.641  -3.867  0.00  0.00    +0.148 HD
BRANCH  12  14
ATOM     14  C   UNL     1      -1.557  -3.507  -3.884  0.00  0.00    +0.069 C 
ATOM     15  C   UNL     1      -2.137  -4.890  -3.588  0.00  0.00    +0.009 C 
ATOM     16  C   UNL     1      -3.514  -5.037  -4.229  0.00  0.00    -0.072 C 
ATOM     17  N   UNL     1      -3.536  -4.642  -5.622  0.00  0.00    +0.386 N 
ATOM     18  C   UNL     1      -2.803  -3.472  -6.060  0.00  0.00    -0.072 C 
ATOM     19  C   UNL     1      -1.433  -3.345  -5.398  0.00  0.00    +0.009 C 
ATOM     20  C   UNL     1      -3.609  -2.191  -5.818  0.00  0.00    -0.010 C 
ATOM     21  C   UNL     1      -2.575  -3.588  -7.584  0.00  0.00    -0.010 C 
ATOM     22  C   UNL     1      -4.546  -4.248  -3.414  0.00  0.00    -0.010 C 
ATOM     23  C   UNL     1      -3.910  -6.528  -4.145  0.00  0.00    -0.010 C 
ATOM     24  H   UNL     1      -3.127  -5.455  -6.240  0.00  0.00    -0.084 HD
ATOM     25  H   UNL     1      -4.571  -4.434  -5.928  0.00  0.00    -0.084 HD
ENDBRANCH  12  14
ENDBRANCH  10  12
ENDBRANCH   1  10
BRANCH   1  26
ATOM     26  C   UNL     1       1.266  -2.484  -0.043  0.00  0.00    +0.142 C 
BRANCH  26  27
ATOM     27  C   UNL     1       1.146  -0.994   0.141  0.00  0.00    -0.023 A 
ATOM     28  C   UNL     1      -0.103  -0.408   0.230  0.00  0.00    +0.054 A 
ATOM     29  C   UNL     1      -0.218   0.963   0.399  0.00  0.00    +0.165 A 
ATOM     30  C   UNL     1       0.925   1.749   0.481  0.00  0.00    +0.204 A 
ATOM     31  C   UNL     1       2.179   1.157   0.393  0.00  0.00    +0.165 A 
ATOM     32  C   UNL     1       2.285  -0.215   0.222  0.00  0.00    +0.054 A 
BRANCH  31  33
ATOM     33  O   UNL     1       3.300   1.922   0.473  0.00  0.00    -0.491 OA
ATOM     34  C   UNL     1       4.551   1.263   0.265  0.00  0.00    +0.277 C 
ENDBRANCH  31  33
BRANCH  30  35
ATOM     35  O   UNL     1       0.816   3.096   0.647  0.00  0.00    -0.488 OA
ATOM     36  C   UNL     1       0.780   3.583   1.990  0.00  0.00    +0.277 C 
ENDBRANCH  30  35
BRANCH  29  37
ATOM     37  O   UNL     1      -1.448   1.539   0.480  0.00  0.00    -0.491 OA
ATOM     38  C   UNL     1      -2.578   0.670   0.382  0.00  0.00    +0.277 C 
ENDBRANCH  29  37
ENDBRANCH  26  27
ENDBRANCH   1  26
TORSDOF 10
