REMARK  Name = ZINC36215982
REMARK  10 active torsions:
REMARK  status: ('A' for Active; 'I' for Inactive)
REMARK    1  A    between atoms: C_1  and  C_2
REMARK    2  A    between atoms: C_2  and  C_3
REMARK    3  A    between atoms: C_2  and  C_4
REMARK    4  A    between atoms: N_6  and  C_7
REMARK    5  A    between atoms: C_10  and  C_13
REMARK    6  A    between atoms: C_15  and  C_28
REMARK    7  A    between atoms: N_17  and  C_21
REMARK    8  A    between atoms: C_21  and  C_22
REMARK    9  A    between atoms: N_30  and  C_31
REMARK   10  A    between atoms: C_31  and  C_32
REMARK                            x       y       z     vdW  Elec       q    Type
REMARK                         _______ _______ _______ _____ _____    ______ ____
ROOT
ATOM      1  C   UNL     1      -7.630  -1.973  -0.571  0.00  0.00    +0.238 C 
ATOM      2  C   UNL     1      -8.565  -0.808  -0.166  0.00  0.00    +0.210 C 
ATOM      3  N   UNL     1      -9.043  -0.322  -1.475  0.00  0.00    -0.248 N 
ATOM      4  C   UNL     1      -8.747  -1.260  -2.394  0.00  0.00    +0.405 C 
ATOM      5  O   UNL     1      -8.990  -1.140  -3.579  0.00  0.00    -0.226 OA
ATOM      6  O   UNL     1      -8.152  -2.342  -1.862  0.00  0.00    -0.440 OA
ENDROOT
BRANCH   1  10
ATOM      7  C   UNL     1      -3.581  -0.642  -0.885  0.00  0.00    +0.033 A 
ATOM      8  C   UNL     1      -3.992  -1.363   0.228  0.00  0.00    +0.024 A 
ATOM      9  C   UNL     1      -5.301  -1.792   0.326  0.00  0.00    +0.009 A 
ATOM     10  C   UNL     1      -6.203  -1.504  -0.682  0.00  0.00    -0.005 A 
ATOM     11  C   UNL     1      -5.797  -0.786  -1.792  0.00  0.00    +0.009 A 
ATOM     12  C   UNL     1      -4.490  -0.349  -1.893  0.00  0.00    +0.024 A 
BRANCH   7  15
ATOM     13  C   UNL     1      -1.979   0.980  -1.567  0.00  0.00    +0.220 C 
ATOM     14  O   UNL     1      -2.869   1.630  -2.072  0.00  0.00    -0.275 OA
ATOM     15  N   UNL     1      -2.256  -0.206  -0.988  0.00  0.00    -0.285 N 
ATOM     16  H   UNL     1      -1.536  -0.757  -0.643  0.00  0.00    +0.155 HD
BRANCH  13  18
ATOM     17  C   UNL     1       0.333   0.505  -2.329  0.00  0.00    +0.017 C 
ATOM     18  C   UNL     1      -0.564   1.497  -1.585  0.00  0.00    +0.069 C 
ATOM     19  C   UNL     1      -0.525   2.851  -2.296  0.00  0.00    +0.017 C 
ENDBRANCH  13  18
ENDBRANCH   7  15
ENDBRANCH   1  10
BRANCH   2  20
ATOM     20  C   UNL     1      -9.710  -1.308   0.677  0.00  0.00    +0.238 C 
ATOM     21  O   UNL     1     -10.798  -1.492   0.174  0.00  0.00    -0.274 OA
ATOM     22  N   UNL     1      -9.525  -1.549   1.990  0.00  0.00    -0.310 N 
ATOM     23  H   UNL     1      -8.655  -1.402   2.393  0.00  0.00    +0.149 HD
BRANCH  22  24
ATOM     24  C   UNL     1     -10.638  -2.035   2.810  0.00  0.00    +0.139 C 
BRANCH  24  25
ATOM     25  C   UNL     1     -10.171  -2.223   4.230  0.00  0.00    -0.030 A 
ATOM     26  C   UNL     1      -9.644  -3.438   4.629  0.00  0.00    +0.008 A 
ATOM     27  C   UNL     1      -9.215  -3.611   5.931  0.00  0.00    +0.038 A 
ATOM     28  C   UNL     1      -9.313  -2.569   6.837  0.00  0.00    +0.123 A 
ATOM     29  C   UNL     1      -9.841  -1.353   6.436  0.00  0.00    +0.038 A 
ATOM     30  C   UNL     1     -10.265  -1.180   5.132  0.00  0.00    +0.008 A 
ATOM     31  F   UNL     1      -8.895  -2.738   8.110  0.00  0.00    -0.205 F 
ENDBRANCH  24  25
ENDBRANCH  22  24
ENDBRANCH   2  20
BRANCH   3  32
ATOM     32  C   UNL     1      -9.720   0.953  -1.728  0.00  0.00    +0.147 C 
BRANCH  32  33
ATOM     33  C   UNL     1      -8.695   2.011  -2.043  0.00  0.00    -0.030 A 
ATOM     34  C   UNL     1      -8.144   2.765  -1.024  0.00  0.00    +0.005 A 
ATOM     35  C   UNL     1      -7.204   3.736  -1.314  0.00  0.00    +0.000 A 
ATOM     36  C   UNL     1      -6.815   3.953  -2.622  0.00  0.00    +0.000 A 
ATOM     37  C   UNL     1      -7.365   3.199  -3.641  0.00  0.00    +0.000 A 
ATOM     38  C   UNL     1      -8.302   2.225  -3.352  0.00  0.00    +0.005 A 
ENDBRANCH  32  33
ENDBRANCH   3  32
TORSDOF 8
