REMARK  Name = ZINC58954485
REMARK  15 active torsions:
REMARK  status: ('A' for Active; 'I' for Inactive)
REMARK    1  A    between atoms: C_1  and  C_2
REMARK    2  A    between atoms: C_2  and  N_3
REMARK    3  A    between atoms: N_3  and  C_4
REMARK    4  A    between atoms: N_3  and  C_6
REMARK    5  A    between atoms: C_4  and  C_5
REMARK    6  A    between atoms: C_6  and  C_8
REMARK    7  A    between atoms: C_6  and  C_28
REMARK    8  A    between atoms: C_8  and  N_9
REMARK    9  A    between atoms: C_10  and  C_12
REMARK   10  A    between atoms: C_12  and  C_14
REMARK   11  A    between atoms: C_12  and  N_17
REMARK   12  A    between atoms: C_14  and  C_15
REMARK   13  A    between atoms: C_14  and  C_16
REMARK   14  A    between atoms: N_20  and  C_21
REMARK   15  A    between atoms: C_21  and  C_22
REMARK                            x       y       z     vdW  Elec       q    Type
REMARK                         _______ _______ _______ _____ _____    ______ ____
ROOT
ATOM      1  N   UNL     1      -1.603  -1.328  -0.431  0.00  0.00    -0.315 N 
ATOM      2  C   UNL     1      -2.752  -2.001  -0.224  0.00  0.00    +0.234 C 
ATOM      3  O   UNL     1      -3.057  -2.920  -0.955  0.00  0.00    -0.274 OA
ATOM      4  H   UNL     1      -1.321  -0.645   0.197  0.00  0.00    +0.149 HD
ENDROOT
BRANCH   1   5
ATOM      5  C   UNL     1      -0.780  -1.628  -1.605  0.00  0.00    +0.093 C 
BRANCH   5   6
ATOM      6  C   UNL     1       0.363  -0.615  -1.699  0.00  0.00    -0.020 C 
BRANCH   6   7
ATOM      7  C   UNL     1       1.314  -1.030  -2.792  0.00  0.00    -0.052 A 
ATOM      8  C   UNL     1       2.490  -1.688  -2.487  0.00  0.00    +0.009 A 
ATOM      9  C   UNL     1       3.323  -2.047  -3.494  0.00  0.00    +0.045 A 
ATOM     10  S   UNL     1       2.446  -1.450  -4.929  0.00  0.00    -0.105 S 
ATOM     11  C   UNL     1       1.025  -0.767  -4.090  0.00  0.00    +0.047 A 
ENDBRANCH   6   7
BRANCH   6  12
ATOM     12  N   UNL     1      -0.184   0.714  -2.004  0.00  0.00    +0.385 N 
ATOM     13  H   UNL     1      -0.795   0.651  -2.804  0.00  0.00    -0.081 HD
BRANCH  12  15
ATOM     14  C   UNL     1       0.004   1.397   0.341  0.00  0.00    -0.017 C 
ATOM     15  C   UNL     1      -0.942   1.208  -0.847  0.00  0.00    -0.081 C 
ENDBRANCH  12  15
BRANCH  12  16
ATOM     16  C   UNL     1       0.917   1.640  -2.300  0.00  0.00    -0.081 C 
ATOM     17  C   UNL     1       0.344   2.985  -2.754  0.00  0.00    -0.017 C 
ENDBRANCH  12  16
ENDBRANCH   6  12
ENDBRANCH   5   6
ENDBRANCH   1   5
BRANCH   2  18
ATOM     18  C   UNL     1      -3.659  -1.612   0.915  0.00  0.00    +0.163 C 
BRANCH  18  19
ATOM     19  N   UNL     1      -5.038  -1.985   0.591  0.00  0.00    -0.288 N 
ATOM     20  C   UNL     1      -6.066  -1.330   1.166  0.00  0.00    +0.300 C 
ATOM     21  O   UNL     1      -5.848  -0.429   1.954  0.00  0.00    -0.253 OA
ATOM     22  N   UNL     1      -7.335  -1.673   0.868  0.00  0.00    -0.295 N 
ATOM     23  H   UNL     1      -5.211  -2.703  -0.037  0.00  0.00    +0.151 HD
ATOM     24  H   UNL     1      -7.508  -2.391   0.240  0.00  0.00    +0.151 HD
BRANCH  22  25
ATOM     25  C   UNL     1      -8.452  -0.960   1.493  0.00  0.00    +0.141 C 
BRANCH  25  26
ATOM     26  C   UNL     1      -9.754  -1.532   0.995  0.00  0.00    -0.030 A 
ATOM     27  C   UNL     1     -10.350  -1.010  -0.138  0.00  0.00    +0.005 A 
ATOM     28  C   UNL     1     -11.544  -1.535  -0.595  0.00  0.00    +0.000 A 
ATOM     29  C   UNL     1     -12.143  -2.582   0.080  0.00  0.00    +0.000 A 
ATOM     30  C   UNL     1     -11.546  -3.105   1.212  0.00  0.00    +0.000 A 
ATOM     31  C   UNL     1     -10.350  -2.583   1.667  0.00  0.00    +0.005 A 
ENDBRANCH  25  26
ENDBRANCH  22  25
ENDBRANCH  18  19
BRANCH  18  32
ATOM     32  C   UNL     1      -3.219  -2.339   2.187  0.00  0.00    +0.012 C 
ATOM     33  C   UNL     1      -1.812  -1.881   2.577  0.00  0.00    +0.009 C 
ATOM     34  C   UNL     1      -4.193  -2.016   3.322  0.00  0.00    +0.009 C 
ENDBRANCH  18  32
ENDBRANCH   2  18
TORSDOF 11
