REMARK  Name = ZINC18103457
REMARK  10 active torsions:
REMARK  status: ('A' for Active; 'I' for Inactive)
REMARK    1  A    between atoms: C_1  and  C_2
REMARK    2  A    between atoms: C_6  and  O_9
REMARK    3  A    between atoms: C_7  and  C_8
REMARK    4  A    between atoms: O_9  and  C_10
REMARK    5  A    between atoms: C_10  and  C_12
REMARK    6  A    between atoms: C_10  and  C_13
REMARK    7  A    between atoms: N_15  and  N_16
REMARK    8  A    between atoms: C_17  and  C_19
REMARK    9  A    between atoms: C_19  and  N_20
REMARK   10  A    between atoms: C_21  and  C_23
REMARK                            x       y       z     vdW  Elec       q    Type
REMARK                         _______ _______ _______ _____ _____    ______ ____
ROOT
ATOM      1  C   UNL     1      -1.159  -2.041  -0.497  0.00  0.00    +0.270 C 
ATOM      2  O   UNL     1      -0.093  -2.446  -0.910  0.00  0.00    -0.270 OA
ATOM      3  N   UNL     1      -2.257  -2.817  -0.592  0.00  0.00    -0.231 N 
ATOM      4  H   UNL     1      -3.110  -2.493  -0.261  0.00  0.00    +0.173 HD
ENDROOT
BRANCH   3   5
ATOM      5  N   UNL     1      -2.167  -4.092  -1.166  0.00  0.00    -0.233 N 
ATOM      6  C   UNL     1      -3.265  -4.868  -1.261  0.00  0.00    +0.246 C 
ATOM      7  O   UNL     1      -4.331  -4.463  -0.848  0.00  0.00    -0.273 OA
ATOM      8  H   UNL     1      -1.315  -4.416  -1.496  0.00  0.00    +0.173 HD
BRANCH   6   9
ATOM      9  C   UNL     1      -3.168  -6.238  -1.879  0.00  0.00    +0.202 C 
BRANCH   9  10
ATOM     10  N   UNL     1      -4.487  -6.875  -1.864  0.00  0.00    -0.300 N 
ATOM     11  C   UNL     1      -4.643  -8.115  -2.370  0.00  0.00    +0.280 C 
ATOM     12  O   UNL     1      -3.687  -8.706  -2.838  0.00  0.00    -0.267 OA
ATOM     13  H   UNL     1      -5.249  -6.405  -1.490  0.00  0.00    +0.150 HD
BRANCH  11  14
ATOM     14  C   UNL     1      -5.963  -8.752  -2.354  0.00  0.00    +0.191 A 
ATOM     15  C   UNL     1      -6.258  -9.998  -2.831  0.00  0.00    +0.056 A 
ATOM     16  C   UNL     1      -7.629 -10.199  -2.615  0.00  0.00    +0.058 A 
ATOM     17  C   UNL     1      -8.107  -9.080  -2.022  0.00  0.00    +0.171 A 
ATOM     18  O   UNL     1      -7.098  -8.214  -1.862  0.00  0.00    -0.444 OA
ATOM     19 BR   UNL     1      -9.900  -8.791  -1.498  0.00  0.00    -0.008 Br
ENDBRANCH  11  14
ENDBRANCH   9  10
ENDBRANCH   6   9
ENDBRANCH   3   5
BRANCH   1  20
ATOM     20  C   UNL     1      -1.256  -0.671   0.121  0.00  0.00    +0.257 C 
ATOM     21  C   UNL     1      -1.625  -0.803   1.600  0.00  0.00    +0.062 C 
BRANCH  20  22
ATOM     22  O   UNL     1       0.002  -0.004   0.002  0.00  0.00    -0.480 OA
BRANCH  22  28
ATOM     23  C   UNL     1       2.398   4.222  -0.466  0.00  0.00    +0.044 C 
ATOM     24  C   UNL     1       1.130   3.448  -0.214  0.00  0.00    -0.044 A 
ATOM     25  C   UNL     1      -0.054   4.121   0.025  0.00  0.00    +0.004 A 
ATOM     26  C   UNL     1      -1.219   3.414   0.257  0.00  0.00    +0.004 A 
ATOM     27  C   UNL     1      -1.204   2.032   0.244  0.00  0.00    +0.046 A 
ATOM     28  C   UNL     1      -0.016   1.355   0.010  0.00  0.00    +0.125 A 
ATOM     29  C   UNL     1       1.152   2.067  -0.222  0.00  0.00    -0.006 A 
ATOM     30  C   UNL     1       2.443   1.334  -0.482  0.00  0.00    +0.048 C 
ENDBRANCH  22  28
ENDBRANCH  20  22
ENDBRANCH   1  20
TORSDOF 7
