REMARK  Name = ZINC39448901
REMARK  4 active torsions:
REMARK  status: ('A' for Active; 'I' for Inactive)
REMARK    1  A    between atoms: C_16  and  C_18
REMARK    2  A    between atoms: C_18  and  S_19
REMARK    3  A    between atoms: S_19  and  C_20
REMARK    4  A    between atoms: C_22  and  C_28
REMARK                            x       y       z     vdW  Elec       q    Type
REMARK                         _______ _______ _______ _____ _____    ______ ____
ROOT
ATOM      1  S   UNL     1       7.031  -0.387   2.349  0.00  0.00    -0.081 S 
ENDROOT
BRANCH   1   2
ATOM      2  C   UNL     1       8.471  -1.335   1.987  0.00  0.00    +0.159 C 
ATOM      3  N   UNL     1       9.574  -1.279   2.808  0.00  0.00    -0.300 N 
ATOM      4  C   UNL     1      10.427  -2.475   2.886  0.00  0.00    +0.203 C 
ATOM      5  N   UNL     1      10.548  -3.044   1.538  0.00  0.00    -0.336 N 
ATOM      6  C   UNL     1       9.603  -2.858   0.656  0.00  0.00    +0.190 C 
ATOM      7  N   UNL     1       8.514  -2.119   0.925  0.00  0.00    -0.195 NA
ATOM      8  N   UNL     1       9.724  -3.445  -0.588  0.00  0.00    -0.329 N 
ATOM      9  H   UNL     1      10.503  -3.984  -0.796  0.00  0.00    +0.145 HD
ATOM     10  H   UNL     1       9.031  -3.317  -1.255  0.00  0.00    +0.145 HD
ATOM     11  H   UNL     1       9.782  -0.480   3.316  0.00  0.00    +0.150 HD
ATOM     12  H   UNL     1      11.335  -3.560   1.302  0.00  0.00    +0.164 HD
BRANCH   4  13
ATOM     13  C   UNL     1       9.800  -3.486   3.810  0.00  0.00    +0.029 A 
ATOM     14  C   UNL     1      10.008  -4.838   3.600  0.00  0.00    +0.049 A 
ATOM     15  C   UNL     1       9.432  -5.766   4.450  0.00  0.00    +0.020 A 
ATOM     16  C   UNL     1       8.649  -5.343   5.507  0.00  0.00    +0.003 A 
ATOM     17  C   UNL     1       8.441  -3.993   5.718  0.00  0.00    +0.020 A 
ATOM     18  C   UNL     1       9.021  -3.064   4.873  0.00  0.00    +0.049 A 
ATOM     19 CL   UNL     1       8.767  -1.368   5.141  0.00  0.00    -0.083 Cl
ATOM     20 CL   UNL     1      10.990  -5.369   2.271  0.00  0.00    -0.083 Cl
ENDBRANCH   4  13
ENDBRANCH   1   2
BRANCH   1  21
ATOM     21  C   UNL     1       5.883  -0.804   1.008  0.00  0.00    +0.173 C 
BRANCH  21  37
ATOM     22  C   UNL     1       0.050   1.959   0.698  0.00  0.00    +0.000 A 
ATOM     23  C   UNL     1       1.267   2.616   0.649  0.00  0.00    +0.002 A 
ATOM     24  C   UNL     1       2.425   1.876   0.533  0.00  0.00    +0.024 A 
ATOM     25  C   UNL     1       2.373   0.487   0.475  0.00  0.00    +0.044 A 
ATOM     26  C   UNL     1       1.163  -0.183   0.549  0.00  0.00    -0.025 A 
ATOM     27  C   UNL     1       0.000   0.586   0.646  0.00  0.00    +0.005 A 
ATOM     28  C   UNL     1       0.937  -1.677   0.577  0.00  0.00    +0.042 C 
ATOM     29  C   UNL     1       2.227  -2.477   0.536  0.00  0.00    +0.042 C 
ATOM     30  C   UNL     1       2.989  -2.220  -0.738  0.00  0.00    -0.025 A 
ATOM     31  C   UNL     1       2.977  -3.092  -1.803  0.00  0.00    +0.005 A 
ATOM     32  C   UNL     1       3.733  -2.784  -2.925  0.00  0.00    +0.000 A 
ATOM     33  C   UNL     1       4.485  -1.625  -2.968  0.00  0.00    +0.002 A 
ATOM     34  C   UNL     1       4.484  -0.748  -1.894  0.00  0.00    +0.024 A 
ATOM     35  C   UNL     1       3.715  -1.059  -0.787  0.00  0.00    +0.044 A 
ATOM     36  N   UNL     1       3.584  -0.204   0.317  0.00  0.00    -0.239 N 
ATOM     37  C   UNL     1       4.592  -0.050   1.200  0.00  0.00    +0.234 C 
ATOM     38  O   UNL     1       4.459   0.695   2.148  0.00  0.00    -0.274 OA
ENDBRANCH  21  37
ENDBRANCH   1  21
TORSDOF 4
