REMARK  Name = ZINC14904598
REMARK  9 active torsions:
REMARK  status: ('A' for Active; 'I' for Inactive)
REMARK    1  A    between atoms: C_1  and  C_2
REMARK    2  A    between atoms: C_2  and  C_3
REMARK    3  A    between atoms: C_2  and  C_4
REMARK    4  A    between atoms: C_4  and  O_5
REMARK    5  A    between atoms: O_5  and  C_6
REMARK    6  A    between atoms: C_9  and  C_14
REMARK    7  A    between atoms: C_11  and  O_12
REMARK    8  A    between atoms: O_12  and  C_13
REMARK    9  A    between atoms: C_25  and  C_27
REMARK                            x       y       z     vdW  Elec       q    Type
REMARK                         _______ _______ _______ _____ _____    ______ ____
ROOT
ATOM      1  C   UNL     1      -7.120   5.220   0.914  0.00  0.00    +0.028 C 
ATOM      2  C   UNL     1      -5.902   4.631   0.845  0.00  0.00    +0.077 C 
ATOM      3  C   UNL     1      -5.089   4.064   1.937  0.00  0.00    +0.255 C 
ATOM      4  O   UNL     1      -5.496   4.087   3.084  0.00  0.00    -0.269 OA
ATOM      5  N   UNL     1      -3.910   3.527   1.655  0.00  0.00    -0.247 N 
ATOM      6  C   UNL     1      -3.478   3.528   0.260  0.00  0.00    +0.325 C 
ATOM      7  S   UNL     1      -4.877   4.347  -0.592  0.00  0.00    -0.030 S 
ATOM      8  N   UNL     1      -3.290   2.179  -0.260  0.00  0.00    -0.181 N 
ATOM      9  C   UNL     1      -2.142   1.354   0.184  0.00  0.00    +0.138 C 
ATOM     10  C   UNL     1      -2.072   0.262  -0.891  0.00  0.00    +0.086 C 
ATOM     11  C   UNL     1      -3.373   0.425  -1.651  0.00  0.00    +0.069 C 
ATOM     12  N   UNL     1      -3.985   1.485  -1.235  0.00  0.00    -0.183 NA
ATOM     13  C   UNL     1      -0.933   2.252   0.159  0.00  0.00    +0.017 A 
ATOM     14  C   UNL     1       0.328   1.684   0.179  0.00  0.00    +0.009 A 
ATOM     15  C   UNL     1       1.454   2.484   0.199  0.00  0.00    +0.001 A 
ATOM     16  C   UNL     1       1.318   3.860   0.205  0.00  0.00    +0.004 A 
ATOM     17  C   UNL     1       0.064   4.431   0.180  0.00  0.00    +0.046 A 
ATOM     18  C   UNL     1      -1.078   3.631   0.148  0.00  0.00    +0.131 A 
ATOM     19  O   UNL     1      -2.280   4.262   0.073  0.00  0.00    -0.442 OA
ATOM     20  H   UNL     1      -3.354   3.146   2.352  0.00  0.00    +0.155 HD
ENDROOT
BRANCH   1  24
ATOM     21  C   UNL     1      -8.770   7.100  -2.515  0.00  0.00    +0.162 A 
ATOM     22  C   UNL     1      -9.596   6.731  -1.462  0.00  0.00    +0.050 A 
ATOM     23  C   UNL     1      -9.065   6.120  -0.347  0.00  0.00    +0.012 A 
ATOM     24  C   UNL     1      -7.689   5.872  -0.274  0.00  0.00    -0.020 A 
ATOM     25  C   UNL     1      -6.857   6.250  -1.334  0.00  0.00    +0.057 A 
ATOM     26  C   UNL     1      -7.399   6.856  -2.451  0.00  0.00    +0.162 A 
BRANCH  26  27
ATOM     27  O   UNL     1      -6.595   7.219  -3.485  0.00  0.00    -0.491 OA
ATOM     28  C   UNL     1      -5.200   6.939  -3.352  0.00  0.00    +0.277 C 
ENDBRANCH  26  27
BRANCH  21  29
ATOM     29  O   UNL     1      -9.300   7.702  -3.612  0.00  0.00    -0.488 OA
BRANCH  29  30
ATOM     30  C   UNL     1     -10.712   7.922  -3.613  0.00  0.00    +0.232 C 
BRANCH  30  32
ATOM     31  C   UNL     1     -12.645   8.727  -4.976  0.00  0.00    +0.010 C 
ATOM     32  C   UNL     1     -11.121   8.604  -4.920  0.00  0.00    +0.020 C 
ATOM     33  C   UNL     1     -10.494   9.998  -4.986  0.00  0.00    +0.010 C 
ENDBRANCH  30  32
ENDBRANCH  29  30
ENDBRANCH  21  29
ENDBRANCH   1  24
BRANCH  11  34
ATOM     34  C   UNL     1      -3.863  -0.483  -2.704  0.00  0.00    -0.002 A 
ATOM     35  C   UNL     1      -3.109  -1.598  -3.077  0.00  0.00    +0.010 A 
ATOM     36  C   UNL     1      -3.576  -2.446  -4.059  0.00  0.00    +0.001 A 
ATOM     37  C   UNL     1      -4.784  -2.189  -4.682  0.00  0.00    +0.000 A 
ATOM     38  C   UNL     1      -5.535  -1.084  -4.322  0.00  0.00    +0.001 A 
ATOM     39  C   UNL     1      -5.082  -0.230  -3.338  0.00  0.00    +0.010 A 
ENDBRANCH  11  34
TORSDOF 6
