REMARK  Name = ZINC09669921
REMARK  10 active torsions:
REMARK  status: ('A' for Active; 'I' for Inactive)
REMARK    1  A    between atoms: C_1  and  C_2
REMARK    2  A    between atoms: C_2  and  C_3
REMARK    3  A    between atoms: C_2  and  C_4
REMARK    4  A    between atoms: C_2  and  C_5
REMARK    5  A    between atoms: C_8  and  S_11
REMARK    6  A    between atoms: S_11  and  N_14
REMARK    7  A    between atoms: N_22  and  C_23
REMARK    8  A    between atoms: C_23  and  C_24
REMARK    9  A    between atoms: C_24  and  C_26
REMARK   10  A    between atoms: C_24  and  N_70
REMARK                            x       y       z     vdW  Elec       q    Type
REMARK                         _______ _______ _______ _____ _____    ______ ____
ROOT
ATOM      1  N   UNL     1       1.853  -4.122  -3.625  0.00  0.00    -0.174 NA
ATOM      2  C   UNL     1       1.234  -4.775  -2.463  0.00  0.00    +0.128 C 
ATOM      3  C   UNL     1      -0.122  -4.112  -2.192  0.00  0.00    +0.126 C 
ATOM      4  N   UNL     1       0.065  -2.654  -2.169  0.00  0.00    -0.283 N 
ATOM      5  C   UNL     1       0.678  -2.000  -3.334  0.00  0.00    +0.126 C 
ATOM      6  C   UNL     1       2.039  -2.664  -3.602  0.00  0.00    +0.128 C 
ATOM      7  C   UNL     1      -0.326  -1.930  -1.102  0.00  0.00    +0.302 C 
ATOM      8  O   UNL     1      -0.914  -2.468  -0.184  0.00  0.00    -0.253 OA
ATOM      9  N   UNL     1      -0.063  -0.609  -1.052  0.00  0.00    -0.300 N 
ATOM     10  H   UNL     1       0.344  -0.166  -1.813  0.00  0.00    +0.150 HD
ENDROOT
BRANCH   1  11
ATOM     11  S   UNL     1       2.331  -5.012  -4.937  0.00  0.00    +0.061 S 
ATOM     12  O   UNL     1       3.342  -4.258  -5.592  0.00  0.00    -0.153 OA
ATOM     13  O   UNL     1       2.550  -6.337  -4.471  0.00  0.00    -0.153 OA
BRANCH  11  17
ATOM     14  C   UNL     1      -1.186  -5.203  -7.780  0.00  0.00    -0.042 A 
ATOM     15  C   UNL     1      -0.268  -4.175  -7.884  0.00  0.00    +0.006 A 
ATOM     16  C   UNL     1       0.806  -4.116  -7.016  0.00  0.00    +0.029 A 
ATOM     17  C   UNL     1       0.962  -5.086  -6.043  0.00  0.00    +0.105 A 
ATOM     18  C   UNL     1       0.047  -6.117  -5.942  0.00  0.00    +0.029 A 
ATOM     19  C   UNL     1      -1.030  -6.173  -6.807  0.00  0.00    +0.006 A 
BRANCH  14  21
ATOM     20  C   UNL     1      -1.846  -5.372 -10.164  0.00  0.00    +0.015 C 
ATOM     21  C   UNL     1      -2.357  -5.266  -8.726  0.00  0.00    -0.013 C 
ATOM     22  C   UNL     1      -3.212  -6.492  -8.398  0.00  0.00    +0.015 C 
ATOM     23  C   UNL     1      -3.203  -4.000  -8.577  0.00  0.00    +0.015 C 
ENDBRANCH  14  21
ENDBRANCH  11  17
ENDBRANCH   1  11
BRANCH   9  24
ATOM     24  C   UNL     1      -0.393   0.158   0.152  0.00  0.00    +0.098 C 
BRANCH  24  25
ATOM     25  C   UNL     1       0.004   1.622  -0.051  0.00  0.00    +0.016 C 
BRANCH  25  30
ATOM     26  C   UNL     1      -2.098   1.880  -1.252  0.00  0.00    -0.078 C 
ATOM     27  C   UNL     1      -2.650   2.906  -2.274  0.00  0.00    -0.020 C 
ATOM     28  C   UNL     1      -1.764   4.149  -2.030  0.00  0.00    -0.020 C 
ATOM     29  C   UNL     1      -0.486   3.607  -1.364  0.00  0.00    -0.078 C 
ATOM     30  N   UNL     1      -0.653   2.155  -1.283  0.00  0.00    +0.387 N 
ATOM     31  H   UNL     1      -0.233   1.711  -2.108  0.00  0.00    -0.081 HD
ENDBRANCH  25  30
BRANCH  25  32
ATOM     32  C   UNL     1      -0.446   2.434   1.136  0.00  0.00    +0.093 A 
ATOM     33  C   UNL     1       0.324   2.799   2.176  0.00  0.00    +0.043 A 
ATOM     34  C   UNL     1      -0.497   3.547   3.051  0.00  0.00    +0.041 A 
ATOM     35  C   UNL     1      -1.722   3.587   2.497  0.00  0.00    +0.195 A 
ATOM     36  O   UNL     1      -1.685   2.911   1.336  0.00  0.00    -0.469 OA
ENDBRANCH  25  32
ENDBRANCH  24  25
ENDBRANCH   9  24
TORSDOF 7
