REMARK  Name = ZINC12499398
REMARK  7 active torsions:
REMARK  status: ('A' for Active; 'I' for Inactive)
REMARK    1  A    between atoms: C_10  and  O_11
REMARK    2  A    between atoms: O_11  and  C_12
REMARK    3  A    between atoms: C_12  and  C_13
REMARK    4  A    between atoms: N_15  and  C_16
REMARK    5  A    between atoms: C_16  and  N_18
REMARK    6  A    between atoms: N_18  and  C_19
REMARK    7  A    between atoms: C_20  and  C_28
REMARK                            x       y       z     vdW  Elec       q    Type
REMARK                         _______ _______ _______ _____ _____    ______ ____
ROOT
ATOM      1  C   UNL     1      -7.206   4.028   0.092  0.00  0.00    +0.141 C 
ATOM      2  S   UNL     1      -7.041   5.732   0.099  0.00  0.00    -0.018 S 
ENDROOT
BRANCH   1   5
ATOM      3  C   UNL     1      -4.883   3.803   0.069  0.00  0.00    +0.256 C 
ATOM      4  O   UNL     1      -4.766   5.010   0.074  0.00  0.00    -0.272 OA
ATOM      5  N   UNL     1      -6.109   3.245   0.078  0.00  0.00    -0.265 N 
ATOM      6  H   UNL     1      -6.203   2.279   0.074  0.00  0.00    +0.157 HD
BRANCH   3   7
ATOM      7  C   UNL     1      -3.656   2.927   0.053  0.00  0.00    +0.325 C 
BRANCH   7   8
ATOM      8  O   UNL     1      -2.486   3.747   0.046  0.00  0.00    -0.482 OA
BRANCH   8  18
ATOM      9  C   UNL     1       2.297   5.267   0.007  0.00  0.00    +0.001 A 
ATOM     10  C   UNL     1       1.077   5.940   0.022  0.00  0.00    +0.001 A 
ATOM     11  C   UNL     1      -0.100   5.256   0.030  0.00  0.00    +0.012 A 
ATOM     12  C   UNL     1      -0.088   3.852   0.024  0.00  0.00    +0.024 A 
ATOM     13  C   UNL     1       1.152   3.167   0.008  0.00  0.00    -0.014 A 
ATOM     14  C   UNL     1       2.347   3.907   0.000  0.00  0.00    +0.008 A 
ATOM     15  C   UNL     1       1.164   1.762   0.000  0.00  0.00    +0.009 A 
ATOM     16  C   UNL     1      -0.013   1.076   0.008  0.00  0.00    +0.004 A 
ATOM     17  C   UNL     1      -1.234   1.744   0.017  0.00  0.00    +0.046 A 
ATOM     18  C   UNL     1      -1.287   3.110   0.032  0.00  0.00    +0.129 A 
ENDBRANCH   8  18
ENDBRANCH   7   8
ENDBRANCH   3   7
ENDBRANCH   1   5
BRANCH   1  19
ATOM     19  N   UNL     1      -8.433   3.470   0.101  0.00  0.00    -0.291 N 
ATOM     20  H   UNL     1      -8.526   2.504   0.098  0.00  0.00    +0.154 HD
BRANCH  19  21
ATOM     21  C   UNL     1      -9.560   4.275   0.116  0.00  0.00    +0.084 A 
ATOM     22  C   UNL     1     -10.894   3.891   0.121  0.00  0.00    +0.068 A 
ATOM     23  C   UNL     1     -11.896   4.944   0.140  0.00  0.00    -0.023 A 
ATOM     24  C   UNL     1     -11.407   6.202   0.141  0.00  0.00    -0.004 A 
ATOM     25  S   UNL     1      -9.648   6.005   0.124  0.00  0.00    -0.077 S 
ATOM     26  C   UNL     1     -12.194   7.477   0.153  0.00  0.00    +0.043 C 
ATOM     27  C   UNL     1     -13.649   7.151  -0.213  0.00  0.00    +0.005 C 
ATOM     28  C   UNL     1     -14.111   5.954   0.622  0.00  0.00    +0.005 C 
ATOM     29  C   UNL     1     -13.397   4.685   0.153  0.00  0.00    +0.037 C 
BRANCH  22  30
ATOM     30  C   UNL     1     -11.278   2.476   0.111  0.00  0.00    +0.244 C 
ATOM     31  O   UNL     1     -11.431   1.880   1.161  0.00  0.00    -0.270 OA
ATOM     32  N   UNL     1     -11.462   1.835  -1.060  0.00  0.00    -0.325 N 
ATOM     33  H   UNL     1     -11.339   2.311  -1.897  0.00  0.00    +0.145 HD
ATOM     34  H   UNL     1     -11.716   0.899  -1.066  0.00  0.00    +0.145 HD
ENDBRANCH  22  30
ENDBRANCH  19  21
ENDBRANCH   1  19
TORSDOF 7
