REMARK  Name = ZINC08754501
REMARK  8 active torsions:
REMARK  status: ('A' for Active; 'I' for Inactive)
REMARK    1  A    between atoms: C_3  and  C_6
REMARK    2  A    between atoms: C_6  and  N_7
REMARK    3  A    between atoms: N_7  and  S_8
REMARK    4  A    between atoms: S_8  and  C_11
REMARK    5  A    between atoms: C_18  and  S_26
REMARK    6  A    between atoms: S_26  and  N_29
REMARK    7  A    between atoms: N_29  and  C_30
REMARK    8  A    between atoms: C_30  and  C_31
REMARK                            x       y       z     vdW  Elec       q    Type
REMARK                         _______ _______ _______ _____ _____    ______ ____
ROOT
ATOM      1  C   UNL     1      -0.954   1.915  -1.397  0.00  0.00    +0.106 A 
ATOM      2  C   UNL     1      -0.753   3.174  -1.945  0.00  0.00    +0.029 A 
ATOM      3  C   UNL     1      -1.476   3.584  -3.046  0.00  0.00    +0.011 A 
ATOM      4  C   UNL     1      -2.413   2.727  -3.610  0.00  0.00    -0.000 A 
ATOM      5  C   UNL     1      -3.216   3.110  -4.788  0.00  0.00    +0.025 A 
ATOM      6  C   UNL     1      -3.058   4.361  -5.381  0.00  0.00    +0.014 A 
ATOM      7  C   UNL     1      -3.817   4.699  -6.481  0.00  0.00    +0.029 A 
ATOM      8  C   UNL     1      -4.736   3.798  -6.995  0.00  0.00    +0.109 A 
ATOM      9  C   UNL     1      -4.901   2.557  -6.416  0.00  0.00    +0.075 A 
ATOM     10  C   UNL     1      -4.144   2.197  -5.307  0.00  0.00    +0.142 A 
ATOM     11  O   UNL     1      -4.314   0.979  -4.747  0.00  0.00    -0.422 OA
ATOM     12  C   UNL     1      -3.618   0.565  -3.676  0.00  0.00    +0.345 A 
ATOM     13  O   UNL     1      -3.815  -0.543  -3.217  0.00  0.00    -0.245 OA
ATOM     14  C   UNL     1      -2.619   1.447  -3.054  0.00  0.00    +0.069 A 
ATOM     15  C   UNL     1      -1.876   1.049  -1.946  0.00  0.00    +0.044 A 
ENDROOT
BRANCH   1  16
ATOM     16  S   UNL     1      -0.017   1.417   0.010  0.00  0.00    +0.059 S 
ATOM     17  O   UNL     1       0.002  -0.004   0.002  0.00  0.00    -0.153 OA
ATOM     18  O   UNL     1       1.172   2.195   0.003  0.00  0.00    -0.153 OA
BRANCH  16  19
ATOM     19  N   UNL     1      -0.872   1.871   1.353  0.00  0.00    -0.183 NA
ATOM     20  H   UNL     1      -0.510   2.541   1.955  0.00  0.00    +0.148 HD
BRANCH  19  21
ATOM     21  C   UNL     1      -2.174   1.261   1.634  0.00  0.00    +0.180 C 
BRANCH  21  24
ATOM     22  C   UNL     1      -3.413   2.493   4.879  0.00  0.00    +0.041 A 
ATOM     23  C   UNL     1      -3.273   2.619   3.478  0.00  0.00    +0.046 A 
ATOM     24  C   UNL     1      -2.569   1.553   3.059  0.00  0.00    +0.120 A 
ATOM     25  O   UNL     1      -2.282   0.788   4.125  0.00  0.00    -0.466 OA
ATOM     26  C   UNL     1      -2.787   1.357   5.232  0.00  0.00    +0.195 A 
ENDBRANCH  21  24
ENDBRANCH  19  21
ENDBRANCH  16  19
ENDBRANCH   1  16
BRANCH   8  27
ATOM     27  S   UNL     1      -5.701   4.241  -8.401  0.00  0.00    +0.059 S 
ATOM     28  O   UNL     1      -4.974   5.248  -9.092  0.00  0.00    -0.153 OA
ATOM     29  O   UNL     1      -6.096   3.026  -9.022  0.00  0.00    -0.153 OA
BRANCH  27  30
ATOM     30  N   UNL     1      -7.084   4.957  -7.839  0.00  0.00    -0.183 NA
ATOM     31  H   UNL     1      -7.944   4.534  -7.987  0.00  0.00    +0.148 HD
BRANCH  30  32
ATOM     32  C   UNL     1      -7.009   6.231  -7.119  0.00  0.00    +0.180 C 
BRANCH  32  33
ATOM     33  C   UNL     1      -8.383   6.846  -7.042  0.00  0.00    +0.120 A 
ATOM     34  C   UNL     1      -9.280   6.645  -6.060  0.00  0.00    +0.046 A 
ATOM     35  C   UNL     1     -10.423   7.410  -6.387  0.00  0.00    +0.041 A 
ATOM     36  C   UNL     1     -10.156   8.033  -7.549  0.00  0.00    +0.195 A 
ATOM     37  O   UNL     1      -8.916   7.692  -7.938  0.00  0.00    -0.466 OA
ENDBRANCH  32  33
ENDBRANCH  30  32
ENDBRANCH  27  30
ENDBRANCH   8  27
TORSDOF 8
