REMARK  Name = ZINC36690293
REMARK  11 active torsions:
REMARK  status: ('A' for Active; 'I' for Inactive)
REMARK    1  A    between atoms: C_1  and  C_2
REMARK    2  A    between atoms: C_2  and  N_3
REMARK    3  A    between atoms: N_3  and  C_4
REMARK    4  A    between atoms: N_3  and  C_6
REMARK    5  A    between atoms: C_4  and  C_5
REMARK    6  A    between atoms: C_6  and  C_7
REMARK    7  A    between atoms: C_7  and  N_8
REMARK    8  A    between atoms: C_18  and  C_20
REMARK    9  A    between atoms: C_23  and  S_26
REMARK   10  A    between atoms: S_26  and  N_29
REMARK   11  A    between atoms: C_34  and  C_36
REMARK                            x       y       z     vdW  Elec       q    Type
REMARK                         _______ _______ _______ _____ _____    ______ ____
ROOT
ATOM      1  N   UNL     1       1.075  -3.250  -0.308  0.00  0.00    -0.248 N 
ATOM      2  C   UNL     1       0.010  -3.894  -0.914  0.00  0.00    +0.168 A 
ATOM      3  N   UNL     1      -0.764  -3.470  -1.885  0.00  0.00    -0.224 NA
ATOM      4  C   UNL     1      -1.776  -4.212  -2.384  0.00  0.00    +0.080 A 
ATOM      5  C   UNL     1      -2.677  -3.876  -3.420  0.00  0.00    +0.029 A 
ATOM      6  C   UNL     1      -3.657  -4.752  -3.808  0.00  0.00    +0.002 A 
ATOM      7  C   UNL     1      -3.801  -5.993  -3.203  0.00  0.00    +0.001 A 
ATOM      8  C   UNL     1      -2.937  -6.355  -2.186  0.00  0.00    +0.017 A 
ATOM      9  C   UNL     1      -1.953  -5.483  -1.791  0.00  0.00    +0.041 A 
ATOM     10  S   UNL     1      -0.656  -5.519  -0.577  0.00  0.00    -0.052 S 
ATOM     11  C   UNL     1       1.823  -3.899   0.607  0.00  0.00    +0.252 C 
ATOM     12  O   UNL     1       1.607  -5.070   0.849  0.00  0.00    -0.270 OA
ENDROOT
BRANCH  11  13
ATOM     13  C   UNL     1       2.906  -3.186   1.316  0.00  0.00    +0.037 A 
ATOM     14  C   UNL     1       2.828  -1.805   1.508  0.00  0.00    +0.015 A 
ATOM     15  C   UNL     1       3.842  -1.145   2.171  0.00  0.00    +0.029 A 
ATOM     16  C   UNL     1       4.935  -1.849   2.645  0.00  0.00    +0.106 A 
ATOM     17  C   UNL     1       5.019  -3.217   2.459  0.00  0.00    +0.029 A 
ATOM     18  C   UNL     1       4.008  -3.890   1.803  0.00  0.00    +0.015 A 
BRANCH  16  19
ATOM     19  S   UNL     1       6.226  -0.999   3.490  0.00  0.00    +0.061 S 
ATOM     20  O   UNL     1       7.429  -1.698   3.202  0.00  0.00    -0.153 OA
ATOM     21  O   UNL     1       6.060   0.383   3.200  0.00  0.00    -0.153 OA
BRANCH  19  22
ATOM     22  N   UNL     1       5.951  -1.178   5.113  0.00  0.00    -0.174 NA
ATOM     23  C   UNL     1       6.663  -2.205   5.884  0.00  0.00    +0.110 C 
ATOM     24  C   UNL     1       7.342  -1.539   7.085  0.00  0.00    +0.017 C 
ATOM     25  C   UNL     1       6.298  -0.761   7.889  0.00  0.00    +0.003 C 
ATOM     26  C   UNL     1       5.686   0.333   7.011  0.00  0.00    +0.020 C 
ATOM     27  C   UNL     1       4.994  -0.308   5.810  0.00  0.00    +0.077 C 
ATOM     28  C   UNL     1       4.505   0.785   4.858  0.00  0.00    +0.026 C 
ENDBRANCH  19  22
ENDBRANCH  16  19
ENDBRANCH  11  13
BRANCH   1  29
ATOM     29  C   UNL     1       1.390  -1.864  -0.661  0.00  0.00    +0.097 C 
BRANCH  29  30
ATOM     30  C   UNL     1       0.321  -0.935  -0.083  0.00  0.00    -0.059 C 
BRANCH  30  31
ATOM     31  N   UNL     1       0.636   0.455  -0.437  0.00  0.00    +0.380 N 
ATOM     32  H   UNL     1       1.571   0.677  -0.129  0.00  0.00    -0.082 HD
BRANCH  31  34
ATOM     33  C   UNL     1       0.986   2.037  -2.273  0.00  0.00    -0.017 C 
ATOM     34  C   UNL     1       0.548   0.621  -1.894  0.00  0.00    -0.082 C 
ENDBRANCH  31  34
BRANCH  31  35
ATOM     35  C   UNL     1      -0.322   1.357   0.217  0.00  0.00    -0.082 C 
ATOM     36  C   UNL     1      -0.150   1.269   1.735  0.00  0.00    -0.017 C 
ENDBRANCH  31  35
ENDBRANCH  30  31
ENDBRANCH  29  30
ENDBRANCH   1  29
TORSDOF 8
