REMARK  Name = ZINC35971613
REMARK  14 active torsions:
REMARK  status: ('A' for Active; 'I' for Inactive)
REMARK    1  A    between atoms: C_1  and  C_2
REMARK    2  A    between atoms: C_2  and  C_3
REMARK    3  A    between atoms: C_2  and  C_4
REMARK    4  A    between atoms: C_4  and  C_6
REMARK    5  A    between atoms: C_4  and  N_14
REMARK    6  A    between atoms: N_8  and  C_9
REMARK    7  A    between atoms: C_9  and  C_10
REMARK    8  A    between atoms: C_10  and  N_11
REMARK    9  A    between atoms: N_11  and  C_12
REMARK   10  A    between atoms: N_11  and  C_13
REMARK   11  A    between atoms: C_20  and  C_29
REMARK   12  A    between atoms: N_25  and  C_26
REMARK   13  A    between atoms: C_26  and  C_27
REMARK   14  A    between atoms: C_34  and  C_35
REMARK                            x       y       z     vdW  Elec       q    Type
REMARK                         _______ _______ _______ _____ _____    ______ ____
ROOT
ATOM      1  N   UNL     1       1.553  -2.013   1.230  0.00  0.00    -0.280 N 
ATOM      2  C   UNL     1       0.853  -2.541   2.410  0.00  0.00    +0.160 C 
ATOM      3  C   UNL     1       1.248  -3.999   2.477  0.00  0.00    +0.043 C 
ATOM      4  C   UNL     1       2.076  -4.216   1.435  0.00  0.00    +0.058 C 
ATOM      5  C   UNL     1       2.250  -3.030   0.692  0.00  0.00    +0.247 C 
ATOM      6  O   UNL     1       2.943  -2.938  -0.304  0.00  0.00    -0.270 OA
ATOM      7  C   UNL     1       2.634  -5.614   1.256  0.00  0.00    +0.142 C 
ATOM      8  N   UNL     1       2.222  -6.626   2.243  0.00  0.00    -0.288 N 
ATOM      9  C   UNL     1       1.386  -6.256   3.233  0.00  0.00    +0.307 C 
ATOM     10  O   UNL     1       1.041  -7.085   4.052  0.00  0.00    -0.252 OA
ATOM     11  N   UNL     1       0.923  -5.004   3.343  0.00  0.00    -0.253 N 
ATOM     12  H   UNL     1       2.545  -7.539   2.181  0.00  0.00    +0.151 HD
ENDROOT
BRANCH   7  13
ATOM     13  C   UNL     1       4.138  -5.521   1.285  0.00  0.00    -0.011 A 
ATOM     14  C   UNL     1       4.788  -5.211   2.465  0.00  0.00    +0.006 A 
ATOM     15  C   UNL     1       6.168  -5.126   2.492  0.00  0.00    +0.000 A 
ATOM     16  C   UNL     1       6.896  -5.353   1.339  0.00  0.00    +0.001 A 
ATOM     17  C   UNL     1       6.246  -5.664   0.160  0.00  0.00    +0.013 A 
ATOM     18  C   UNL     1       4.867  -5.753   0.134  0.00  0.00    +0.060 A 
BRANCH  18  19
ATOM     19  C   UNL     1       4.158  -6.097  -1.150  0.00  0.00    +0.418 C 
ATOM     20  F   UNL     1       5.098  -6.260  -2.173  0.00  0.00    -0.166 F 
ATOM     21  F   UNL     1       3.441  -7.287  -0.983  0.00  0.00    -0.166 F 
ATOM     22  F   UNL     1       3.276  -5.065  -1.488  0.00  0.00    -0.166 F 
ENDBRANCH  18  19
ENDBRANCH   7  13
BRANCH   1  23
ATOM     23  C   UNL     1       1.498  -0.637   0.731  0.00  0.00    +0.165 C 
BRANCH  23  24
ATOM     24  C   UNL     1       2.859  -0.002   0.854  0.00  0.00    +0.234 C 
ATOM     25  O   UNL     1       3.830  -0.690   1.089  0.00  0.00    -0.274 OA
ATOM     26  N   UNL     1       2.998   1.330   0.704  0.00  0.00    -0.316 N 
ATOM     27  H   UNL     1       2.215   1.887   0.568  0.00  0.00    +0.149 HD
BRANCH  26  28
ATOM     28  C   UNL     1       4.330   1.937   0.747  0.00  0.00    +0.085 C 
BRANCH  28  29
ATOM     29  C   UNL     1       4.208   3.450   0.552  0.00  0.00    -0.061 C 
BRANCH  29  30
ATOM     30  N   UNL     1       5.544   4.059   0.594  0.00  0.00    +0.377 N 
ATOM     31  C   UNL     1       6.335   3.583  -0.548  0.00  0.00    -0.097 C 
ATOM     32  C   UNL     1       5.418   5.521   0.527  0.00  0.00    -0.097 C 
ATOM     33  H   UNL     1       6.004   3.800   1.454  0.00  0.00    -0.083 HD
ENDBRANCH  29  30
ENDBRANCH  28  29
ENDBRANCH  26  28
ENDBRANCH  23  24
BRANCH  23  35
ATOM     34  C   UNL     1      -0.245  -1.413  -0.883  0.00  0.00    +0.009 C 
ATOM     35  C   UNL     1       1.070  -0.645  -0.738  0.00  0.00    +0.012 C 
ATOM     36  C   UNL     1       0.876   0.794  -1.221  0.00  0.00    +0.009 C 
ENDBRANCH  23  35
ENDBRANCH   1  23
BRANCH  11  37
ATOM     37  C   UNL     1       0.018  -4.696   4.453  0.00  0.00    +0.141 C 
BRANCH  37  38
ATOM     38  C   UNL     1      -1.406  -4.930   4.020  0.00  0.00    -0.015 C 
ATOM     39  C   UNL     1      -2.178  -5.731   4.712  0.00  0.00    +0.005 C 
ENDBRANCH  37  38
ENDBRANCH  11  37
TORSDOF 10
