REMARK  Name = ZINC34814518
REMARK  3 active torsions:
REMARK  status: ('A' for Active; 'I' for Inactive)
REMARK    1  A    between atoms: C_1  and  C_2
REMARK    2  A    between atoms: C_13  and  C_17
REMARK    3  A    between atoms: N_27  and  C_28
REMARK                            x       y       z     vdW  Elec       q    Type
REMARK                         _______ _______ _______ _____ _____    ______ ____
ROOT
ATOM      1  C   UNL     1      -0.424   1.242  -0.349  0.00  0.00    +0.044 C 
ATOM      2  C   UNL     1      -0.268  -0.253  -0.229  0.00  0.00    -0.050 A 
ATOM      3  C   UNL     1      -0.209  -1.033  -1.371  0.00  0.00    +0.007 A 
ATOM      4  C   UNL     1      -0.091  -2.407  -1.278  0.00  0.00    +0.047 A 
ATOM      5  C   UNL     1      -0.019  -3.007  -0.032  0.00  0.00    +0.139 A 
ATOM      6  C   UNL     1      -0.035  -2.216   1.121  0.00  0.00    +0.055 A 
ATOM      7  C   UNL     1      -0.179  -0.837   1.019  0.00  0.00    +0.018 A 
ATOM      8  C   UNL     1       0.178  -2.872   2.430  0.00  0.00    +0.110 C 
ATOM      9  N   UNL     1       1.348  -3.571   2.626  0.00  0.00    -0.298 N 
ATOM     10  C   UNL     1       1.713  -4.660   1.819  0.00  0.00    +0.075 A 
ATOM     11  C   UNL     1       2.793  -5.422   2.269  0.00  0.00    +0.027 A 
ATOM     12  C   UNL     1       3.232  -6.515   1.553  0.00  0.00    +0.005 A 
ATOM     13  C   UNL     1       2.597  -6.862   0.375  0.00  0.00    -0.047 A 
ATOM     14  C   UNL     1       1.531  -6.115  -0.076  0.00  0.00    +0.051 A 
ATOM     15  C   UNL     1       1.077  -5.006   0.642  0.00  0.00    +0.150 A 
ATOM     16  O   UNL     1       0.024  -4.348   0.108  0.00  0.00    -0.453 OA
ATOM     17  C   UNL     1       3.071  -8.055  -0.414  0.00  0.00    +0.044 C 
ATOM     18  N   UNL     1      -0.718  -2.789   3.373  0.00  0.00    -0.357 N 
ATOM     19  C   UNL     1      -0.580  -3.666   4.546  0.00  0.00    +0.119 C 
ATOM     20  C   UNL     1      -0.856  -2.934   5.863  0.00  0.00    +0.040 C 
ATOM     21  C   UNL     1      -0.235  -1.552   5.838  0.00  0.00    +0.111 C 
ATOM     22  N   UNL     1      -1.194  -0.636   5.220  0.00  0.00    -0.284 N 
ATOM     23  C   UNL     1      -1.364  -0.473   3.818  0.00  0.00    +0.130 C 
ATOM     24  C   UNL     1      -1.799  -1.832   3.217  0.00  0.00    +0.136 C 
ATOM     25  C   UNL     1      -1.970   0.104   6.036  0.00  0.00    +0.302 C 
ATOM     26  O   UNL     1      -2.841   0.812   5.569  0.00  0.00    -0.253 OA
ATOM     27  N   UNL     1      -1.781   0.059   7.370  0.00  0.00    -0.296 N 
ATOM     28  H   UNL     1      -1.040  -0.448   7.738  0.00  0.00    +0.151 HD
ATOM     29  H   UNL     1       1.941  -3.301   3.345  0.00  0.00    +0.154 HD
ENDROOT
BRANCH  27  30
ATOM     30  C   UNL     1      -2.693   0.777   8.264  0.00  0.00    +0.074 C 
ATOM     31  C   UNL     1      -2.239   2.232   8.396  0.00  0.00    +0.022 C 
ATOM     32  C   UNL     1      -3.192   2.981   9.329  0.00  0.00    +0.002 C 
ATOM     33  C   UNL     1      -3.183   2.317  10.708  0.00  0.00    +0.000 C 
ATOM     34  C   UNL     1      -3.637   0.862  10.575  0.00  0.00    +0.002 C 
ATOM     35  C   UNL     1      -2.684   0.112   9.642  0.00  0.00    +0.022 C 
ENDBRANCH  27  30
TORSDOF 1
