REMARK  Name = ZINC39943956
REMARK  8 active torsions:
REMARK  status: ('A' for Active; 'I' for Inactive)
REMARK    1  A    between atoms: C_1  and  C_2
REMARK    2  A    between atoms: C_6  and  N_12
REMARK    3  A    between atoms: C_9  and  C_11
REMARK    4  A    between atoms: C_13  and  C_15
REMARK    5  A    between atoms: C_15  and  S_16
REMARK    6  A    between atoms: S_16  and  C_17
REMARK    7  A    between atoms: C_21  and  C_30
REMARK    8  A    between atoms: N_22  and  C_23
REMARK                            x       y       z     vdW  Elec       q    Type
REMARK                         _______ _______ _______ _____ _____    ______ ____
ROOT
ATOM      1  S   UNL     1      -6.481  -5.133  -1.837  0.00  0.00    -0.108 S 
ENDROOT
BRANCH   1   2
ATOM      2  C   UNL     1      -6.239  -6.826  -2.441  0.00  0.00    +0.241 C 
ATOM      3  N   UNL     1      -4.823  -7.216  -2.333  0.00  0.00    -0.237 N 
ATOM      4  N   UNL     1      -4.388  -7.482  -3.637  0.00  0.00    -0.168 NA
ATOM      5  C   UNL     1      -5.337  -7.309  -4.498  0.00  0.00    +0.153 C 
ATOM      6  N   UNL     1      -6.525  -6.906  -3.883  0.00  0.00    -0.254 N 
ATOM      7  H   UNL     1      -4.296  -7.275  -1.521  0.00  0.00    +0.171 HD
BRANCH   6   8
ATOM      8  C   UNL     1      -7.743  -6.633  -4.511  0.00  0.00    +0.038 A 
ATOM      9  C   UNL     1      -8.727  -7.611  -4.576  0.00  0.00    +0.025 A 
ATOM     10  C   UNL     1      -9.931  -7.338  -5.196  0.00  0.00    +0.022 A 
ATOM     11  C   UNL     1     -10.156  -6.091  -5.752  0.00  0.00    +0.041 A 
ATOM     12  C   UNL     1      -9.178  -5.114  -5.688  0.00  0.00    +0.022 A 
ATOM     13  C   UNL     1      -7.975  -5.380  -5.065  0.00  0.00    +0.025 A 
ATOM     14 CL   UNL     1     -11.670  -5.751  -6.531  0.00  0.00    -0.084 Cl
ENDBRANCH   6   8
BRANCH   5  15
ATOM     15  C   UNL     1      -5.184  -7.513  -5.954  0.00  0.00    +0.017 A 
ATOM     16  C   UNL     1      -3.925  -7.778  -6.496  0.00  0.00    +0.011 A 
ATOM     17  C   UNL     1      -3.790  -7.968  -7.856  0.00  0.00    +0.001 A 
ATOM     18  C   UNL     1      -4.898  -7.895  -8.682  0.00  0.00    +0.000 A 
ATOM     19  C   UNL     1      -6.148  -7.632  -8.150  0.00  0.00    +0.001 A 
ATOM     20  C   UNL     1      -6.298  -7.446  -6.792  0.00  0.00    +0.011 A 
ENDBRANCH   5  15
ENDBRANCH   1   2
BRANCH   1  21
ATOM     21  C   UNL     1      -5.349  -4.141  -2.850  0.00  0.00    +0.168 C 
BRANCH  21  23
ATOM     22  N   UNL     1      -4.697  -1.764  -3.066  0.00  0.00    -0.285 N 
ATOM     23  C   UNL     1      -5.452  -2.692  -2.446  0.00  0.00    +0.225 C 
ATOM     24  O   UNL     1      -6.214  -2.362  -1.561  0.00  0.00    -0.275 OA
ATOM     25  H   UNL     1      -4.088  -2.028  -3.774  0.00  0.00    +0.151 HD
BRANCH  22  30
ATOM     26  C   UNL     1      -2.641   3.112  -5.014  0.00  0.00    +0.030 C 
ATOM     27  C   UNL     1      -2.218   1.828  -4.298  0.00  0.00    +0.099 C 
ATOM     28  C   UNL     1      -3.440   1.042  -3.905  0.00  0.00    -0.011 C 
ATOM     29  C   UNL     1      -3.461   0.306  -2.781  0.00  0.00    +0.065 C 
ATOM     30  C   UNL     1      -4.797  -0.356  -2.673  0.00  0.00    +0.243 C 
ATOM     31  O   UNL     1      -5.662   0.357  -3.584  0.00  0.00    -0.347 OA
ATOM     32  C   UNL     1      -4.769   0.899  -4.581  0.00  0.00    +0.146 C 
ATOM     33  C   UNL     1      -4.657  -0.061  -5.767  0.00  0.00    +0.043 C 
ATOM     34  C   UNL     1      -2.283   0.273  -1.900  0.00  0.00    +0.258 C 
ATOM     35  O   UNL     1      -2.203  -0.489  -0.956  0.00  0.00    -0.269 OA
ATOM     36  N   UNL     1      -1.290   1.144  -2.208  0.00  0.00    -0.247 N 
ATOM     37  N   UNL     1      -1.459   2.166  -3.087  0.00  0.00    -0.233 NA
ATOM     38  H   UNL     1      -0.424   1.033  -1.785  0.00  0.00    +0.169 HD
ATOM     39  H   UNL     1      -0.577   2.595  -3.321  0.00  0.00    +0.145 HD
ENDBRANCH  22  30
ENDBRANCH  21  23
ENDBRANCH   1  21
TORSDOF 6
