REMARK  Name = ZINC16956813
REMARK  8 active torsions:
REMARK  status: ('A' for Active; 'I' for Inactive)
REMARK    1  A    between atoms: C_1  and  C_2
REMARK    2  A    between atoms: C_2  and  O_3
REMARK    3  A    between atoms: O_3  and  C_4
REMARK    4  A    between atoms: C_4  and  C_6
REMARK    5  A    between atoms: N_11  and  N_22
REMARK    6  A    between atoms: N_14  and  C_15
REMARK    7  A    between atoms: C_18  and  C_21
REMARK    8  A    between atoms: N_25  and  C_26
REMARK                            x       y       z     vdW  Elec       q    Type
REMARK                         _______ _______ _______ _____ _____    ______ ____
ROOT
ATOM      1  C   UNL     1       0.464   3.168   0.860  0.00  0.00    +0.157 A 
ATOM      2  C   UNL     1       1.791   3.441   0.654  0.00  0.00    +0.083 A 
ATOM      3  S   UNL     1       1.731   5.098   0.139  0.00  0.00    -0.058 S 
ATOM      4  C   UNL     1      -0.039   5.317   0.231  0.00  0.00    +0.186 A 
ATOM      5  N   UNL     1      -0.437   4.128   0.635  0.00  0.00    -0.217 NA
ATOM      6  N   UNL     1      -0.797   6.445  -0.054  0.00  0.00    -0.146 N 
ATOM      7  C   UNL     1      -0.193   7.577  -0.464  0.00  0.00    +0.329 C 
ATOM      8  O   UNL     1       1.016   7.612  -0.585  0.00  0.00    -0.250 OA
ATOM      9  N   UNL     1      -0.929   8.672  -0.741  0.00  0.00    -0.268 N 
ATOM     10  H   UNL     1      -1.898   8.623  -0.717  0.00  0.00    +0.156 HD
ENDROOT
BRANCH   9  11
ATOM     11  C   UNL     1      -0.297   9.878  -1.061  0.00  0.00    +0.035 A 
ATOM     12  C   UNL     1       0.922  10.200  -0.479  0.00  0.00    +0.023 A 
ATOM     13  C   UNL     1       1.547  11.389  -0.802  0.00  0.00    +0.005 A 
ATOM     14  C   UNL     1       0.954  12.263  -1.695  0.00  0.00    -0.050 A 
ATOM     15  C   UNL     1      -0.263  11.948  -2.272  0.00  0.00    +0.005 A 
ATOM     16  C   UNL     1      -0.889  10.758  -1.957  0.00  0.00    +0.023 A 
ATOM     17  C   UNL     1       1.636  13.562  -2.041  0.00  0.00    +0.044 C 
ENDBRANCH   9  11
BRANCH   6  18
ATOM     18  N   UNL     1      -2.191   6.405   0.085  0.00  0.00    -0.208 N 
ATOM     19  C   UNL     1      -2.780   7.010   1.135  0.00  0.00    +0.321 C 
ATOM     20  O   UNL     1      -3.990   6.976   1.256  0.00  0.00    -0.251 OA
ATOM     21  N   UNL     1      -2.030   7.654   2.051  0.00  0.00    -0.268 N 
ATOM     22  H   UNL     1      -2.731   5.942  -0.574  0.00  0.00    +0.175 HD
ATOM     23  H   UNL     1      -1.074   7.746   1.916  0.00  0.00    +0.156 HD
BRANCH  21  24
ATOM     24  C   UNL     1      -2.630   8.189   3.197  0.00  0.00    +0.035 A 
ATOM     25  C   UNL     1      -2.127   9.352   3.767  0.00  0.00    +0.025 A 
ATOM     26  C   UNL     1      -2.724   9.880   4.894  0.00  0.00    +0.022 A 
ATOM     27  C   UNL     1      -3.816   9.247   5.463  0.00  0.00    +0.041 A 
ATOM     28  C   UNL     1      -4.315   8.085   4.900  0.00  0.00    +0.022 A 
ATOM     29  C   UNL     1      -3.725   7.555   3.769  0.00  0.00    +0.025 A 
ATOM     30 CL   UNL     1      -4.560   9.911   6.884  0.00  0.00    -0.084 Cl
ENDBRANCH  21  24
ENDBRANCH   6  18
BRANCH   1  31
ATOM     31  C   UNL     1       0.037   1.837   1.316  0.00  0.00    +0.358 C 
ATOM     32  O   UNL     1       0.864   0.968   1.514  0.00  0.00    -0.243 OA
BRANCH  31  33
ATOM     33  O   UNL     1      -1.271   1.580   1.516  0.00  0.00    -0.460 OA
BRANCH  33  35
ATOM     34  C   UNL     1      -3.137   0.143   2.136  0.00  0.00    +0.048 C 
ATOM     35  C   UNL     1      -1.619   0.244   1.966  0.00  0.00    +0.229 C 
ENDBRANCH  33  35
ENDBRANCH  31  33
ENDBRANCH   1  31
TORSDOF 6
