REMARK  Name = ZINC20257551
REMARK  5 active torsions:
REMARK  status: ('A' for Active; 'I' for Inactive)
REMARK    1  A    between atoms: C_1  and  C_2
REMARK    2  A    between atoms: N_8  and  S_9
REMARK    3  A    between atoms: S_9  and  N_12
REMARK    4  A    between atoms: N_12  and  C_13
REMARK    5  A    between atoms: C_16  and  N_19
REMARK                            x       y       z     vdW  Elec       q    Type
REMARK                         _______ _______ _______ _____ _____    ______ ____
ROOT
ATOM      1  N   UNL     1       1.425  -2.602   1.000  0.00  0.00    -0.206 N 
ATOM      2  H   UNL     1       0.951  -3.490   1.443  0.00  0.00    +0.175 HD
ENDROOT
BRANCH   1   3
ATOM      3  C   UNL     1       1.539  -1.423   1.747  0.00  0.00    +0.049 A 
ATOM      4  C   UNL     1       0.451  -0.950   2.467  0.00  0.00    +0.026 A 
ATOM      5  C   UNL     1       0.563   0.213   3.205  0.00  0.00    +0.024 A 
ATOM      6  C   UNL     1       1.765   0.907   3.226  0.00  0.00    +0.025 A 
ATOM      7  C   UNL     1       2.854   0.434   2.506  0.00  0.00    +0.024 A 
ATOM      8  C   UNL     1       2.741  -0.728   1.768  0.00  0.00    +0.026 A 
BRANCH   6   9
ATOM      9  N   UNL     1       1.879   2.086   3.973  0.00  0.00    -0.358 N 
ATOM     10  H   UNL     1       2.832   2.636   3.990  0.00  0.00    +0.142 HD
ATOM     11  H   UNL     1       1.017   2.461   4.544  0.00  0.00    +0.142 HD
ENDBRANCH   6   9
ENDBRANCH   1   3
BRANCH   1  12
ATOM     12  S   UNL     1       2.003  -2.658  -0.551  0.00  0.00    +0.112 S 
ATOM     13  O   UNL     1       1.776  -3.979  -1.021  0.00  0.00    -0.138 OA
ATOM     14  O   UNL     1       1.490  -1.513  -1.218  0.00  0.00    -0.138 OA
BRANCH  12  21
ATOM     15  C   UNL     1       3.660  -4.783   0.317  0.00  0.00    +0.026 C 
ATOM     16  C   UNL     1       4.502  -3.531   0.061  0.00  0.00    +0.078 C 
ATOM     17  C   UNL     1       5.591  -3.847  -0.969  0.00  0.00    +0.020 C 
ATOM     18  C   UNL     1       6.340  -2.560  -1.324  0.00  0.00    +0.003 C 
ATOM     19  C   UNL     1       5.365  -1.555  -1.943  0.00  0.00    +0.017 C 
ATOM     20  C   UNL     1       4.274  -1.216  -0.929  0.00  0.00    +0.111 C 
ATOM     21  N   UNL     1       3.646  -2.461  -0.468  0.00  0.00    -0.161 NA
ENDBRANCH  12  21
ENDBRANCH   1  12
TORSDOF 4
