REMARK  Name = ZINC01568178
REMARK  4 active torsions:
REMARK  status: ('A' for Active; 'I' for Inactive)
REMARK    1  A    between atoms: N_3  and  C_4
REMARK    2  A    between atoms: N_11  and  N_12
REMARK    3  A    between atoms: C_13  and  C_14
REMARK    4  A    between atoms: C_13  and  C_21
REMARK                            x       y       z     vdW  Elec       q    Type
REMARK                         _______ _______ _______ _____ _____    ______ ____
ROOT
ATOM      1  N   UNL     1       3.921   6.379  -0.279  0.00  0.00    -0.171 NA
ATOM      2  C   UNL     1       4.296   7.449   0.370  0.00  0.00    +0.098 C 
ENDROOT
BRANCH   1   6
ATOM      3  H   UNL     1       4.019   4.332  -1.657  0.00  0.00    +0.159 HD
ATOM      4  C   UNL     1       2.164   4.945  -1.079  0.00  0.00    +0.194 C 
ATOM      5  N   UNL     1       0.827   4.628  -1.170  0.00  0.00    -0.327 N 
ATOM      6  N   UNL     1       2.561   6.056  -0.371  0.00  0.00    -0.248 N 
ATOM      7  H   UNL     1       0.160   5.227  -0.800  0.00  0.00    +0.169 HD
ATOM      8  H   UNL     1       1.899   6.617   0.063  0.00  0.00    +0.192 HD
ATOM      9  N   UNL     1       3.018   4.139  -1.695  0.00  0.00    -0.370 N 
ATOM     10  H   UNL     1       2.671   3.322  -2.211  0.00  0.00    +0.159 HD
BRANCH   5  11
ATOM     11  C   UNL     1       0.430   3.442  -1.797  0.00  0.00    +0.042 A 
ATOM     12  C   UNL     1       1.207   2.297  -1.675  0.00  0.00    +0.027 A 
ATOM     13  C   UNL     1       0.813   1.127  -2.295  0.00  0.00    +0.022 A 
ATOM     14  C   UNL     1      -0.355   1.095  -3.037  0.00  0.00    +0.041 A 
ATOM     15  C   UNL     1      -1.131   2.234  -3.160  0.00  0.00    +0.022 A 
ATOM     16  C   UNL     1      -0.742   3.407  -2.542  0.00  0.00    +0.027 A 
ATOM     17 CL   UNL     1      -0.847  -0.377  -3.814  0.00  0.00    -0.084 Cl
ENDBRANCH   5  11
ENDBRANCH   1   6
BRANCH   2  18
ATOM     18  C   UNL     1       5.736   7.720   0.582  0.00  0.00    +0.003 A 
ATOM     19  C   UNL     1       6.151   8.959   1.069  0.00  0.00    +0.011 A 
ATOM     20  C   UNL     1       7.494   9.204   1.269  0.00  0.00    +0.020 A 
ATOM     21  C   UNL     1       8.430   8.226   0.978  0.00  0.00    +0.041 A 
ATOM     22  C   UNL     1       8.024   6.996   0.489  0.00  0.00    +0.020 A 
ATOM     23  C   UNL     1       6.683   6.738   0.290  0.00  0.00    +0.011 A 
ATOM     24 CL   UNL     1      10.118   8.543   1.227  0.00  0.00    -0.084 Cl
ENDBRANCH   2  18
BRANCH   2  25
ATOM     25  C   UNL     1       3.281   8.391   0.892  0.00  0.00    +0.003 A 
ATOM     26  C   UNL     1       2.202   8.773   0.094  0.00  0.00    +0.011 A 
ATOM     27  C   UNL     1       1.257   9.647   0.588  0.00  0.00    +0.020 A 
ATOM     28  C   UNL     1       1.382  10.155   1.870  0.00  0.00    +0.041 A 
ATOM     29  C   UNL     1       2.454   9.784   2.665  0.00  0.00    +0.020 A 
ATOM     30  C   UNL     1       3.402   8.906   2.183  0.00  0.00    +0.011 A 
ATOM     31 CL   UNL     1       0.192  11.259   2.483  0.00  0.00    -0.084 Cl
ENDBRANCH   2  25
TORSDOF 4
