REMARK  Name = ZINC09721369
REMARK  7 active torsions:
REMARK  status: ('A' for Active; 'I' for Inactive)
REMARK    1  A    between atoms: C_1  and  C_2
REMARK    2  A    between atoms: C_2  and  C_3
REMARK    3  A    between atoms: C_2  and  N_4
REMARK    4  A    between atoms: C_8  and  C_10
REMARK    5  A    between atoms: C_10  and  N_11
REMARK    6  A    between atoms: C_14  and  C_18
REMARK    7  A    between atoms: C_14  and  C_19
REMARK                            x       y       z     vdW  Elec       q    Type
REMARK                         _______ _______ _______ _____ _____    ______ ____
ROOT
ATOM      1  N   UNL     1       1.069  -2.183  -0.020  0.00  0.00    -0.215 N 
ATOM      2  C   UNL     1       0.957  -2.937   1.092  0.00  0.00    +0.251 C 
ATOM      3  O   UNL     1       1.039  -2.561   2.242  0.00  0.00    -0.272 OA
ATOM      4  C   UNL     1       0.705  -4.350   0.606  0.00  0.00    +0.135 C 
ATOM      5  N   UNL     1       0.712  -4.218  -0.861  0.00  0.00    -0.281 N 
ATOM      6  C   UNL     1       0.932  -2.918  -1.129  0.00  0.00    +0.310 C 
ATOM      7  O   UNL     1       0.998  -2.463  -2.254  0.00  0.00    -0.252 OA
ATOM      8  C   UNL     1       1.826  -5.282   1.069  0.00  0.00    +0.047 C 
ATOM      9  H   UNL     1       0.584  -4.930  -1.508  0.00  0.00    +0.152 HD
ENDROOT
BRANCH   4  10
ATOM     10  C   UNL     1      -0.633  -4.850   1.087  0.00  0.00    -0.015 A 
ATOM     11  C   UNL     1      -1.107  -4.450   2.335  0.00  0.00    +0.007 A 
ATOM     12  C   UNL     1      -2.311  -4.883   2.799  0.00  0.00    +0.009 A 
ATOM     13  C   UNL     1      -3.091  -5.745   2.010  0.00  0.00    -0.018 A 
ATOM     14  C   UNL     1      -4.340  -6.212   2.455  0.00  0.00    +0.008 A 
ATOM     15  C   UNL     1      -5.068  -7.046   1.663  0.00  0.00    +0.001 A 
ATOM     16  C   UNL     1      -4.594  -7.446   0.415  0.00  0.00    +0.001 A 
ATOM     17  C   UNL     1      -3.390  -7.013  -0.049  0.00  0.00    +0.008 A 
ATOM     18  C   UNL     1      -2.610  -6.152   0.741  0.00  0.00    -0.018 A 
ATOM     19  C   UNL     1      -1.364  -5.679   0.293  0.00  0.00    +0.014 A 
ENDBRANCH   4  10
BRANCH   1  20
ATOM     20  C   UNL     1       1.317  -0.740  -0.015  0.00  0.00    +0.214 C 
BRANCH  20  25
ATOM     21  N   UNL     1      -1.211   3.349   0.026  0.00  0.00    -0.297 N 
ATOM     22  C   UNL     1      -1.192   2.002   0.019  0.00  0.00    +0.306 C 
ATOM     23  O   UNL     1      -2.237   1.380   0.020  0.00  0.00    -0.252 OA
ATOM     24  N   UNL     1      -0.016   1.344   0.009  0.00  0.00    -0.239 N 
ATOM     25  C   UNL     1       0.002  -0.004   0.002  0.00  0.00    +0.238 C 
ATOM     26  O   UNL     1      -1.040  -0.625   0.009  0.00  0.00    -0.274 OA
ATOM     27  H   UNL     1      -0.377   3.845   0.025  0.00  0.00    +0.151 HD
ATOM     28  H   UNL     1       0.817   1.840   0.004  0.00  0.00    +0.159 HD
BRANCH  21  30
ATOM     29  C   UNL     1      -2.989   4.196   1.476  0.00  0.00    +0.027 C 
ATOM     30  C   UNL     1      -2.489   4.064   0.036  0.00  0.00    +0.068 C 
ATOM     31  C   UNL     1      -2.299   5.457  -0.567  0.00  0.00    +0.027 C 
ENDBRANCH  21  30
ENDBRANCH  20  25
ENDBRANCH   1  20
TORSDOF 4
