REMARK  Name = ZINC37271944
REMARK  8 active torsions:
REMARK  status: ('A' for Active; 'I' for Inactive)
REMARK    1  A    between atoms: C_1  and  C_2
REMARK    2  A    between atoms: C_2  and  C_4
REMARK    3  A    between atoms: C_2  and  N_12
REMARK    4  A    between atoms: N_12  and  C_13
REMARK    5  A    between atoms: C_19  and  C_21
REMARK    6  A    between atoms: C_21  and  C_22
REMARK    7  A    between atoms: C_21  and  C_23
REMARK    8  A    between atoms: C_21  and  C_24
REMARK                            x       y       z     vdW  Elec       q    Type
REMARK                         _______ _______ _______ _____ _____    ______ ____
ROOT
ATOM      1  N   UNL     1       0.470   0.315  -2.711  0.00  0.00    +0.385 N 
ATOM      2  H   UNL     1       0.583   1.313  -2.802  0.00  0.00    -0.085 HD
ATOM      3  H   UNL     1       1.347  -0.142  -2.912  0.00  0.00    -0.085 HD
ENDROOT
BRANCH   1   4
ATOM      4  C   UNL     1      -0.553  -0.151  -3.656  0.00  0.00    -0.067 C 
ATOM      5  C   UNL     1      -0.855   0.956  -4.667  0.00  0.00    -0.015 C 
ATOM      6  C   UNL     1      -1.921   0.471  -5.652  0.00  0.00    -0.002 C 
ATOM      7  C   UNL     1      -1.408  -0.768  -6.389  0.00  0.00    +0.000 C 
ATOM      8  C   UNL     1      -1.106  -1.875  -5.377  0.00  0.00    +0.002 C 
ATOM      9  C   UNL     1      -0.040  -1.390  -4.393  0.00  0.00    -0.020 C 
BRANCH   9  10
ATOM     10  C   UNL     1       0.262  -2.497  -3.381  0.00  0.00    -0.036 C 
ATOM     11  C   UNL     1      -0.935  -2.671  -2.444  0.00  0.00    +0.011 C 
ATOM     12  C   UNL     1       0.523  -3.809  -4.124  0.00  0.00    +0.011 C 
ATOM     13  C   UNL     1       1.499  -2.118  -2.565  0.00  0.00    +0.011 C 
ENDBRANCH   9  10
ENDBRANCH   1   4
BRANCH   1  15
ATOM     14  C   UNL     1      -1.415   0.376  -1.149  0.00  0.00    -0.009 C 
ATOM     15  C   UNL     1       0.054  -0.007  -1.339  0.00  0.00    -0.044 C 
BRANCH  15  16
ATOM     16  C   UNL     1       0.904   0.763  -0.362  0.00  0.00    -0.060 A 
ATOM     17  C   UNL     1       1.243   2.077  -0.627  0.00  0.00    +0.005 A 
ATOM     18  C   UNL     1       2.022   2.784   0.269  0.00  0.00    +0.040 A 
ATOM     19  C   UNL     1       2.464   2.177   1.432  0.00  0.00    +0.137 A 
ATOM     20  C   UNL     1       2.124   0.861   1.696  0.00  0.00    +0.053 A 
ATOM     21  C   UNL     1       1.340   0.157   0.801  0.00  0.00    +0.020 A 
ATOM     22 BR   UNL     1       2.727   0.029   3.284  0.00  0.00    -0.047 Br
ATOM     23  F   UNL     1       3.226   2.868   2.307  0.00  0.00    -0.204 F 
ENDBRANCH  15  16
ENDBRANCH   1  15
TORSDOF 4
