REMARK  Name = ZINC39756791
REMARK  11 active torsions:
REMARK  status: ('A' for Active; 'I' for Inactive)
REMARK    1  A    between atoms: C_1  and  C_2
REMARK    2  A    between atoms: C_4  and  S_9
REMARK    3  A    between atoms: C_5  and  C_8
REMARK    4  A    between atoms: S_9  and  N_12
REMARK    5  A    between atoms: N_12  and  C_13
REMARK    6  A    between atoms: C_13  and  C_14
REMARK    7  A    between atoms: C_14  and  C_15
REMARK    8  A    between atoms: N_17  and  C_18
REMARK    9  A    between atoms: C_18  and  C_20
REMARK   10  A    between atoms: C_18  and  C_27
REMARK   11  A    between atoms: C_20  and  C_21
REMARK                            x       y       z     vdW  Elec       q    Type
REMARK                         _______ _______ _______ _____ _____    ______ ____
ROOT
ATOM      1  C   UNL     1       3.686   3.522  -3.953  0.00  0.00    +0.215 C 
ATOM      2  O   UNL     1       4.523   2.812  -3.436  0.00  0.00    -0.276 OA
ATOM      3  N   UNL     1       4.050   4.687  -4.524  0.00  0.00    -0.308 N 
ATOM      4  H   UNL     1       3.380   5.254  -4.937  0.00  0.00    +0.149 HD
ENDROOT
BRANCH   1   5
ATOM      5  C   UNL     1       2.239   3.101  -3.955  0.00  0.00    +0.112 C 
BRANCH   5   6
ATOM      6  C   UNL     1       2.099   1.751  -3.249  0.00  0.00    +0.115 C 
BRANCH   6   7
ATOM      7  N   UNL     1       0.692   1.342  -3.251  0.00  0.00    -0.190 NA
ATOM      8  H   UNL     1      -0.001   1.988  -3.461  0.00  0.00    +0.148 HD
BRANCH   7   9
ATOM      9  S   UNL     1       0.284  -0.224  -2.897  0.00  0.00    +0.059 S 
ATOM     10  O   UNL     1       1.123  -1.052  -3.691  0.00  0.00    -0.153 OA
ATOM     11  O   UNL     1      -1.134  -0.297  -2.954  0.00  0.00    -0.153 OA
BRANCH   9  14
ATOM     12  C   UNL     1      -0.019   1.526   0.010  0.00  0.00    +0.047 C 
ATOM     13  C   UNL     1       0.002  -0.004   0.002  0.00  0.00    +0.196 C 
ATOM     14  C   UNL     1       0.735  -0.512  -1.218  0.00  0.00    +0.134 C 
ATOM     15  C   UNL     1       1.772  -1.208  -0.801  0.00  0.00    +0.061 C 
ATOM     16  N   UNL     1       1.832  -1.235   0.581  0.00  0.00    -0.268 N 
ATOM     17  O   UNL     1       0.748  -0.498   1.124  0.00  0.00    -0.265 OA
ATOM     18  C   UNL     1       2.763  -1.888  -1.710  0.00  0.00    +0.067 C 
ATOM     19  H   UNL     1       2.513  -1.690   1.100  0.00  0.00    +0.194 HD
ENDBRANCH   9  14
ENDBRANCH   7   9
ENDBRANCH   6   7
ENDBRANCH   5   6
ENDBRANCH   1   5
BRANCH   3  20
ATOM     20  C   UNL     1       5.457   5.096  -4.521  0.00  0.00    +0.110 C 
BRANCH  20  21
ATOM     21  C   UNL     1       5.710   6.031  -5.676  0.00  0.00    -0.027 A 
ATOM     22  C   UNL     1       4.774   6.994  -6.003  0.00  0.00    +0.005 A 
ATOM     23  C   UNL     1       5.006   7.852  -7.062  0.00  0.00    +0.000 A 
ATOM     24  C   UNL     1       6.175   7.748  -7.792  0.00  0.00    +0.000 A 
ATOM     25  C   UNL     1       7.111   6.785  -7.464  0.00  0.00    +0.000 A 
ATOM     26  C   UNL     1       6.881   5.930  -6.403  0.00  0.00    +0.005 A 
ENDBRANCH  20  21
BRANCH  20  27
ATOM     27  C   UNL     1       5.778   5.809  -3.207  0.00  0.00    +0.099 C 
BRANCH  27  28
ATOM     28  C   UNL     1       5.643   4.838  -2.062  0.00  0.00    +0.086 A 
ATOM     29  N   UNL     1       4.536   4.607  -1.374  0.00  0.00    -0.350 N 
ATOM     30  H   UNL     1       3.677   5.033  -1.520  0.00  0.00    +0.166 HD
ATOM     31  C   UNL     1       4.809   3.678  -0.435  0.00  0.00    +0.101 A 
ATOM     32  C   UNL     1       6.108   3.344  -0.565  0.00  0.00    +0.101 A 
ATOM     33  N   UNL     1       6.610   4.072  -1.584  0.00  0.00    -0.350 N 
ATOM     34  H   UNL     1       7.524   4.040  -1.909  0.00  0.00    +0.166 HD
ENDBRANCH  27  28
ENDBRANCH  20  27
ENDBRANCH   3  20
TORSDOF 9
