REMARK  Name = ZINC09333803
REMARK  7 active torsions:
REMARK  status: ('A' for Active; 'I' for Inactive)
REMARK    1  A    between atoms: C_1  and  C_2
REMARK    2  A    between atoms: C_2  and  C_37
REMARK    3  A    between atoms: C_6  and  C_25
REMARK    4  A    between atoms: N_8  and  C_16
REMARK    5  A    between atoms: C_16  and  N_18
REMARK    6  A    between atoms: N_18  and  C_19
REMARK    7  A    between atoms: C_29  and  N_31
REMARK                            x       y       z     vdW  Elec       q    Type
REMARK                         _______ _______ _______ _____ _____    ______ ____
ROOT
ATOM      1  C   UNL     1       1.059   2.307  -3.482  0.00  0.00    +0.011 C 
ATOM      2  C   UNL     1       1.524   3.758  -3.617  0.00  0.00    -0.023 C 
ATOM      3  C   UNL     1       2.939   3.902  -3.060  0.00  0.00    +0.058 C 
ATOM      4  C   UNL     1       2.962   3.510  -1.593  0.00  0.00    +0.017 C 
ATOM      5  C   UNL     1       1.888   3.721  -0.812  0.00  0.00    +0.037 C 
ATOM      6  C   UNL     1       1.782   3.391   0.657  0.00  0.00    +0.146 C 
ATOM      7  N   UNL     1       3.038   3.046   1.289  0.00  0.00    -0.269 N 
ATOM      8  C   UNL     1       3.739   1.900   0.913  0.00  0.00    +0.057 A 
ATOM      9  C   UNL     1       3.932   0.847   1.792  0.00  0.00    +0.025 A 
ATOM     10  C   UNL     1       4.592  -0.289   1.358  0.00  0.00    +0.002 A 
ATOM     11  C   UNL     1       5.054  -0.377   0.057  0.00  0.00    +0.002 A 
ATOM     12  C   UNL     1       4.879   0.681  -0.819  0.00  0.00    +0.025 A 
ATOM     13  C   UNL     1       4.239   1.826  -0.379  0.00  0.00    +0.053 A 
ATOM     14  N   UNL     1       4.131   2.966  -1.167  0.00  0.00    -0.316 N 
ATOM     15  C   UNL     1       0.716   4.298  -1.356  0.00  0.00    +0.163 C 
ATOM     16  O   UNL     1      -0.234   4.495  -0.624  0.00  0.00    -0.292 OA
ATOM     17  C   UNL     1       0.606   4.676  -2.802  0.00  0.00    +0.086 C 
ATOM     18  C   UNL     1       1.501   4.176  -5.089  0.00  0.00    +0.011 C 
ATOM     19  H   UNL     1       5.088   3.431  -1.444  0.00  0.00    +0.152 HD
ENDROOT
BRANCH   6  20
ATOM     20  C   UNL     1       0.833   2.233   0.819  0.00  0.00    -0.020 A 
ATOM     21  C   UNL     1       1.173   0.986   0.328  0.00  0.00    +0.006 A 
ATOM     22  C   UNL     1       0.302  -0.077   0.477  0.00  0.00    +0.003 A 
ATOM     23  C   UNL     1      -0.912   0.108   1.112  0.00  0.00    +0.033 A 
ATOM     24  C   UNL     1      -1.250   1.353   1.608  0.00  0.00    +0.127 A 
ATOM     25  C   UNL     1      -0.379   2.416   1.459  0.00  0.00    +0.038 A 
BRANCH  24  26
ATOM     26  N   UNL     1      -2.547   1.550   2.294  0.00  0.00    +0.056 N 
ATOM     27  O   UNL     1      -2.846   2.648   2.728  0.00  0.00    -0.126 OA
ATOM     28  O   UNL     1      -3.315   0.614   2.425  0.00  0.00    -0.126 OA
ENDBRANCH  24  26
ENDBRANCH   6  20
BRANCH   7  29
ATOM     29  C   UNL     1       3.537   3.843   2.255  0.00  0.00    +0.142 C 
ATOM     30  S   UNL     1       2.687   5.253   2.726  0.00  0.00    -0.018 S 
BRANCH  29  31
ATOM     31  N   UNL     1       4.706   3.531   2.849  0.00  0.00    -0.296 N 
ATOM     32  H   UNL     1       5.303   2.685   2.478  0.00  0.00    +0.154 HD
BRANCH  31  33
ATOM     33  C   UNL     1       5.159   4.283   3.938  0.00  0.00    +0.033 A 
ATOM     34  C   UNL     1       6.508   4.591   4.057  0.00  0.00    +0.023 A 
ATOM     35  C   UNL     1       6.952   5.338   5.131  0.00  0.00    +0.002 A 
ATOM     36  C   UNL     1       6.056   5.770   6.092  0.00  0.00    +0.000 A 
ATOM     37  C   UNL     1       4.713   5.460   5.979  0.00  0.00    +0.002 A 
ATOM     38  C   UNL     1       4.262   4.718   4.905  0.00  0.00    +0.023 A 
ENDBRANCH  31  33
ENDBRANCH  29  31
ENDBRANCH   7  29
TORSDOF 5
