REMARK  Name = ZINC02126249
REMARK  7 active torsions:
REMARK  status: ('A' for Active; 'I' for Inactive)
REMARK    1  A    between atoms: C_1  and  C_2
REMARK    2  A    between atoms: C_7  and  C_8
REMARK    3  A    between atoms: C_17  and  C_19
REMARK    4  A    between atoms: C_19  and  C_20
REMARK    5  A    between atoms: C_20  and  S_21
REMARK    6  A    between atoms: S_21  and  C_22
REMARK    7  A    between atoms: N_25  and  C_28
REMARK                            x       y       z     vdW  Elec       q    Type
REMARK                         _______ _______ _______ _____ _____    ______ ____
ROOT
ATOM      1  C   UNL     1      -9.247  -0.780  -7.658  0.00  0.00    +0.044 C 
ATOM      2  C   UNL     1      -8.065  -0.539  -6.755  0.00  0.00    -0.046 A 
ATOM      3  C   UNL     1      -7.630  -1.542  -5.907  0.00  0.00    +0.004 A 
ATOM      4  C   UNL     1      -6.545  -1.321  -5.077  0.00  0.00    +0.005 A 
ATOM      5  C   UNL     1      -5.901  -0.104  -5.097  0.00  0.00    -0.027 A 
ATOM      6  C   UNL     1      -6.328   0.912  -5.946  0.00  0.00    +0.039 A 
ATOM      7  C   UNL     1      -7.422   0.681  -6.777  0.00  0.00    -0.026 A 
ATOM      8  C   UNL     1      -7.903   1.768  -7.704  0.00  0.00    +0.046 C 
ATOM      9  N   UNL     1      -5.523   2.043  -5.788  0.00  0.00    -0.286 N 
ATOM     10  C   UNL     1      -4.557   1.855  -4.868  0.00  0.00    +0.211 C 
ATOM     11  O   UNL     1      -3.716   2.659  -4.527  0.00  0.00    -0.277 OA
ATOM     12  C   UNL     1      -4.724   0.455  -4.347  0.00  0.00    +0.050 C 
ATOM     13  C   UNL     1      -4.967   0.445  -2.833  0.00  0.00    +0.088 C 
ATOM     14  C   UNL     1      -4.243  -0.836  -2.330  0.00  0.00    +0.073 C 
ATOM     15  C   UNL     1      -3.640  -1.474  -3.599  0.00  0.00    -0.057 C 
ATOM     16  C   UNL     1      -3.124  -0.290  -1.472  0.00  0.00    +0.224 C 
ATOM     17  O   UNL     1      -2.300  -0.959  -0.887  0.00  0.00    -0.275 OA
ATOM     18  N   UNL     1      -3.188   1.046  -1.455  0.00  0.00    -0.239 N 
ATOM     19  C   UNL     1      -4.183   1.564  -2.185  0.00  0.00    +0.225 C 
ATOM     20  O   UNL     1      -4.418   2.747  -2.309  0.00  0.00    -0.275 OA
ATOM     21  H   UNL     1      -5.646   2.868  -6.284  0.00  0.00    +0.155 HD
ATOM     22  N   UNL     1      -3.538  -0.359  -4.543  0.00  0.00    +0.394 N 
ATOM     23  H   UNL     1      -2.693   0.193  -4.350  0.00  0.00    -0.083 HD
ATOM     24  H   UNL     1      -3.504  -0.712  -5.506  0.00  0.00    -0.083 HD
ENDROOT
BRANCH  18  25
ATOM     25  C   UNL     1      -2.243   1.875  -0.703  0.00  0.00    +0.084 C 
ATOM     26  C   UNL     1      -0.809   1.622  -1.200  0.00  0.00    +0.023 C 
ATOM     27  C   UNL     1      -0.013   1.086   0.008  0.00  0.00    +0.002 C 
ATOM     28  C   UNL     1      -0.789   1.611   1.242  0.00  0.00    +0.002 C 
ATOM     29  C   UNL     1      -2.268   1.485   0.789  0.00  0.00    +0.023 C 
ENDBRANCH  18  25
BRANCH  15  30
ATOM     30  C   UNL     1      -2.266  -2.075  -3.294  0.00  0.00    -0.004 C 
BRANCH  30  31
ATOM     31  C   UNL     1      -1.711  -2.744  -4.553  0.00  0.00    +0.067 C 
BRANCH  31  32
ATOM     32  S   UNL     1      -0.083  -3.457  -4.191  0.00  0.00    -0.164 S 
ATOM     33  C   UNL     1       0.430  -4.202  -5.763  0.00  0.00    +0.084 C 
ENDBRANCH  31  32
ENDBRANCH  30  31
ENDBRANCH  15  30
TORSDOF 4
