REMARK  Name = ZINC12635438
REMARK  12 active torsions:
REMARK  status: ('A' for Active; 'I' for Inactive)
REMARK    1  A    between atoms: C_1  and  C_2
REMARK    2  A    between atoms: C_2  and  N_67
REMARK    3  A    between atoms: C_6  and  C_8
REMARK    4  A    between atoms: C_8  and  N_9
REMARK    5  A    between atoms: N_9  and  C_10
REMARK    6  A    between atoms: N_9  and  C_24
REMARK    7  A    between atoms: C_10  and  C_11
REMARK    8  A    between atoms: C_16  and  C_23
REMARK    9  A    between atoms: C_24  and  N_26
REMARK   10  A    between atoms: N_26  and  C_27
REMARK   11  A    between atoms: C_29  and  C_34
REMARK   12  A    between atoms: C_32  and  C_33
REMARK                            x       y       z     vdW  Elec       q    Type
REMARK                         _______ _______ _______ _____ _____    ______ ____
ROOT
ATOM      1  N   UNL     1       5.491   5.051  -1.499  0.00  0.00    -0.309 N 
ENDROOT
BRANCH   1   2
ATOM      2  C   UNL     1       4.946   6.137  -2.083  0.00  0.00    +0.137 C 
ATOM      3  S   UNL     1       4.551   7.509  -1.139  0.00  0.00    -0.018 S 
BRANCH   2   4
ATOM      4  N   UNL     1       4.711   6.142  -3.410  0.00  0.00    -0.297 N 
ATOM      5  H   UNL     1       4.862   5.339  -3.933  0.00  0.00    +0.154 HD
BRANCH   4   6
ATOM      6  C   UNL     1       4.250   7.306  -4.034  0.00  0.00    +0.036 A 
ATOM      7  C   UNL     1       3.255   8.069  -3.437  0.00  0.00    +0.027 A 
ATOM      8  C   UNL     1       2.803   9.218  -4.056  0.00  0.00    -0.049 A 
ATOM      9  C   UNL     1       3.339   9.608  -5.269  0.00  0.00    +0.004 A 
ATOM     10  C   UNL     1       4.329   8.851  -5.867  0.00  0.00    +0.005 A 
ATOM     11  C   UNL     1       4.791   7.704  -5.250  0.00  0.00    -0.029 A 
ATOM     12  C   UNL     1       5.875   6.883  -5.899  0.00  0.00    +0.045 C 
ATOM     13  C   UNL     1       1.724  10.046  -3.408  0.00  0.00    +0.044 C 
ENDBRANCH   4   6
ENDBRANCH   2   4
ENDBRANCH   1   2
BRANCH   1  14
ATOM     14  C   UNL     1       5.925   3.918  -2.321  0.00  0.00    +0.092 C 
BRANCH  14  18
ATOM     15  C   UNL     1       3.618   1.210  -1.478  0.00  0.00    -0.078 C 
ATOM     16  C   UNL     1       4.038   0.723  -2.881  0.00  0.00    -0.020 C 
ATOM     17  C   UNL     1       5.201   1.681  -3.250  0.00  0.00    -0.016 C 
ATOM     18  C   UNL     1       4.728   3.010  -2.609  0.00  0.00    -0.051 C 
ATOM     19  N   UNL     1       4.088   2.599  -1.343  0.00  0.00    +0.382 N 
ATOM     20  H   UNL     1       4.775   2.652  -0.582  0.00  0.00    -0.081 HD
BRANCH  19  22
ATOM     21  C   UNL     1       2.240   2.999   0.231  0.00  0.00    -0.017 C 
ATOM     22  C   UNL     1       2.947   3.498  -1.031  0.00  0.00    -0.082 C 
ENDBRANCH  19  22
ENDBRANCH  14  18
ENDBRANCH   1  14
BRANCH   1  23
ATOM     23  C   UNL     1       5.650   5.004  -0.044  0.00  0.00    +0.147 C 
BRANCH  23  24
ATOM     24  C   UNL     1       7.007   5.542   0.331  0.00  0.00    +0.035 A 
ATOM     25  C   UNL     1       7.146   6.846   0.674  0.00  0.00    +0.020 A 
ATOM     26  C   UNL     1       8.477   7.338   1.033  0.00  0.00    -0.001 A 
ATOM     27  C   UNL     1       8.682   8.673   1.397  0.00  0.00    +0.010 A 
ATOM     28  C   UNL     1       9.937   9.100   1.726  0.00  0.00    +0.004 A 
ATOM     29  C   UNL     1      11.011   8.221   1.703  0.00  0.00    -0.048 A 
ATOM     30  C   UNL     1      10.833   6.901   1.349  0.00  0.00    +0.029 A 
ATOM     31  C   UNL     1       9.564   6.443   1.010  0.00  0.00    +0.049 A 
ATOM     32  N   UNL     1       9.356   5.128   0.651  0.00  0.00    -0.322 N 
ATOM     33  H   UNL     1      10.106   4.513   0.635  0.00  0.00    +0.169 HD
ATOM     34  C   UNL     1       8.130   4.686   0.323  0.00  0.00    +0.254 A 
ATOM     35  O   UNL     1       7.983   3.517   0.011  0.00  0.00    -0.268 OA
ATOM     36  C   UNL     1      12.387   8.715   2.070  0.00  0.00    +0.044 C 
ENDBRANCH  23  24
ENDBRANCH   1  23
TORSDOF 8
