REMARK  Name = ZINC59888314
REMARK  13 active torsions:
REMARK  status: ('A' for Active; 'I' for Inactive)
REMARK    1  A    between atoms: C_1  and  C_2
REMARK    2  A    between atoms: C_2  and  O_3
REMARK    3  A    between atoms: O_3  and  C_4
REMARK    4  A    between atoms: C_14  and  C_16
REMARK    5  A    between atoms: C_16  and  S_17
REMARK    6  A    between atoms: S_17  and  C_18
REMARK    7  A    between atoms: N_23  and  N_24
REMARK    8  A    between atoms: C_25  and  C_26
REMARK    9  A    between atoms: C_27  and  C_35
REMARK   10  A    between atoms: N_29  and  C_32
REMARK   11  A    between atoms: C_30  and  C_31
REMARK   12  A    between atoms: C_32  and  C_33
REMARK   13  A    between atoms: C_33  and  O_34
REMARK                            x       y       z     vdW  Elec       q    Type
REMARK                         _______ _______ _______ _____ _____    ______ ____
ROOT
ATOM      1  C   UNL     1       1.661 -12.851   2.449  0.00  0.00    +0.211 A 
ATOM      2  N   UNL     1       1.356 -14.022   1.880  0.00  0.00    -0.186 NA
ATOM      3  C   UNL     1       1.807 -15.008   2.628  0.00  0.00    +0.232 A 
ATOM      4  N   UNL     1       2.418 -14.469   3.704  0.00  0.00    -0.245 N 
ATOM      5  N   UNL     1       2.316 -13.075   3.563  0.00  0.00    -0.144 NA
ATOM      6  N   UNL     1       1.678 -16.357   2.358  0.00  0.00    -0.205 N 
ATOM      7  H   UNL     1       2.045 -17.012   2.972  0.00  0.00    +0.177 HD
ATOM      8  H   UNL     1       2.847 -14.949   4.430  0.00  0.00    +0.192 HD
ENDROOT
BRANCH   6   9
ATOM      9  N   UNL     1       1.016 -16.779   1.197  0.00  0.00    -0.187 NA
ATOM     10  C   UNL     1       0.895 -18.046   0.944  0.00  0.00    +0.141 C 
BRANCH  10  11
ATOM     11  C   UNL     1       0.198 -18.491  -0.279  0.00  0.00    +0.038 A 
ATOM     12  C   UNL     1      -0.379 -17.659  -1.263  0.00  0.00    +0.069 A 
ATOM     13  N   UNL     1      -0.899 -18.422  -2.186  0.00  0.00    -0.176 NA
ATOM     14  N   UNL     1      -0.681 -19.761  -1.841  0.00  0.00    -0.266 N 
ATOM     15  C   UNL     1      -0.005 -19.795  -0.675  0.00  0.00    +0.045 A 
ATOM     16  C   UNL     1       0.444 -21.031   0.060  0.00  0.00    +0.066 C 
ATOM     17  C   UNL     1      -0.394 -16.152  -1.249  0.00  0.00    +0.068 C 
BRANCH  14  18
ATOM     18  C   UNL     1      -1.111 -20.927  -2.617  0.00  0.00    +0.171 C 
BRANCH  18  19
ATOM     19  C   UNL     1      -0.011 -21.316  -3.606  0.00  0.00    +0.179 C 
BRANCH  19  20
ATOM     20  O   UNL     1      -0.430 -22.453  -4.363  0.00  0.00    -0.393 OA
ATOM     21  H   UNL     1       0.221 -22.755  -5.011  0.00  0.00    +0.209 HD
ENDBRANCH  19  20
ENDBRANCH  18  19
ENDBRANCH  14  18
ENDBRANCH  10  11
ENDBRANCH   6   9
BRANCH   1  22
ATOM     22  S   UNL     1       1.256 -11.263   1.802  0.00  0.00    -0.075 S 
BRANCH  22  23
ATOM     23  C   UNL     1       1.944 -10.105   3.017  0.00  0.00    +0.173 C 
BRANCH  23  34
ATOM     24  C   UNL     1       0.802  -1.825   1.306  0.00  0.00    +0.122 A 
ATOM     25  C   UNL     1       0.261  -2.683   0.353  0.00  0.00    +0.048 A 
ATOM     26  C   UNL     1       0.358  -4.043   0.478  0.00  0.00    +0.032 A 
ATOM     27  C   UNL     1       1.015  -4.623   1.588  0.00  0.00    +0.081 A 
ATOM     28  C   UNL     1       1.553  -3.724   2.536  0.00  0.00    +0.044 A 
ATOM     29  C   UNL     1       1.459  -2.361   2.403  0.00  0.00    +0.063 A 
ATOM     30  S   UNL     1       2.271  -4.823   3.734  0.00  0.00    -0.052 S 
ATOM     31  C   UNL     1       1.827  -6.355   2.928  0.00  0.00    +0.165 A 
ATOM     32  N   UNL     1       1.195  -5.936   1.858  0.00  0.00    -0.225 NA
ATOM     33  N   UNL     1       2.086  -7.656   3.331  0.00  0.00    -0.264 N 
ATOM     34  C   UNL     1       1.664  -8.691   2.578  0.00  0.00    +0.229 C 
ATOM     35  O   UNL     1       1.059  -8.484   1.548  0.00  0.00    -0.275 OA
ATOM     36  H   UNL     1       2.570  -7.821   4.155  0.00  0.00    +0.157 HD
BRANCH  24  37
ATOM     37  O   UNL     1       0.693  -0.477   1.160  0.00  0.00    -0.492 OA
BRANCH  37  39
ATOM     38  C   UNL     1      -0.019   1.526   0.010  0.00  0.00    +0.048 C 
ATOM     39  C   UNL     1       0.002  -0.004   0.002  0.00  0.00    +0.225 C 
ENDBRANCH  37  39
ENDBRANCH  24  37
ENDBRANCH  23  34
ENDBRANCH  22  23
ENDBRANCH   1  22
TORSDOF 10
