REMARK  Name = ZINC09456292
REMARK  7 active torsions:
REMARK  status: ('A' for Active; 'I' for Inactive)
REMARK    1  A    between atoms: C_5  and  C_7
REMARK    2  A    between atoms: C_7  and  N_8
REMARK    3  A    between atoms: C_18  and  S_19
REMARK    4  A    between atoms: S_19  and  C_20
REMARK    5  A    between atoms: C_20  and  C_21
REMARK    6  A    between atoms: N_23  and  C_24
REMARK    7  A    between atoms: C_25  and  C_29
REMARK                            x       y       z     vdW  Elec       q    Type
REMARK                         _______ _______ _______ _____ _____    ______ ____
ROOT
ATOM      1  N   UNL     1       0.294  -2.807   0.117  0.00  0.00    -0.283 N 
ATOM      2  C   UNL     1       1.576  -2.424   0.323  0.00  0.00    +0.263 A 
ATOM      3  O   UNL     1       2.475  -3.242   0.398  0.00  0.00    -0.267 OA
ATOM      4  C   UNL     1       1.842  -0.985   0.451  0.00  0.00    +0.065 A 
ATOM      5  C   UNL     1       3.128  -0.490   0.665  0.00  0.00    +0.015 A 
ATOM      6  C   UNL     1       3.320   0.859   0.779  0.00  0.00    +0.001 A 
ATOM      7  C   UNL     1       2.250   1.739   0.682  0.00  0.00    +0.002 A 
ATOM      8  C   UNL     1       0.980   1.281   0.473  0.00  0.00    +0.028 A 
ATOM      9  C   UNL     1       0.751  -0.093   0.353  0.00  0.00    +0.079 A 
ATOM     10  N   UNL     1      -0.486  -0.588   0.146  0.00  0.00    -0.223 NA
ATOM     11  C   UNL     1      -0.701  -1.875   0.035  0.00  0.00    +0.173 A 
ENDROOT
BRANCH   1  12
ATOM     12  C   UNL     1      -0.027  -4.229  -0.018  0.00  0.00    +0.164 C 
BRANCH  12  17
ATOM     13  C   UNL     1       2.266  -5.900  -2.510  0.00  0.00    +0.000 A 
ATOM     14  C   UNL     1       1.575  -5.709  -3.692  0.00  0.00    +0.001 A 
ATOM     15  C   UNL     1       0.366  -5.040  -3.687  0.00  0.00    +0.020 A 
ATOM     16  C   UNL     1      -0.156  -4.565  -2.496  0.00  0.00    +0.046 A 
ATOM     17  C   UNL     1       0.538  -4.752  -1.314  0.00  0.00    -0.009 A 
ATOM     18  C   UNL     1       1.747  -5.421  -1.321  0.00  0.00    +0.007 A 
ATOM     19 CL   UNL     1      -1.678  -3.731  -2.488  0.00  0.00    -0.083 Cl
ENDBRANCH  12  17
ENDBRANCH   1  12
BRANCH  11  20
ATOM     20  S   UNL     1      -2.351  -2.431  -0.235  0.00  0.00    -0.078 S 
BRANCH  20  21
ATOM     21  C   UNL     1      -3.218  -0.843  -0.258  0.00  0.00    +0.173 C 
BRANCH  21  22
ATOM     22  C   UNL     1      -4.690  -1.077  -0.482  0.00  0.00    +0.228 C 
ATOM     23  O   UNL     1      -5.111  -2.207  -0.614  0.00  0.00    -0.275 OA
ATOM     24  N   UNL     1      -5.538  -0.031  -0.537  0.00  0.00    -0.279 N 
ATOM     25  H   UNL     1      -5.201   0.872  -0.432  0.00  0.00    +0.155 HD
BRANCH  24  26
ATOM     26  C   UNL     1      -6.892  -0.247  -0.743  0.00  0.00    +0.084 A 
ATOM     27  C   UNL     1      -7.914   0.693  -0.823  0.00  0.00    +0.065 A 
ATOM     28  C   UNL     1      -9.246   0.185  -1.050  0.00  0.00    +0.022 A 
ATOM     29  C   UNL     1      -9.386  -1.149  -1.154  0.00  0.00    +0.048 A 
ATOM     30  S   UNL     1      -7.722  -1.752  -0.955  0.00  0.00    -0.081 S 
BRANCH  27  31
ATOM     31  C   UNL     1      -7.650   2.128  -0.688  0.00  0.00    +0.244 C 
ATOM     32  O   UNL     1      -6.515   2.524  -0.500  0.00  0.00    -0.270 OA
ATOM     33  N   UNL     1      -8.666   3.011  -0.771  0.00  0.00    -0.325 N 
ATOM     34  H   UNL     1      -9.571   2.696  -0.920  0.00  0.00    +0.145 HD
ATOM     35  H   UNL     1      -8.492   3.961  -0.681  0.00  0.00    +0.145 HD
ENDBRANCH  27  31
ENDBRANCH  24  26
ENDBRANCH  21  22
ENDBRANCH  20  21
ENDBRANCH  11  20
TORSDOF 7
