REMARK  Name = ZINC39564200
REMARK  6 active torsions:
REMARK  status: ('A' for Active; 'I' for Inactive)
REMARK    1  A    between atoms: C_4  and  N_7
REMARK    2  A    between atoms: C_15  and  C_17
REMARK    3  A    between atoms: N_19  and  C_20
REMARK    4  A    between atoms: C_20  and  C_22
REMARK    5  A    between atoms: C_20  and  C_32
REMARK    6  A    between atoms: C_22  and  C_23
REMARK                            x       y       z     vdW  Elec       q    Type
REMARK                         _______ _______ _______ _____ _____    ______ ____
ROOT
ATOM      1  C   UNL     1       4.137  -4.250  -2.436  0.00  0.00    +0.232 C 
ATOM      2  O   UNL     1       3.154  -3.927  -1.804  0.00  0.00    -0.274 OA
ATOM      3  N   UNL     1       4.894  -5.285  -2.020  0.00  0.00    -0.302 N 
ATOM      4  H   UNL     1       5.681  -5.544  -2.525  0.00  0.00    +0.150 HD
ENDROOT
BRANCH   1  13
ATOM      5  N   UNL     1       4.188  -0.255  -1.953  0.00  0.00    -0.296 N 
ATOM      6  C   UNL     1       4.331  -1.579  -2.165  0.00  0.00    +0.303 C 
ATOM      7  O   UNL     1       4.332  -2.348  -1.223  0.00  0.00    -0.253 OA
ATOM      8  N   UNL     1       4.472  -2.049  -3.420  0.00  0.00    -0.278 N 
ATOM      9  C   UNL     1       4.596  -1.131  -4.562  0.00  0.00    +0.091 C 
ATOM     10  C   UNL     1       3.590  -1.556  -5.638  0.00  0.00    -0.063 C 
ATOM     11  N   UNL     1       3.800  -2.971  -5.971  0.00  0.00    +0.382 N 
ATOM     12  C   UNL     1       3.506  -3.809  -4.802  0.00  0.00    -0.050 C 
ATOM     13  C   UNL     1       4.513  -3.496  -3.685  0.00  0.00    +0.146 C 
ATOM     14  H   UNL     1       4.262   0.365  -2.696  0.00  0.00    +0.151 HD
ATOM     15  H   UNL     1       3.190  -3.230  -6.731  0.00  0.00    -0.086 HD
ATOM     16  H   UNL     1       4.760  -3.110  -6.251  0.00  0.00    -0.086 HD
BRANCH   5  20
ATOM     17  C   UNL     1       2.625   2.160   1.197  0.00  0.00    +0.000 C 
ATOM     18  C   UNL     1       4.128   2.218   0.918  0.00  0.00    +0.002 C 
ATOM     19  C   UNL     1       4.406   1.694  -0.492  0.00  0.00    +0.022 C 
ATOM     20  C   UNL     1       3.922   0.247  -0.603  0.00  0.00    +0.074 C 
ATOM     21  C   UNL     1       2.419   0.189  -0.324  0.00  0.00    +0.022 C 
ATOM     22  C   UNL     1       2.141   0.713   1.086  0.00  0.00    +0.002 C 
ENDBRANCH   5  20
ENDBRANCH   1  13
BRANCH   3  23
ATOM     23  C   UNL     1       4.529  -6.019  -0.806  0.00  0.00    +0.163 C 
BRANCH  23  24
ATOM     24  C   UNL     1       3.518  -7.083  -1.147  0.00  0.00    +0.231 C 
ATOM     25  O   UNL     1       3.140  -7.216  -2.292  0.00  0.00    -0.274 OA
ATOM     26  N   UNL     1       3.034  -7.888  -0.180  0.00  0.00    -0.328 N 
ATOM     27  H   UNL     1       3.336  -7.781   0.736  0.00  0.00    +0.145 HD
ATOM     28  H   UNL     1       2.383  -8.572  -0.400  0.00  0.00    +0.145 HD
ENDBRANCH  23  24
BRANCH  23  29
ATOM     29  C   UNL     1       5.777  -6.673  -0.210  0.00  0.00    +0.068 C 
BRANCH  29  30
ATOM     30  C   UNL     1       6.737  -5.604   0.244  0.00  0.00    -0.022 C 
ATOM     31  C   UNL     1       6.849  -5.100   1.496  0.00  0.00    -0.014 C 
ATOM     32  C   UNL     1       6.150  -5.359   2.807  0.00  0.00    +0.064 C 
ATOM     33  C   UNL     1       6.601  -4.547   4.003  0.00  0.00    -0.022 C 
ATOM     34  C   UNL     1       7.584  -3.649   3.845  0.00  0.00    -0.002 C 
ATOM     35  C   UNL     1       8.216  -3.430   2.614  0.00  0.00    +0.028 C 
ATOM     36  C   UNL     1       7.877  -4.122   1.459  0.00  0.00    +0.068 C 
ATOM     37  N   UNL     1       8.339  -4.077   0.191  0.00  0.00    -0.255 NA
ATOM     38  C   UNL     1       7.689  -4.945  -0.548  0.00  0.00    +0.115 C 
ENDBRANCH  29  30
ENDBRANCH  23  29
ENDBRANCH   3  23
TORSDOF 6
