REMARK  Name = ZINC09192548
REMARK  5 active torsions:
REMARK  status: ('A' for Active; 'I' for Inactive)
REMARK    1  A    between atoms: C_13  and  N_70
REMARK    2  A    between atoms: C_19  and  C_21
REMARK    3  A    between atoms: C_21  and  C_22
REMARK    4  A    between atoms: C_22  and  C_23
REMARK    5  A    between atoms: C_29  and  C_31
REMARK                            x       y       z     vdW  Elec       q    Type
REMARK                         _______ _______ _______ _____ _____    ______ ____
ROOT
ATOM      1  C   UNL     1       8.250   1.750   1.065  0.00  0.00    -0.058 C 
ATOM      2  C   UNL     1       7.379   1.186  -0.062  0.00  0.00    +0.089 C 
ATOM      3  N   UNL     1       6.084   1.884  -0.046  0.00  0.00    -0.305 N 
ATOM      4  C   UNL     1       6.087   3.355  -0.044  0.00  0.00    +0.089 C 
ATOM      5  C   UNL     1       7.009   3.834   1.088  0.00  0.00    -0.058 C 
ATOM      6  C   UNL     1       4.926   1.194  -0.039  0.00  0.00    +0.216 C 
ATOM      7  O   UNL     1       4.943  -0.018  -0.045  0.00  0.00    -0.276 OA
ATOM      8  N   UNL     1       8.342   3.218   0.905  0.00  0.00    +0.389 N 
ATOM      9  H   UNL     1       8.679   3.429  -0.042  0.00  0.00    -0.080 HD
ENDROOT
BRANCH   8  22
ATOM     10  C   UNL     1       7.980   3.638   5.933  0.00  0.00    +0.001 A 
ATOM     11  C   UNL     1       8.166   2.413   5.317  0.00  0.00    +0.000 A 
ATOM     12  C   UNL     1       8.592   2.355   4.002  0.00  0.00    +0.003 A 
ATOM     13  C   UNL     1       8.832   3.519   3.302  0.00  0.00    -0.049 A 
ATOM     14  C   UNL     1       8.648   4.756   3.913  0.00  0.00    -0.016 A 
ATOM     15  C   UNL     1       8.218   4.807   5.240  0.00  0.00    +0.009 A 
ATOM     16  C   UNL     1       8.974   5.836   2.949  0.00  0.00    -0.016 A 
ATOM     17  C   UNL     1       8.947   7.226   3.081  0.00  0.00    +0.009 A 
ATOM     18  C   UNL     1       9.303   8.026   2.016  0.00  0.00    +0.001 A 
ATOM     19  C   UNL     1       9.686   7.458   0.814  0.00  0.00    +0.000 A 
ATOM     20  C   UNL     1       9.714   6.082   0.676  0.00  0.00    +0.003 A 
ATOM     21  C   UNL     1       9.361   5.274   1.736  0.00  0.00    -0.049 A 
ATOM     22  C   UNL     1       9.294   3.774   1.888  0.00  0.00    -0.005 C 
ENDBRANCH   8  22
BRANCH   6  23
ATOM     23  C   UNL     1       3.611   1.930  -0.022  0.00  0.00    +0.105 C 
BRANCH  23  24
ATOM     24  C   UNL     1       2.462   0.920  -0.017  0.00  0.00    +0.105 C 
BRANCH  24  25
ATOM     25  C   UNL     1       1.147   1.655   0.000  0.00  0.00    +0.219 C 
ATOM     26  O   UNL     1       1.130   2.868   0.007  0.00  0.00    -0.275 OA
ATOM     27  N   UNL     1      -0.011   0.966   0.007  0.00  0.00    -0.263 N 
ATOM     28  C   UNL     1      -1.225   1.645   0.017  0.00  0.00    +0.188 A 
ATOM     29  N   UNL     1      -1.463   2.945   0.025  0.00  0.00    -0.126 NA
ATOM     30  N   UNL     1      -2.637   3.408   0.033  0.00  0.00    -0.144 NA
ATOM     31  C   UNL     1      -3.678   2.600   0.034  0.00  0.00    +0.107 A 
ATOM     32  S   UNL     1      -2.847   1.016   0.014  0.00  0.00    -0.035 S 
ATOM     33  H   UNL     1       0.002  -0.004   0.002  0.00  0.00    +0.157 HD
BRANCH  31  34
ATOM     34  C   UNL     1      -5.151   2.919   0.042  0.00  0.00    +0.047 C 
ATOM     35  C   UNL     1      -5.502   3.739  -1.202  0.00  0.00    +0.010 C 
ATOM     36  C   UNL     1      -6.997   4.063  -1.193  0.00  0.00    +0.001 C 
ATOM     37  C   UNL     1      -7.337   4.870   0.061  0.00  0.00    +0.000 C 
ATOM     38  C   UNL     1      -6.986   4.050   1.305  0.00  0.00    +0.001 C 
ATOM     39  C   UNL     1      -5.491   3.726   1.297  0.00  0.00    +0.010 C 
ENDBRANCH  31  34
ENDBRANCH  24  25
ENDBRANCH  23  24
ENDBRANCH   6  23
TORSDOF 5
