REMARK  Name = ZINC20388680
REMARK  4 active torsions:
REMARK  status: ('A' for Active; 'I' for Inactive)
REMARK    1  A    between atoms: C_4  and  C_7
REMARK    2  A    between atoms: C_8  and  C_9
REMARK    3  A    between atoms: C_14  and  N_16
REMARK    4  A    between atoms: N_16  and  C_17
REMARK                            x       y       z     vdW  Elec       q    Type
REMARK                         _______ _______ _______ _____ _____    ______ ____
ROOT
ATOM      1  C   UNL     1       5.489  -2.767   0.467  0.00  0.00    +0.020 C 
ATOM      2  C   UNL     1       5.402  -4.126   0.384  0.00  0.00    +0.079 C 
ATOM      3  C   UNL     1       6.475  -5.141   0.305  0.00  0.00    +0.276 C 
ATOM      4  O   UNL     1       7.656  -4.831   0.306  0.00  0.00    -0.267 OA
ATOM      5  N   UNL     1       6.087  -6.397   0.235  0.00  0.00    -0.150 NA
ATOM      6  C   UNL     1       4.812  -6.746   0.234  0.00  0.00    +0.189 C 
ATOM      7  S   UNL     1       3.958  -5.182   0.349  0.00  0.00    -0.047 S 
ENDROOT
BRANCH   1   9
ATOM      8  C   UNL     1       4.403  -0.640   0.621  0.00  0.00    +0.008 C 
ATOM      9  C   UNL     1       4.316  -1.989   0.539  0.00  0.00    +0.002 C 
BRANCH   8  13
ATOM     10  C   UNL     1       0.874   1.701   0.837  0.00  0.00    +0.000 A 
ATOM     11  C   UNL     1       2.112   2.320   0.851  0.00  0.00    +0.001 A 
ATOM     12  C   UNL     1       3.264   1.566   0.781  0.00  0.00    +0.008 A 
ATOM     13  C   UNL     1       3.179   0.172   0.696  0.00  0.00    -0.025 A 
ATOM     14  C   UNL     1       1.923  -0.446   0.683  0.00  0.00    +0.008 A 
ATOM     15  C   UNL     1       0.781   0.323   0.754  0.00  0.00    +0.001 A 
ENDBRANCH   8  13
ENDBRANCH   1   9
BRANCH   6  16
ATOM     16  N   UNL     1       4.273  -8.009   0.165  0.00  0.00    -0.189 NA
BRANCH  16  17
ATOM     17  C   UNL     1       5.065  -9.078  -0.199  0.00  0.00    +0.216 C 
ATOM     18  N   UNL     1       4.663 -10.296   0.031  0.00  0.00    -0.267 NA
ATOM     19  N   UNL     1       6.280  -8.859  -0.804  0.00  0.00    -0.368 N 
ATOM     20  H   UNL     1       6.527  -7.965  -1.086  0.00  0.00    +0.159 HD
ATOM     21  H   UNL     1       6.890  -9.599  -0.949  0.00  0.00    +0.159 HD
ATOM     22  H   UNL     1       3.805 -10.450   0.458  0.00  0.00    +0.190 HD
ENDBRANCH  16  17
ENDBRANCH   6  16
TORSDOF 4
