REMARK  Name = ZINC09777249
REMARK  13 active torsions:
REMARK  status: ('A' for Active; 'I' for Inactive)
REMARK    1  A    between atoms: C_1  and  C_2
REMARK    2  A    between atoms: C_7  and  N_12
REMARK    3  A    between atoms: C_9  and  C_11
REMARK    4  A    between atoms: C_13  and  C_15
REMARK    5  A    between atoms: C_23  and  C_35
REMARK    6  A    between atoms: N_29  and  C_30
REMARK    7  A    between atoms: C_30  and  C_31
REMARK    8  A    between atoms: C_31  and  C_32
REMARK    9  A    between atoms: C_32  and  C_33
REMARK   10  A    between atoms: C_32  and  C_34
REMARK   11  A    between atoms: N_37  and  C_38
REMARK   12  A    between atoms: C_42  and  S_44
REMARK   13  A    between atoms: S_44  and  C_45
REMARK                            x       y       z     vdW  Elec       q    Type
REMARK                         _______ _______ _______ _____ _____    ______ ____
ROOT
ATOM      1  C   UNL     1      -2.704   3.274  -1.655  0.00  0.00    +0.198 C 
ATOM      2  C   UNL     1      -2.032   2.760  -0.420  0.00  0.00    +0.127 C 
ATOM      3  C   UNL     1      -1.078   3.767   0.195  0.00  0.00    +0.009 C 
ATOM      4  C   UNL     1      -0.575   3.176   1.269  0.00  0.00    +0.004 C 
ATOM      5  C   UNL     1      -1.185   1.769   1.271  0.00  0.00    +0.155 C 
ATOM      6  O   UNL     1      -2.526   2.032   0.680  0.00  0.00    -0.358 OA
ATOM      7  C   UNL     1      -0.426   1.077   0.073  0.00  0.00    +0.123 C 
ATOM      8  C   UNL     1      -1.182   1.618  -1.113  0.00  0.00    +0.128 C 
ATOM      9  C   UNL     1      -0.627   2.362  -2.257  0.00  0.00    +0.223 C 
ATOM     10  O   UNL     1       0.463   2.199  -2.763  0.00  0.00    -0.275 OA
ATOM     11  N   UNL     1      -1.579   3.275  -2.642  0.00  0.00    -0.287 N 
ENDROOT
BRANCH   1  13
ATOM     12  N   UNL     1      -4.466   4.852  -0.930  0.00  0.00    -0.311 N 
ATOM     13  C   UNL     1      -3.232   4.670  -1.439  0.00  0.00    +0.237 C 
ATOM     14  O   UNL     1      -2.545   5.628  -1.723  0.00  0.00    -0.274 OA
ATOM     15  H   UNL     1      -5.015   4.085  -0.703  0.00  0.00    +0.149 HD
BRANCH  12  21
ATOM     16  C   UNL     1      -8.573   7.579  -0.558  0.00  0.00    +0.008 C 
ATOM     17  C   UNL     1      -7.044   7.602  -0.529  0.00  0.00    -0.009 C 
ATOM     18  C   UNL     1      -6.567   8.123   0.828  0.00  0.00    +0.003 C 
ATOM     19  C   UNL     1      -5.037   8.146   0.856  0.00  0.00    +0.002 C 
ATOM     20  C   UNL     1      -4.502   6.729   0.637  0.00  0.00    +0.022 C 
ATOM     21  C   UNL     1      -4.979   6.208  -0.720  0.00  0.00    +0.076 C 
ATOM     22  C   UNL     1      -6.508   6.186  -0.749  0.00  0.00    +0.009 C 
ATOM     23  C   UNL     1      -6.985   5.664  -2.106  0.00  0.00    +0.009 C 
ENDBRANCH  12  21
ENDBRANCH   1  13
BRANCH   7  24
ATOM     24  C   UNL     1       1.020   1.500   0.032  0.00  0.00    +0.224 C 
ATOM     25  O   UNL     1       1.325   2.570  -0.450  0.00  0.00    -0.275 OA
ATOM     26  N   UNL     1       1.974   0.689   0.531  0.00  0.00    -0.285 N 
ATOM     27  H   UNL     1       1.738  -0.194   0.856  0.00  0.00    +0.155 HD
BRANCH  26  28
ATOM     28  C   UNL     1       3.304   1.121   0.580  0.00  0.00    +0.034 A 
ATOM     29  C   UNL     1       4.113   0.760   1.650  0.00  0.00    +0.023 A 
ATOM     30  C   UNL     1       5.427   1.186   1.700  0.00  0.00    +0.003 A 
ATOM     31  C   UNL     1       5.940   1.971   0.686  0.00  0.00    +0.015 A 
ATOM     32  C   UNL     1       5.136   2.335  -0.388  0.00  0.00    +0.009 A 
ATOM     33  C   UNL     1       3.817   1.904  -0.443  0.00  0.00    +0.038 A 
BRANCH  32  34
ATOM     34  S   UNL     1       5.792   3.337  -1.681  0.00  0.00    -0.129 S 
ATOM     35  C   UNL     1       7.510   3.632  -1.180  0.00  0.00    +0.090 C 
ENDBRANCH  32  34
ENDBRANCH  26  28
ENDBRANCH   7  24
BRANCH  11  36
ATOM     36  C   UNL     1      -1.504   4.120  -3.836  0.00  0.00    +0.109 C 
BRANCH  36  37
ATOM     37  C   UNL     1      -2.189   3.411  -5.007  0.00  0.00    +0.022 C 
BRANCH  37  38
ATOM     38  C   UNL     1      -2.115   4.295  -6.253  0.00  0.00    -0.016 C 
ATOM     39  C   UNL     1      -0.653   4.457  -6.677  0.00  0.00    +0.007 C 
ATOM     40  C   UNL     1      -2.906   3.643  -7.389  0.00  0.00    +0.007 C 
ENDBRANCH  37  38
ENDBRANCH  36  37
ENDBRANCH  11  36
TORSDOF 8
