REMARK  Name = ZINC12882862
REMARK  11 active torsions:
REMARK  status: ('A' for Active; 'I' for Inactive)
REMARK    1  A    between atoms: C_1  and  C_2
REMARK    2  A    between atoms: C_3  and  C_31
REMARK    3  A    between atoms: C_9  and  C_30
REMARK    4  A    between atoms: C_10  and  C_17
REMARK    5  A    between atoms: C_15  and  C_16
REMARK    6  A    between atoms: C_17  and  C_18
REMARK    7  A    between atoms: N_20  and  C_21
REMARK    8  A    between atoms: C_23  and  C_28
REMARK    9  A    between atoms: C_23  and  C_29
REMARK   10  A    between atoms: C_24  and  C_26
REMARK   11  A    between atoms: C_24  and  C_27
REMARK                            x       y       z     vdW  Elec       q    Type
REMARK                         _______ _______ _______ _____ _____    ______ ____
ROOT
ATOM      1  C   UNL     1       3.199   9.343  -9.680  0.00  0.00    +0.048 C 
ATOM      2  C   UNL     1       1.708   9.389  -9.468  0.00  0.00    -0.002 A 
ATOM      3  C   UNL     1       0.779   9.751 -10.362  0.00  0.00    +0.106 A 
ATOM      4  O   UNL     1      -0.448   9.668  -9.818  0.00  0.00    -0.459 OA
ATOM      5  C   UNL     1      -0.382   9.247  -8.538  0.00  0.00    +0.142 A 
ATOM      6  C   UNL     1       0.980   9.045  -8.238  0.00  0.00    +0.024 A 
ATOM      7  C   UNL     1       1.366   8.606  -6.979  0.00  0.00    +0.023 A 
ATOM      8  C   UNL     1       0.390   8.367  -6.011  0.00  0.00    +0.022 A 
ATOM      9  C   UNL     1       0.763   7.909  -4.669  0.00  0.00    -0.029 A 
ATOM     10  C   UNL     1      -0.229   7.687  -3.769  0.00  0.00    +0.049 A 
ATOM     11  C   UNL     1      -1.573   7.910  -4.137  0.00  0.00    +0.341 A 
ATOM     12  O   UNL     1      -2.452   7.712  -3.317  0.00  0.00    -0.245 OA
ATOM     13  O   UNL     1      -1.909   8.334  -5.364  0.00  0.00    -0.422 OA
ATOM     14  C   UNL     1      -0.973   8.569  -6.312  0.00  0.00    +0.146 A 
ATOM     15  C   UNL     1      -1.346   9.007  -7.571  0.00  0.00    +0.035 A 
ATOM     16  C   UNL     1      -2.803   9.222  -7.890  0.00  0.00    +0.051 C 
ATOM     17  C   UNL     1       2.207   7.685  -4.301  0.00  0.00    +0.045 C 
ATOM     18  C   UNL     1       1.068  10.187 -11.775  0.00  0.00    +0.086 C 
ENDROOT
BRANCH  10  19
ATOM     19  C   UNL     1       0.105   7.210  -2.379  0.00  0.00    +0.138 C 
BRANCH  19  20
ATOM     20  C   UNL     1       0.113   5.703  -2.353  0.00  0.00    +0.218 C 
ATOM     21  O   UNL     1      -0.129   5.078  -3.364  0.00  0.00    -0.275 OA
ATOM     22  N   UNL     1       0.389   5.051  -1.207  0.00  0.00    -0.312 N 
ATOM     23  H   UNL     1       0.582   5.550  -0.398  0.00  0.00    +0.149 HD
BRANCH  22  24
ATOM     24  C   UNL     1       0.396   3.583  -1.181  0.00  0.00    +0.070 C 
ATOM     25  C   UNL     1       1.298   3.104  -0.042  0.00  0.00    +0.009 C 
ATOM     26  C   UNL     1       1.320   1.577  -0.002  0.00  0.00    -0.072 C 
ATOM     27  C   UNL     1      -1.042   1.551  -0.852  0.00  0.00    -0.072 C 
ATOM     28  C   UNL     1      -1.022   3.076  -0.918  0.00  0.00    +0.009 C 
ATOM     29  C   UNL     1      -0.944   0.975  -2.269  0.00  0.00    -0.010 C 
ATOM     30  C   UNL     1      -2.415   1.129  -0.282  0.00  0.00    -0.010 C 
ATOM     31  C   UNL     1       2.035   1.156   1.301  0.00  0.00    -0.010 C 
ATOM     32  C   UNL     1       2.151   1.041  -1.172  0.00  0.00    -0.010 C 
ATOM     33  N   UNL     1      -0.027   0.947   0.053  0.00  0.00    +0.386 N 
ATOM     34  H   UNL     1      -0.375   1.022   1.016  0.00  0.00    -0.084 HD
ATOM     35  H   UNL     1       0.074  -0.044  -0.199  0.00  0.00    -0.084 HD
ENDBRANCH  22  24
ENDBRANCH  19  20
ENDBRANCH  10  19
TORSDOF 3
