REMARK  Name = ZINC54201303
REMARK  11 active torsions:
REMARK  status: ('A' for Active; 'I' for Inactive)
REMARK    1  A    between atoms: C_1  and  C_2
REMARK    2  A    between atoms: C_2  and  N_3
REMARK    3  A    between atoms: N_3  and  C_4
REMARK    4  A    between atoms: N_3  and  C_6
REMARK    5  A    between atoms: C_4  and  C_5
REMARK    6  A    between atoms: C_9  and  C_12
REMARK    7  A    between atoms: C_20  and  C_33
REMARK    8  A    between atoms: C_23  and  C_25
REMARK    9  A    between atoms: C_28  and  O_31
REMARK   10  A    between atoms: O_31  and  C_32
REMARK   11  A    between atoms: C_38  and  O_39
REMARK                            x       y       z     vdW  Elec       q    Type
REMARK                         _______ _______ _______ _____ _____    ______ ____
ROOT
ATOM      1  C   UNL     1       6.261  -1.350   0.992  0.00  0.00    +0.026 C 
ATOM      2  C   UNL     1       6.935  -1.708   2.120  0.00  0.00    +0.057 C 
ATOM      3  C   UNL     1       8.381  -1.884   2.338  0.00  0.00    +0.149 C 
ATOM      4  N   UNL     1       8.759  -2.236   3.532  0.00  0.00    -0.153 NA
ATOM      5  C   UNL     1       7.885  -2.433   4.527  0.00  0.00    +0.302 C 
ATOM      6  O   UNL     1       8.108  -2.761   5.681  0.00  0.00    -0.260 OA
ATOM      7  S   UNL     1       6.312  -2.090   3.752  0.00  0.00    -0.026 S 
ATOM      8  N   UNL     1       9.290  -1.686   1.327  0.00  0.00    -0.200 N 
ATOM      9  C   UNL     1      10.748  -1.841   1.444  0.00  0.00    +0.139 C 
ATOM     10  C   UNL     1      11.263  -1.501   0.031  0.00  0.00    +0.087 C 
ATOM     11  C   UNL     1      10.007  -1.183  -0.748  0.00  0.00    +0.069 C 
ATOM     12  N   UNL     1       8.980  -1.310   0.021  0.00  0.00    -0.182 NA
ENDROOT
BRANCH   1  16
ATOM     13  C   UNL     1       2.116  -0.533   1.175  0.00  0.00    +0.030 A 
ATOM     14  C   UNL     1       2.837  -0.728   2.350  0.00  0.00    +0.024 A 
ATOM     15  C   UNL     1       4.176  -0.992   2.296  0.00  0.00    +0.010 A 
ATOM     16  C   UNL     1       4.824  -1.067   1.056  0.00  0.00    -0.024 A 
ATOM     17  C   UNL     1       4.093  -0.870  -0.124  0.00  0.00    +0.010 A 
ATOM     18  C   UNL     1       2.753  -0.612  -0.060  0.00  0.00    +0.024 A 
BRANCH  13  19
ATOM     19  N   UNL     1       0.752  -0.264   1.236  0.00  0.00    -0.330 N 
BRANCH  19  21
ATOM     20  C   UNL     1      -0.437  -1.564   2.931  0.00  0.00    +0.024 C 
ATOM     21  C   UNL     1       0.079  -0.180   2.534  0.00  0.00    +0.102 C 
ENDBRANCH  19  21
BRANCH  19  22
ATOM     22  C   UNL     1      -0.010  -0.064   0.001  0.00  0.00    +0.102 C 
ATOM     23  C   UNL     1       0.006   1.419  -0.374  0.00  0.00    +0.024 C 
ENDBRANCH  19  22
ENDBRANCH  13  19
ENDBRANCH   1  16
BRANCH  11  24
ATOM     24  C   UNL     1       9.963  -0.794  -2.169  0.00  0.00    -0.002 A 
ATOM     25  C   UNL     1      11.146  -0.700  -2.907  0.00  0.00    +0.013 A 
ATOM     26  C   UNL     1      11.100  -0.335  -4.235  0.00  0.00    +0.046 A 
ATOM     27  C   UNL     1       9.880  -0.061  -4.840  0.00  0.00    +0.120 A 
ATOM     28  C   UNL     1       8.702  -0.153  -4.111  0.00  0.00    +0.046 A 
ATOM     29  C   UNL     1       8.738  -0.523  -2.784  0.00  0.00    +0.013 A 
BRANCH  27  30
ATOM     30  O   UNL     1       9.840   0.299  -6.149  0.00  0.00    -0.495 OA
ATOM     31  C   UNL     1       8.553   0.567  -6.709  0.00  0.00    +0.277 C 
ENDBRANCH  27  30
ENDBRANCH  11  24
BRANCH   9  32
ATOM     32  C   UNL     1      11.102  -3.258   1.814  0.00  0.00    +0.017 A 
ATOM     33  C   UNL     1      10.228  -4.288   1.524  0.00  0.00    +0.009 A 
ATOM     34  C   UNL     1      10.552  -5.588   1.864  0.00  0.00    +0.001 A 
ATOM     35  C   UNL     1      11.752  -5.862   2.494  0.00  0.00    +0.004 A 
ATOM     36  C   UNL     1      12.630  -4.836   2.787  0.00  0.00    +0.046 A 
ATOM     37  C   UNL     1      12.309  -3.531   2.442  0.00  0.00    +0.122 A 
BRANCH  37  38
ATOM     38  O   UNL     1      13.174  -2.521   2.723  0.00  0.00    -0.506 OA
ATOM     39  H   UNL     1      13.039  -2.118   3.592  0.00  0.00    +0.292 HD
ENDBRANCH  37  38
ENDBRANCH   9  32
TORSDOF 8
