REMARK  Name = ZINC20182176
REMARK  9 active torsions:
REMARK  status: ('A' for Active; 'I' for Inactive)
REMARK    1  A    between atoms: C_1  and  C_2
REMARK    2  A    between atoms: C_5  and  C_8
REMARK    3  A    between atoms: C_8  and  C_9
REMARK    4  A    between atoms: C_9  and  N_10
REMARK    5  A    between atoms: C_11  and  C_13
REMARK    6  A    between atoms: C_17  and  N_19
REMARK    7  A    between atoms: C_26  and  C_36
REMARK    8  A    between atoms: C_33  and  O_34
REMARK    9  A    between atoms: O_34  and  C_35
REMARK                            x       y       z     vdW  Elec       q    Type
REMARK                         _______ _______ _______ _____ _____    ______ ____
ROOT
ATOM      1  C   UNL     1      -3.949  -2.219  -0.602  0.00  0.00    +0.038 A 
ATOM      2  C   UNL     1      -4.934  -1.511   0.091  0.00  0.00    +0.013 A 
ATOM      3  C   UNL     1      -5.927  -2.192   0.765  0.00  0.00    +0.003 A 
ATOM      4  C   UNL     1      -5.946  -3.574   0.766  0.00  0.00    +0.024 A 
ATOM      5  C   UNL     1      -4.968  -4.287   0.083  0.00  0.00    +0.042 A 
ATOM      6  C   UNL     1      -3.969  -3.613  -0.601  0.00  0.00    +0.036 A 
ENDROOT
BRANCH   5   7
ATOM      7  N   UNL     1      -4.992  -5.687   0.087  0.00  0.00    -0.216 N 
ATOM      8  C   UNL     1      -5.776  -6.326  -0.795  0.00  0.00    +0.310 C 
ATOM      9  O   UNL     1      -6.497  -5.670  -1.521  0.00  0.00    -0.252 OA
ATOM     10  N   UNL     1      -5.798  -7.665  -0.900  0.00  0.00    -0.292 N 
ATOM     11  C   UNL     1      -4.883  -8.477  -0.081  0.00  0.00    +0.114 C 
ATOM     12  C   UNL     1      -4.761  -7.803   1.289  0.00  0.00    +0.096 C 
ATOM     13  C   UNL     1      -4.167  -6.406   1.054  0.00  0.00    +0.185 C 
ATOM     14  O   UNL     1      -2.835  -6.558   0.572  0.00  0.00    -0.464 OA
ATOM     15  C   UNL     1      -2.590  -7.483  -0.393  0.00  0.00    +0.170 A 
ATOM     16  C   UNL     1      -3.525  -8.437  -0.746  0.00  0.00    +0.018 A 
ATOM     17  C   UNL     1      -3.232  -9.369  -1.727  0.00  0.00    +0.009 A 
ATOM     18  C   UNL     1      -2.006  -9.347  -2.364  0.00  0.00    +0.004 A 
ATOM     19  C   UNL     1      -1.067  -8.392  -2.022  0.00  0.00    +0.049 A 
ATOM     20  C   UNL     1      -1.353  -7.460  -1.039  0.00  0.00    +0.162 A 
ATOM     21  C   UNL     1      -4.145  -5.635   2.375  0.00  0.00    +0.079 C 
ATOM     22  H   UNL     1      -6.496  -8.155  -1.594  0.00  0.00    +0.151 HD
BRANCH  20  23
ATOM     23  O   UNL     1      -0.429  -6.521  -0.704  0.00  0.00    -0.491 OA
ATOM     24  C   UNL     1       0.816  -6.557  -1.406  0.00  0.00    +0.277 C 
ENDBRANCH  20  23
ENDBRANCH   5   7
BRANCH   1  26
ATOM     25  N   UNL     1      -2.870  -0.144  -1.328  0.00  0.00    -0.311 N 
ATOM     26  C   UNL     1      -2.886  -1.492  -1.329  0.00  0.00    +0.244 C 
ATOM     27  O   UNL     1      -2.027  -2.110  -1.927  0.00  0.00    -0.270 OA
ATOM     28  H   UNL     1      -3.647   0.415  -0.786  0.00  0.00    +0.149 HD
BRANCH  25  29
ATOM     29  C   UNL     1      -1.817   0.576  -2.048  0.00  0.00    +0.109 C 
BRANCH  29  30
ATOM     30  C   UNL     1      -2.029   2.083  -1.888  0.00  0.00    +0.054 C 
BRANCH  30  35
ATOM     31  C   UNL     1       2.125   4.924  -4.729  0.00  0.00    +0.044 C 
ATOM     32  C   UNL     1       1.042   4.184  -3.988  0.00  0.00    -0.050 A 
ATOM     33  C   UNL     1      -0.135   3.852  -4.633  0.00  0.00    +0.003 A 
ATOM     34  C   UNL     1      -1.128   3.172  -3.954  0.00  0.00    +0.004 A 
ATOM     35  C   UNL     1      -0.945   2.824  -2.629  0.00  0.00    -0.046 A 
ATOM     36  C   UNL     1       0.229   3.159  -1.982  0.00  0.00    +0.004 A 
ATOM     37  C   UNL     1       1.225   3.835  -2.663  0.00  0.00    +0.003 A 
ENDBRANCH  30  35
ENDBRANCH  29  30
ENDBRANCH  25  29
ENDBRANCH   1  26
TORSDOF 6
