REMARK  Name = ZINC02726078
REMARK  10 active torsions:
REMARK  status: ('A' for Active; 'I' for Inactive)
REMARK    1  A    between atoms: C_1  and  C_2
REMARK    2  A    between atoms: C_2  and  C_4
REMARK    3  A    between atoms: C_2  and  N_50
REMARK    4  A    between atoms: C_7  and  S_16
REMARK    5  A    between atoms: N_8  and  C_9
REMARK    6  A    between atoms: S_16  and  C_17
REMARK    7  A    between atoms: C_17  and  C_18
REMARK    8  A    between atoms: N_20  and  C_21
REMARK    9  A    between atoms: C_29  and  N_50
REMARK   10  A    between atoms: C_30  and  N_50
REMARK                            x       y       z     vdW  Elec       q    Type
REMARK                         _______ _______ _______ _____ _____    ______ ____
ROOT
ATOM      1  C   UNL     1       1.206   1.745   0.060  0.00  0.00    +0.125 A 
ATOM      2  N   UNL     1      -0.012   1.280   0.065  0.00  0.00    -0.135 NA
ATOM      3  N   UNL     1       0.005  -0.005   0.047  0.00  0.00    -0.122 NA
ATOM      4  C   UNL     1       1.245  -0.436   0.029  0.00  0.00    +0.197 A 
ATOM      5  N   UNL     1       2.052   0.668   0.037  0.00  0.00    -0.275 N 
ENDROOT
BRANCH   5   6
ATOM      6  C   UNL     1       3.455   0.693   0.025  0.00  0.00    +0.050 A 
ATOM      7  C   UNL     1       4.150   1.204   1.113  0.00  0.00    +0.028 A 
ATOM      8  C   UNL     1       5.531   1.224   1.100  0.00  0.00    +0.022 A 
ATOM      9  C   UNL     1       6.221   0.744   0.001  0.00  0.00    +0.041 A 
ATOM     10  C   UNL     1       5.530   0.238  -1.086  0.00  0.00    +0.022 A 
ATOM     11  C   UNL     1       4.149   0.212  -1.076  0.00  0.00    +0.028 A 
ATOM     12 CL   UNL     1       7.957   0.775  -0.014  0.00  0.00    -0.084 Cl
ENDBRANCH   5   6
BRANCH   1  14
ATOM     13  C   UNL     1       1.370   3.807  -1.307  0.00  0.00    -0.005 C 
ATOM     14  C   UNL     1       1.607   3.197   0.076  0.00  0.00    -0.003 C 
BRANCH  14  17
ATOM     15  C   UNL     1       0.933   3.299   2.399  0.00  0.00    -0.096 C 
ATOM     16  C   UNL     1       1.168   5.339   1.116  0.00  0.00    -0.096 C 
ATOM     17  N   UNL     1       0.776   3.915   1.065  0.00  0.00    +0.382 N 
ATOM     18  H   UNL     1      -0.209   3.851   0.782  0.00  0.00    -0.082 HD
ENDBRANCH  14  17
ENDBRANCH   1  14
BRANCH   4  19
ATOM     19  S   UNL     1       1.770  -2.118   0.002  0.00  0.00    -0.076 S 
BRANCH  19  20
ATOM     20  C   UNL     1       0.162  -2.949   0.005  0.00  0.00    +0.173 C 
BRANCH  20  21
ATOM     21  C   UNL     1       0.368  -4.441  -0.017  0.00  0.00    +0.228 C 
ATOM     22  O   UNL     1       1.491  -4.898  -0.033  0.00  0.00    -0.275 OA
ATOM     23  N   UNL     1      -0.696  -5.269  -0.019  0.00  0.00    -0.283 N 
ATOM     24  H   UNL     1      -1.592  -4.906   0.059  0.00  0.00    +0.155 HD
BRANCH  23  25
ATOM     25  C   UNL     1      -0.508  -6.652  -0.134  0.00  0.00    +0.069 A 
ATOM     26  C   UNL     1       0.602  -7.253   0.444  0.00  0.00    +0.027 A 
ATOM     27  C   UNL     1       0.786  -8.617   0.330  0.00  0.00    +0.017 A 
ATOM     28  C   UNL     1      -0.135  -9.386  -0.360  0.00  0.00    +0.021 A 
ATOM     29  C   UNL     1      -1.243  -8.791  -0.937  0.00  0.00    +0.055 A 
ATOM     30  C   UNL     1      -1.435  -7.427  -0.822  0.00  0.00    +0.146 A 
ATOM     31  F   UNL     1      -2.520  -6.847  -1.380  0.00  0.00    -0.204 F 
ATOM     32 BR   UNL     1       0.121 -11.253  -0.513  0.00  0.00    -0.050 Br
ENDBRANCH  23  25
ENDBRANCH  20  21
ENDBRANCH  19  20
ENDBRANCH   4  19
TORSDOF 7
