REMARK  Name = ZINC02128884
REMARK  10 active torsions:
REMARK  status: ('A' for Active; 'I' for Inactive)
REMARK    1  A    between atoms: C_1  and  C_2
REMARK    2  A    between atoms: C_2  and  C_3
REMARK    3  A    between atoms: C_3  and  O_4
REMARK    4  A    between atoms: O_4  and  C_5
REMARK    5  A    between atoms: C_8  and  C_14
REMARK    6  A    between atoms: C_10  and  O_11
REMARK    7  A    between atoms: O_11  and  C_12
REMARK    8  A    between atoms: C_12  and  C_13
REMARK    9  A    between atoms: N_20  and  C_35
REMARK   10  A    between atoms: C_23  and  C_34
REMARK                            x       y       z     vdW  Elec       q    Type
REMARK                         _______ _______ _______ _____ _____    ______ ____
ROOT
ATOM      1  C   UNL     1       2.800  -0.801   3.682  0.00  0.00    +0.069 C 
ATOM      2  C   UNL     1       2.474  -2.127   4.386  0.00  0.00    +0.123 C 
ATOM      3  N   UNL     1       3.735  -2.700   4.861  0.00  0.00    -0.265 N 
ATOM      4  C   UNL     1       4.378  -3.808   4.489  0.00  0.00    +0.317 C 
ATOM      5  O   UNL     1       3.873  -4.704   3.842  0.00  0.00    -0.252 OA
ATOM      6  N   UNL     1       5.651  -3.812   4.917  0.00  0.00    -0.192 N 
ATOM      7  C   UNL     1       5.916  -2.744   5.701  0.00  0.00    +0.257 C 
ATOM      8  O   UNL     1       6.984  -2.435   6.183  0.00  0.00    -0.272 OA
ATOM      9  C   UNL     1       4.602  -2.015   5.849  0.00  0.00    +0.153 C 
ATOM     10  C   UNL     1       4.702  -0.586   5.371  0.00  0.00    +0.054 A 
ATOM     11  C   UNL     1       3.887  -0.067   4.426  0.00  0.00    -0.008 A 
ATOM     12  C   UNL     1       4.267   1.326   4.270  0.00  0.00    +0.004 A 
ATOM     13  C   UNL     1       3.778   2.351   3.455  0.00  0.00    +0.010 A 
ATOM     14  C   UNL     1       4.389   3.576   3.568  0.00  0.00    +0.001 A 
ATOM     15  C   UNL     1       5.441   3.797   4.442  0.00  0.00    +0.002 A 
ATOM     16  C   UNL     1       5.944   2.800   5.260  0.00  0.00    +0.026 A 
ATOM     17  C   UNL     1       5.342   1.546   5.168  0.00  0.00    +0.047 A 
ATOM     18  N   UNL     1       5.578   0.367   5.814  0.00  0.00    -0.356 N 
ATOM     19  H   UNL     1       6.264   0.227   6.486  0.00  0.00    +0.166 HD
ATOM     20  C   UNL     1       4.041  -2.104   7.270  0.00  0.00    +0.048 C 
ENDROOT
BRANCH   6  21
ATOM     21  C   UNL     1       6.589  -4.803   4.591  0.00  0.00    +0.046 A 
ATOM     22  C   UNL     1       7.915  -4.657   4.974  0.00  0.00    +0.027 A 
ATOM     23  C   UNL     1       8.836  -5.636   4.656  0.00  0.00    +0.040 A 
ATOM     24  C   UNL     1       8.439  -6.757   3.947  0.00  0.00    +0.124 A 
ATOM     25  C   UNL     1       7.118  -6.901   3.559  0.00  0.00    +0.040 A 
ATOM     26  C   UNL     1       6.193  -5.927   3.880  0.00  0.00    +0.027 A 
ATOM     27  F   UNL     1       9.342  -7.712   3.633  0.00  0.00    -0.205 F 
ENDBRANCH   6  21
BRANCH   1  31
ATOM     28  C   UNL     1      -0.714   1.632   3.553  0.00  0.00    +0.162 A 
ATOM     29  C   UNL     1      -0.182   1.243   4.771  0.00  0.00    +0.050 A 
ATOM     30  C   UNL     1       0.954   0.456   4.810  0.00  0.00    +0.008 A 
ATOM     31  C   UNL     1       1.562   0.056   3.634  0.00  0.00    -0.035 A 
ATOM     32  C   UNL     1       1.032   0.435   2.415  0.00  0.00    +0.053 A 
ATOM     33  C   UNL     1      -0.103   1.228   2.369  0.00  0.00    +0.162 A 
BRANCH  28  34
ATOM     34  O   UNL     1      -1.832   2.406   3.513  0.00  0.00    -0.488 OA
BRANCH  34  35
ATOM     35  C   UNL     1      -2.405   2.782   4.767  0.00  0.00    +0.229 C 
BRANCH  35  37
ATOM     36  C   UNL     1      -4.259   4.048   5.864  0.00  0.00    +0.007 C 
ATOM     37  C   UNL     1      -3.645   3.645   4.522  0.00  0.00    +0.038 C 
ENDBRANCH  35  37
ENDBRANCH  34  35
ENDBRANCH  28  34
BRANCH  33  38
ATOM     38  O   UNL     1      -0.622   1.607   1.171  0.00  0.00    -0.489 OA
BRANCH  38  39
ATOM     39  C   UNL     1       0.058   1.156  -0.002  0.00  0.00    +0.226 C 
ATOM     40  C   UNL     1      -0.667   1.678  -1.244  0.00  0.00    +0.048 C 
ENDBRANCH  38  39
ENDBRANCH  33  38
ENDBRANCH   1  31
TORSDOF 7
