REMARK  Name = ZINC28519567
REMARK  13 active torsions:
REMARK  status: ('A' for Active; 'I' for Inactive)
REMARK    1  A    between atoms: C_1  and  C_2
REMARK    2  A    between atoms: C_2  and  O_3
REMARK    3  A    between atoms: O_3  and  C_4
REMARK    4  A    between atoms: C_4  and  C_6
REMARK    5  A    between atoms: C_7  and  C_28
REMARK    6  A    between atoms: C_10  and  N_11
REMARK    7  A    between atoms: C_12  and  C_14
REMARK    8  A    between atoms: C_14  and  C_16
REMARK    9  A    between atoms: C_14  and  S_17
REMARK   10  A    between atoms: S_17  and  C_18
REMARK   11  A    between atoms: C_20  and  C_27
REMARK   12  A    between atoms: C_21  and  C_23
REMARK   13  A    between atoms: C_23  and  C_24
REMARK                            x       y       z     vdW  Elec       q    Type
REMARK                         _______ _______ _______ _____ _____    ______ ____
ROOT
ATOM      1  N   UNL     1      -0.597  -2.457  -3.929  0.00  0.00    -0.278 N 
ATOM      2  C   UNL     1      -1.109  -2.786  -5.132  0.00  0.00    +0.231 C 
ATOM      3  O   UNL     1      -0.385  -3.229  -5.998  0.00  0.00    -0.274 OA
ATOM      4  H   UNL     1      -1.176  -2.103  -3.236  0.00  0.00    +0.155 HD
ENDROOT
BRANCH   1   9
ATOM      5  C   UNL     1       1.448  -2.344  -2.515  0.00  0.00    +0.096 A 
ATOM      6  C   UNL     1       2.874  -2.622  -2.521  0.00  0.00    +0.012 A 
ATOM      7  C   UNL     1       3.364  -3.125  -3.686  0.00  0.00    +0.057 A 
ATOM      8  S   UNL     1       1.926  -3.214  -4.730  0.00  0.00    -0.080 S 
ATOM      9  C   UNL     1       0.756  -2.626  -3.682  0.00  0.00    +0.086 A 
BRANCH   6  10
ATOM     10  C   UNL     1       3.733  -2.374  -1.345  0.00  0.00    +0.021 A 
ATOM     11  C   UNL     1       4.635  -3.211  -0.743  0.00  0.00    +0.016 A 
ATOM     12  C   UNL     1       5.330  -2.754   0.357  0.00  0.00    +0.008 A 
ATOM     13  C   UNL     1       5.100  -1.496   0.809  0.00  0.00    +0.046 A 
ATOM     14  S   UNL     1       3.870  -0.903  -0.342  0.00  0.00    -0.097 S 
ENDBRANCH   6  10
BRANCH   5  15
ATOM     15  C   UNL     1       0.776  -1.800  -1.335  0.00  0.00    +0.342 C 
ATOM     16  O   UNL     1       0.312  -2.552  -0.499  0.00  0.00    -0.245 OA
BRANCH  15  17
ATOM     17  O   UNL     1       0.671  -0.465  -1.174  0.00  0.00    -0.461 OA
BRANCH  17  19
ATOM     18  C   UNL     1      -0.019   1.526   0.010  0.00  0.00    +0.048 C 
ATOM     19  C   UNL     1       0.002  -0.004   0.002  0.00  0.00    +0.229 C 
ENDBRANCH  17  19
ENDBRANCH  15  17
ENDBRANCH   5  15
ENDBRANCH   1   9
BRANCH   2  20
ATOM     20  C   UNL     1      -2.580  -2.603  -5.400  0.00  0.00    +0.136 C 
ATOM     21  C   UNL     1      -3.359  -3.771  -4.793  0.00  0.00    +0.029 C 
BRANCH  20  22
ATOM     22  S   UNL     1      -2.866  -2.551  -7.191  0.00  0.00    -0.086 S 
BRANCH  22  23
ATOM     23  C   UNL     1      -4.585  -2.189  -7.338  0.00  0.00    +0.136 A 
ATOM     24  N   UNL     1      -5.464  -1.992  -6.378  0.00  0.00    -0.238 NA
ATOM     25  C   UNL     1      -6.728  -1.727  -6.656  0.00  0.00    +0.050 A 
ATOM     26  C   UNL     1      -7.072  -1.669  -7.965  0.00  0.00    +0.022 A 
ATOM     27  S   UNL     1      -5.498  -2.003  -8.739  0.00  0.00    -0.065 S 
ATOM     28  C   UNL     1      -7.743  -1.501  -5.565  0.00  0.00    +0.066 C 
BRANCH  26  29
ATOM     29  C   UNL     1      -8.413  -1.391  -8.595  0.00  0.00    +0.139 C 
BRANCH  29  30
ATOM     30  C   UNL     1      -8.565   0.091  -8.820  0.00  0.00    +0.215 C 
ATOM     31  O   UNL     1      -7.673   0.848  -8.500  0.00  0.00    -0.276 OA
ATOM     32  N   UNL     1      -9.693   0.575  -9.376  0.00  0.00    -0.329 N 
ATOM     33  H   UNL     1     -10.407  -0.030  -9.632  0.00  0.00    +0.145 HD
ATOM     34  H   UNL     1      -9.791   1.530  -9.521  0.00  0.00    +0.145 HD
ENDBRANCH  29  30
ENDBRANCH  26  29
ENDBRANCH  22  23
ENDBRANCH  20  22
ENDBRANCH   2  20
TORSDOF 10
