REMARK  Name = ZINC16434946
REMARK  15 active torsions:
REMARK  status: ('A' for Active; 'I' for Inactive)
REMARK    1  A    between atoms: C_1  and  C_2
REMARK    2  A    between atoms: C_2  and  C_3
REMARK    3  A    between atoms: C_3  and  C_4
REMARK    4  A    between atoms: C_4  and  N_5
REMARK    5  A    between atoms: N_5  and  C_6
REMARK    6  A    between atoms: C_6  and  C_7
REMARK    7  A    between atoms: N_9  and  C_10
REMARK    8  A    between atoms: C_12  and  C_22
REMARK    9  A    between atoms: N_14  and  C_15
REMARK   10  A    between atoms: C_18  and  C_21
REMARK   11  A    between atoms: C_22  and  C_23
REMARK   12  A    between atoms: C_22  and  C_24
REMARK   13  A    between atoms: C_22  and  C_25
REMARK   14  A    between atoms: N_28  and  C_29
REMARK   15  A    between atoms: C_32  and  C_36
REMARK                            x       y       z     vdW  Elec       q    Type
REMARK                         _______ _______ _______ _____ _____    ______ ____
ROOT
ATOM      1  C   UNL     1       3.853   2.785   1.032  0.00  0.00    +0.236 C 
ATOM      2  O   UNL     1       3.247   2.496   2.042  0.00  0.00    -0.274 OA
ATOM      3  N   UNL     1       4.893   3.640   1.091  0.00  0.00    -0.269 N 
ATOM      4  H   UNL     1       5.378   3.871   0.283  0.00  0.00    +0.156 HD
ENDROOT
BRANCH   3   5
ATOM      5  C   UNL     1       5.272   4.193   2.314  0.00  0.00    +0.129 A 
ATOM      6  C   UNL     1       4.686   3.959   3.520  0.00  0.00    +0.069 A 
ATOM      7  C   UNL     1       5.370   4.707   4.482  0.00  0.00    +0.071 A 
ATOM      8  N   UNL     1       6.331   5.368   3.888  0.00  0.00    -0.169 NA
ATOM      9  N   UNL     1       6.300   5.061   2.522  0.00  0.00    -0.218 N 
BRANCH   9  10
ATOM     10  C   UNL     1       7.170   5.561   1.543  0.00  0.00    +0.067 A 
ATOM     11  C   UNL     1       7.558   4.755   0.481  0.00  0.00    +0.028 A 
ATOM     12  C   UNL     1       8.411   5.252  -0.485  0.00  0.00    +0.005 A 
ATOM     13  C   UNL     1       8.887   6.547  -0.390  0.00  0.00    -0.050 A 
ATOM     14  C   UNL     1       8.506   7.350   0.670  0.00  0.00    +0.005 A 
ATOM     15  C   UNL     1       7.649   6.860   1.636  0.00  0.00    +0.028 A 
ATOM     16  C   UNL     1       9.822   7.084  -1.442  0.00  0.00    +0.044 C 
ENDBRANCH   9  10
BRANCH   7  17
ATOM     17  C   UNL     1       5.055   4.746   5.955  0.00  0.00    +0.006 C 
ATOM     18  C   UNL     1       5.535   3.451   6.614  0.00  0.00    +0.017 C 
ATOM     19  C   UNL     1       5.765   5.939   6.598  0.00  0.00    +0.017 C 
ATOM     20  C   UNL     1       3.544   4.888   6.150  0.00  0.00    +0.017 C 
ENDBRANCH   7  17
ENDBRANCH   3   5
BRANCH   1  21
ATOM     21  C   UNL     1       3.444   2.187  -0.290  0.00  0.00    +0.205 C 
BRANCH  21  22
ATOM     22  N   UNL     1       2.298   1.298  -0.089  0.00  0.00    -0.277 N 
ATOM     23  C   UNL     1       1.044   1.784  -0.177  0.00  0.00    +0.307 C 
ATOM     24  O   UNL     1       0.864   2.962  -0.423  0.00  0.00    -0.252 OA
ATOM     25  N   UNL     1      -0.011   0.966   0.007  0.00  0.00    -0.269 N 
ATOM     26  H   UNL     1       0.129   0.013   0.125  0.00  0.00    +0.156 HD
BRANCH  25  27
ATOM     27  C   UNL     1      -1.309   1.490   0.024  0.00  0.00    +0.036 A 
ATOM     28  C   UNL     1      -2.368   0.741  -0.474  0.00  0.00    +0.024 A 
ATOM     29  C   UNL     1      -3.648   1.258  -0.452  0.00  0.00    +0.006 A 
ATOM     30  C   UNL     1      -3.876   2.524   0.055  0.00  0.00    -0.032 A 
ATOM     31  C   UNL     1      -2.822   3.275   0.547  0.00  0.00    +0.046 A 
ATOM     32  C   UNL     1      -1.539   2.760   0.533  0.00  0.00    +0.043 A 
ATOM     33 CL   UNL     1      -3.112   4.864   1.184  0.00  0.00    -0.083 Cl
ATOM     34  C   UNL     1      -5.273   3.087   0.073  0.00  0.00    +0.045 C 
ENDBRANCH  25  27
BRANCH  22  35
ATOM     35  C   UNL     1       2.514  -0.121   0.206  0.00  0.00    +0.110 C 
BRANCH  35  36
ATOM     36  C   UNL     1       2.573  -0.911  -1.102  0.00  0.00    +0.019 C 
BRANCH  36  38
ATOM     37  C   UNL     1       2.857  -3.183  -2.102  0.00  0.00    +0.004 C 
ATOM     38  C   UNL     1       2.799  -2.393  -0.793  0.00  0.00    -0.002 C 
ENDBRANCH  36  38
ENDBRANCH  35  36
ENDBRANCH  22  35
ENDBRANCH  21  22
ENDBRANCH   1  21
TORSDOF 9
