REMARK  Name = ZINC35270828
REMARK  13 active torsions:
REMARK  status: ('A' for Active; 'I' for Inactive)
REMARK    1  A    between atoms: C_1  and  C_2
REMARK    2  A    between atoms: N_4  and  C_5
REMARK    3  A    between atoms: C_7  and  O_43
REMARK    4  A    between atoms: C_9  and  O_42
REMARK    5  A    between atoms: C_11  and  C_39
REMARK    6  A    between atoms: C_14  and  O_16
REMARK    7  A    between atoms: O_16  and  C_17
REMARK    8  A    between atoms: C_19  and  C_33
REMARK    9  A    between atoms: C_20  and  C_24
REMARK   10  A    between atoms: C_24  and  C_26
REMARK   11  A    between atoms: C_24  and  O_32
REMARK   12  A    between atoms: C_39  and  O_40
REMARK   13  A    between atoms: O_40  and  C_41
REMARK                            x       y       z     vdW  Elec       q    Type
REMARK                         _______ _______ _______ _____ _____    ______ ____
ROOT
ATOM      1  C   UNL     1       0.828  -2.732   3.111  0.00  0.00    +0.346 C 
ATOM      2  C   UNL     1       2.009  -1.959   3.650  0.00  0.00    +0.040 C 
ATOM      3  C   UNL     1       3.046  -2.823   3.692  0.00  0.00    +0.079 C 
ATOM      4  C   UNL     1       2.596  -4.122   3.205  0.00  0.00    +0.341 C 
ATOM      5  O   UNL     1       3.294  -5.114   3.119  0.00  0.00    -0.245 OA
ATOM      6  O   UNL     1       1.293  -4.062   2.866  0.00  0.00    -0.427 OA
ENDROOT
BRANCH   2   7
ATOM      7  C   UNL     1       2.026  -0.543   4.051  0.00  0.00    -0.015 A 
ATOM      8  C   UNL     1       1.265  -0.112   5.143  0.00  0.00    +0.008 A 
ATOM      9  C   UNL     1       1.286   1.216   5.512  0.00  0.00    +0.001 A 
ATOM     10  C   UNL     1       2.057   2.122   4.805  0.00  0.00    +0.000 A 
ATOM     11  C   UNL     1       2.812   1.704   3.724  0.00  0.00    +0.001 A 
ATOM     12  C   UNL     1       2.807   0.378   3.346  0.00  0.00    +0.008 A 
ENDBRANCH   2   7
BRANCH   1  13
ATOM     13  O   UNL     1       0.369  -2.141   1.893  0.00  0.00    -0.306 OA
BRANCH  13  19
ATOM     14  C   UNL     1      -1.136  -2.159   0.001  0.00  0.00    +0.160 C 
ATOM     15  C   UNL     1      -2.491  -2.686  -0.479  0.00  0.00    +0.171 C 
ATOM     16  C   UNL     1      -3.576  -2.252   0.511  0.00  0.00    +0.176 C 
ATOM     17  C   UNL     1      -3.216  -2.764   1.908  0.00  0.00    +0.178 C 
ATOM     18  O   UNL     1      -1.931  -2.262   2.281  0.00  0.00    -0.341 OA
ATOM     19  C   UNL     1      -0.868  -2.674   1.418  0.00  0.00    +0.278 C 
BRANCH  14  23
ATOM     20  C   UNL     1      -0.880   1.497  -1.105  0.00  0.00    +0.109 C 
ATOM     21  C   UNL     1      -0.859  -0.010  -1.113  0.00  0.00    +0.210 C 
ATOM     22  O   UNL     1      -0.576  -0.607  -2.130  0.00  0.00    -0.276 OA
ATOM     23  N   UNL     1      -1.156  -0.694   0.009  0.00  0.00    -0.305 N 
ATOM     24  H   UNL     1      -1.383  -0.216   0.823  0.00  0.00    +0.149 HD
ENDBRANCH  14  23
BRANCH  16  25
ATOM     25  O   UNL     1      -3.661  -0.826   0.531  0.00  0.00    -0.387 OA
ATOM     26  H   UNL     1      -4.330  -0.480   1.138  0.00  0.00    +0.210 HD
ENDBRANCH  16  25
BRANCH  15  27
ATOM     27  O   UNL     1      -2.450  -4.113  -0.551  0.00  0.00    -0.387 OA
ATOM     28  H   UNL     1      -3.278  -4.515  -0.850  0.00  0.00    +0.210 HD
ENDBRANCH  15  27
BRANCH  17  29
ATOM     29  C   UNL     1      -4.264  -2.284   2.914  0.00  0.00    +0.193 C 
BRANCH  29  30
ATOM     30  O   UNL     1      -3.993  -2.857   4.194  0.00  0.00    -0.380 OA
ATOM     31  C   UNL     1      -4.918  -2.470   5.212  0.00  0.00    +0.194 C 
ENDBRANCH  29  30
ENDBRANCH  17  29
ENDBRANCH  13  19
ENDBRANCH   1  13
BRANCH   3  32
ATOM     32  C   UNL     1       4.440  -2.497   4.163  0.00  0.00    +0.182 C 
BRANCH  32  33
ATOM     33  C   UNL     1       4.747  -3.289   5.409  0.00  0.00    -0.015 A 
ATOM     34  C   UNL     1       5.231  -4.579   5.305  0.00  0.00    +0.006 A 
ATOM     35  C   UNL     1       5.513  -5.306   6.447  0.00  0.00    +0.000 A 
ATOM     36  C   UNL     1       5.310  -4.741   7.693  0.00  0.00    +0.000 A 
ATOM     37  C   UNL     1       4.826  -3.450   7.796  0.00  0.00    +0.000 A 
ATOM     38  C   UNL     1       4.549  -2.723   6.654  0.00  0.00    +0.006 A 
ENDBRANCH  32  33
BRANCH  32  39
ATOM     39  O   UNL     1       5.379  -2.834   3.141  0.00  0.00    -0.382 OA
ATOM     40  H   UNL     1       5.373  -3.769   2.893  0.00  0.00    +0.211 HD
ENDBRANCH  32  39
ENDBRANCH   3  32
TORSDOF 11
