REMARK  Name = ZINC63279894
REMARK  8 active torsions:
REMARK  status: ('A' for Active; 'I' for Inactive)
REMARK    1  A    between atoms: C_1  and  O_2
REMARK    2  A    between atoms: O_2  and  C_3
REMARK    3  A    between atoms: C_11  and  O_14
REMARK    4  A    between atoms: O_14  and  C_15
REMARK    5  A    between atoms: C_18  and  C_21
REMARK    6  A    between atoms: N_23  and  C_24
REMARK    7  A    between atoms: C_24  and  C_25
REMARK    8  A    between atoms: C_25  and  C_26
REMARK                            x       y       z     vdW  Elec       q    Type
REMARK                         _______ _______ _______ _____ _____    ______ ____
ROOT
ATOM      1  C   UNL     1       3.142  -5.951  -5.263  0.00  0.00    +0.129 A 
ATOM      2  C   UNL     1       2.530  -6.599  -4.195  0.00  0.00    +0.047 A 
ATOM      3  C   UNL     1       2.599  -7.970  -4.090  0.00  0.00    +0.016 A 
ATOM      4  C   UNL     1       3.284  -8.711  -5.057  0.00  0.00    +0.037 A 
ATOM      5  C   UNL     1       3.897  -8.056  -6.129  0.00  0.00    +0.016 A 
ATOM      6  C   UNL     1       3.820  -6.685  -6.230  0.00  0.00    +0.047 A 
ENDROOT
BRANCH   4   7
ATOM      7  C   UNL     1       3.360 -10.181  -4.947  0.00  0.00    +0.244 C 
ATOM      8  O   UNL     1       2.827 -10.749  -4.013  0.00  0.00    -0.270 OA
ATOM      9  N   UNL     1       4.021 -10.893  -5.881  0.00  0.00    -0.311 N 
ATOM     10  H   UNL     1       4.446 -10.440  -6.625  0.00  0.00    +0.149 HD
BRANCH   9  11
ATOM     11  C   UNL     1       4.096 -12.352  -5.771  0.00  0.00    +0.109 C 
BRANCH  11  12
ATOM     12  C   UNL     1       4.897 -12.911  -6.950  0.00  0.00    +0.052 C 
BRANCH  12  13
ATOM     13  C   UNL     1       4.974 -14.412  -6.837  0.00  0.00    -0.040 C 
ATOM     14  C   UNL     1       4.163 -15.315  -7.434  0.00  0.00    +0.000 A 
ATOM     15  C   UNL     1       3.010 -15.175  -8.330  0.00  0.00    +0.030 A 
ATOM     16  C   UNL     1       2.385 -16.291  -8.774  0.00  0.00    +0.042 A 
ATOM     17  C   UNL     1       2.812 -17.573  -8.399  0.00  0.00    +0.022 A 
ATOM     18  C   UNL     1       3.863 -17.781  -7.579  0.00  0.00    +0.027 A 
ATOM     19  C   UNL     1       4.594 -16.679  -7.053  0.00  0.00    +0.043 A 
ATOM     20  N   UNL     1       5.630 -16.622  -6.253  0.00  0.00    -0.380 N 
ATOM     21  C   UNL     1       5.979 -15.213  -6.040  0.00  0.00    +0.144 C 
ATOM     22 CL   UNL     1       1.020 -16.130  -9.835  0.00  0.00    -0.084 Cl
ATOM     23  H   UNL     1       6.092 -17.384  -5.869  0.00  0.00    +0.160 HD
ENDBRANCH  12  13
ENDBRANCH  11  12
ENDBRANCH   9  11
ENDBRANCH   4   7
BRANCH   1  24
ATOM     24  O   UNL     1       3.072  -4.600  -5.364  0.00  0.00    -0.449 OA
BRANCH  24  33
ATOM     25  C   UNL     1       1.130  -1.658  -0.056  0.00  0.00    +0.124 A 
ATOM     26  C   UNL     1       2.332  -2.297   0.243  0.00  0.00    +0.046 A 
ATOM     27  C   UNL     1       2.988  -3.016  -0.715  0.00  0.00    +0.019 A 
ATOM     28  C   UNL     1       2.450  -3.110  -2.000  0.00  0.00    +0.068 A 
ATOM     29  C   UNL     1       1.237  -2.470  -2.309  0.00  0.00    +0.142 A 
ATOM     30  C   UNL     1       0.580  -1.747  -1.323  0.00  0.00    +0.092 A 
ATOM     31  O   UNL     1       0.728  -2.567  -3.554  0.00  0.00    -0.459 OA
ATOM     32  C   UNL     1       1.335  -3.259  -4.526  0.00  0.00    +0.245 A 
ATOM     33  C   UNL     1       2.500  -3.912  -4.339  0.00  0.00    +0.210 A 
ATOM     34  C   UNL     1       3.127  -3.875  -3.061  0.00  0.00    +0.234 A 
ATOM     35  O   UNL     1       4.181  -4.453  -2.854  0.00  0.00    -0.283 OA
BRANCH  25  37
ATOM     36  C   UNL     1       1.107  -0.894   2.194  0.00  0.00    +0.277 C 
ATOM     37  O   UNL     1       0.489  -0.948   0.907  0.00  0.00    -0.495 OA
ENDBRANCH  25  37
ENDBRANCH  24  33
ENDBRANCH   1  24
TORSDOF 7
