REMARK  Name = ZINC36038234
REMARK  9 active torsions:
REMARK  status: ('A' for Active; 'I' for Inactive)
REMARK    1  A    between atoms: C_3  and  S_30
REMARK    2  A    between atoms: C_6  and  C_7
REMARK    3  A    between atoms: C_7  and  N_8
REMARK    4  A    between atoms: C_9  and  C_11
REMARK    5  A    between atoms: C_11  and  N_12
REMARK    6  A    between atoms: N_16  and  C_19
REMARK    7  A    between atoms: C_19  and  C_20
REMARK    8  A    between atoms: C_23  and  C_26
REMARK    9  A    between atoms: S_30  and  N_33
REMARK                            x       y       z     vdW  Elec       q    Type
REMARK                         _______ _______ _______ _____ _____    ______ ____
ROOT
ATOM      1  N   UNL     1      -4.574  -2.696  -3.016  0.00  0.00    -0.296 NA
ATOM      2  C   UNL     1      -4.372  -4.070  -2.491  0.00  0.00    +0.083 C 
ATOM      3  C   UNL     1      -5.619  -4.646  -1.997  0.00  0.00    -0.003 C 
ATOM      4  C   UNL     1      -6.690  -4.757  -3.098  0.00  0.00    -0.077 C 
ATOM      5  N   UNL     1      -7.312  -3.466  -3.256  0.00  0.00    +0.383 N 
ATOM      6  C   UNL     1      -6.688  -2.660  -4.331  0.00  0.00    -0.063 C 
ATOM      7  C   UNL     1      -5.151  -2.752  -4.336  0.00  0.00    +0.066 C 
ATOM      8  H   UNL     1      -7.239  -2.961  -2.385  0.00  0.00    -0.081 HD
ENDROOT
BRANCH   1   9
ATOM      9  C   UNL     1      -3.312  -1.944  -3.024  0.00  0.00    +0.180 C 
BRANCH   9  11
ATOM     10  N   UNL     1      -1.726  -1.018  -1.368  0.00  0.00    -0.310 N 
ATOM     11  C   UNL     1      -2.867  -1.694  -1.606  0.00  0.00    +0.227 C 
ATOM     12  O   UNL     1      -3.535  -2.103  -0.680  0.00  0.00    -0.274 OA
ATOM     13  H   UNL     1      -1.192  -0.691  -2.108  0.00  0.00    +0.149 HD
BRANCH  10  14
ATOM     14  C   UNL     1      -1.293  -0.775   0.011  0.00  0.00    +0.139 C 
BRANCH  14  20
ATOM     15  C   UNL     1      -0.017   1.378   0.010  0.00  0.00    +0.007 A 
ATOM     16  C   UNL     1       1.171   2.086   0.002  0.00  0.00    +0.029 A 
ATOM     17  C   UNL     1       2.377   1.411  -0.013  0.00  0.00    +0.105 A 
ATOM     18  C   UNL     1       2.396   0.029  -0.020  0.00  0.00    +0.029 A 
ATOM     19  C   UNL     1       1.208  -0.679  -0.012  0.00  0.00    +0.007 A 
ATOM     20  C   UNL     1       0.002  -0.004   0.002  0.00  0.00    -0.030 A 
BRANCH  17  21
ATOM     21  S   UNL     1       3.891   2.312  -0.024  0.00  0.00    +0.056 S 
ATOM     22  O   UNL     1       4.872   1.453  -0.588  0.00  0.00    -0.153 OA
ATOM     23  O   UNL     1       3.597   3.593  -0.566  0.00  0.00    -0.153 OA
BRANCH  21  24
ATOM     24  N   UNL     1       4.327   2.556   1.555  0.00  0.00    -0.204 NA
ATOM     25  H   UNL     1       5.265   2.623   1.794  0.00  0.00    +0.144 HD
ATOM     26  H   UNL     1       3.645   2.631   2.241  0.00  0.00    +0.144 HD
ENDBRANCH  21  24
ENDBRANCH  17  21
ENDBRANCH  14  20
ENDBRANCH  10  14
ENDBRANCH   9  11
ENDBRANCH   1   9
BRANCH   5  27
ATOM     27  C   UNL     1      -8.733  -3.659  -3.572  0.00  0.00    -0.043 C 
BRANCH  27  28
ATOM     28  C   UNL     1      -9.426  -4.303  -2.398  0.00  0.00    -0.064 A 
ATOM     29  C   UNL     1      -9.492  -5.681  -2.305  0.00  0.00    +0.002 A 
ATOM     30  C   UNL     1     -10.127  -6.271  -1.229  0.00  0.00    +0.012 A 
ATOM     31  C   UNL     1     -10.696  -5.484  -0.245  0.00  0.00    +0.055 A 
ATOM     32  C   UNL     1     -10.629  -4.106  -0.338  0.00  0.00    +0.012 A 
ATOM     33  C   UNL     1      -9.990  -3.516  -1.412  0.00  0.00    +0.002 A 
BRANCH  31  34
ATOM     34  C   UNL     1     -11.389  -6.128   0.928  0.00  0.00    +0.417 C 
ATOM     35  F   UNL     1     -10.465  -6.338   1.958  0.00  0.00    -0.166 F 
ATOM     36  F   UNL     1     -12.412  -5.289   1.383  0.00  0.00    -0.166 F 
ATOM     37  F   UNL     1     -11.933  -7.354   0.532  0.00  0.00    -0.166 F 
ENDBRANCH  31  34
ENDBRANCH  27  28
ENDBRANCH   5  27
TORSDOF 9
