REMARK  Name = ZINC13016048
REMARK  11 active torsions:
REMARK  status: ('A' for Active; 'I' for Inactive)
REMARK    1  A    between atoms: C_4  and  S_7
REMARK    2  A    between atoms: S_7  and  N_10
REMARK    3  A    between atoms: N_10  and  C_11
REMARK    4  A    between atoms: C_11  and  C_12
REMARK    5  A    between atoms: C_12  and  C_13
REMARK    6  A    between atoms: C_13  and  O_15
REMARK    7  A    between atoms: O_15  and  C_16
REMARK    8  A    between atoms: C_16  and  C_17
REMARK    9  A    between atoms: N_19  and  C_20
REMARK   10  A    between atoms: C_23  and  S_27
REMARK   11  A    between atoms: S_27  and  N_30
REMARK                            x       y       z     vdW  Elec       q    Type
REMARK                         _______ _______ _______ _____ _____    ______ ____
ROOT
ATOM      1  C   UNL     1       2.369   5.180  -0.392  0.00  0.00    +0.255 C 
ATOM      2  O   UNL     1       1.327   5.744  -0.651  0.00  0.00    -0.272 OA
ATOM      3  N   UNL     1       2.357   3.891   0.001  0.00  0.00    -0.280 N 
ATOM      4  H   UNL     1       3.181   3.461   0.278  0.00  0.00    +0.155 HD
ENDROOT
BRANCH   3   5
ATOM      5  C   UNL     1       1.156   3.172   0.008  0.00  0.00    +0.071 A 
ATOM      6  C   UNL     1       0.748   2.485  -1.129  0.00  0.00    +0.065 A 
ATOM      7  C   UNL     1      -0.439   1.776  -1.118  0.00  0.00    +0.050 A 
ATOM      8  C   UNL     1      -1.222   1.754   0.021  0.00  0.00    +0.108 A 
ATOM      9  C   UNL     1      -0.817   2.432   1.157  0.00  0.00    +0.050 A 
ATOM     10  C   UNL     1       0.369   3.143   1.153  0.00  0.00    +0.065 A 
ATOM     11 CL   UNL     1       0.873   3.998   2.577  0.00  0.00    -0.082 Cl
ATOM     12 CL   UNL     1       1.728   2.517  -2.561  0.00  0.00    -0.082 Cl
BRANCH   8  13
ATOM     13  S   UNL     1      -2.738   0.855   0.029  0.00  0.00    +0.056 S 
ATOM     14  O   UNL     1      -3.552   1.440   1.036  0.00  0.00    -0.153 OA
ATOM     15  O   UNL     1      -3.156   0.754  -1.326  0.00  0.00    -0.153 OA
BRANCH  13  16
ATOM     16  N   UNL     1      -2.392  -0.683   0.533  0.00  0.00    -0.204 NA
ATOM     17  H   UNL     1      -3.060  -1.198   1.014  0.00  0.00    +0.144 HD
ATOM     18  H   UNL     1      -1.522  -1.071   0.348  0.00  0.00    +0.144 HD
ENDBRANCH  13  16
ENDBRANCH   8  13
ENDBRANCH   3   5
BRANCH   1  19
ATOM     19  C   UNL     1       3.676   5.921  -0.507  0.00  0.00    +0.328 C 
BRANCH  19  20
ATOM     20  O   UNL     1       3.424   7.282  -0.944  0.00  0.00    -0.455 OA
BRANCH  20  21
ATOM     21  C   UNL     1       4.491   8.081  -1.097  0.00  0.00    +0.309 C 
ATOM     22  O   UNL     1       5.600   7.656  -0.874  0.00  0.00    -0.251 OA
BRANCH  21  23
ATOM     23  C   UNL     1       4.307   9.507  -1.548  0.00  0.00    +0.137 C 
BRANCH  23  24
ATOM     24  C   UNL     1       5.672  10.193  -1.642  0.00  0.00    +0.117 C 
BRANCH  24  25
ATOM     25  N   UNL     1       5.493  11.579  -2.080  0.00  0.00    -0.189 NA
ATOM     26  H   UNL     1       4.648  11.861  -2.465  0.00  0.00    +0.148 HD
BRANCH  25  27
ATOM     27  S   UNL     1       6.732  12.665  -1.918  0.00  0.00    +0.058 S 
ATOM     28  O   UNL     1       6.265  13.897  -2.450  0.00  0.00    -0.153 OA
ATOM     29  O   UNL     1       7.207  12.543  -0.584  0.00  0.00    -0.153 OA
BRANCH  27  33
ATOM     30  C   UNL     1      10.089  11.280  -4.620  0.00  0.00    +0.000 A 
ATOM     31  C   UNL     1       9.124  12.143  -5.104  0.00  0.00    +0.002 A 
ATOM     32  C   UNL     1       8.098  12.565  -4.279  0.00  0.00    +0.028 A 
ATOM     33  C   UNL     1       8.039  12.126  -2.970  0.00  0.00    +0.105 A 
ATOM     34  C   UNL     1       9.008  11.268  -2.484  0.00  0.00    +0.028 A 
ATOM     35  C   UNL     1      10.030  10.841  -3.310  0.00  0.00    +0.002 A 
ENDBRANCH  27  33
ENDBRANCH  25  27
ENDBRANCH  24  25
ENDBRANCH  23  24
ENDBRANCH  21  23
ENDBRANCH  20  21
ENDBRANCH  19  20
ENDBRANCH   1  19
TORSDOF 11
