REMARK  Name = ZINC17658002
REMARK  7 active torsions:
REMARK  status: ('A' for Active; 'I' for Inactive)
REMARK    1  A    between atoms: C_1  and  C_2
REMARK    2  A    between atoms: N_4  and  C_5
REMARK    3  A    between atoms: C_8  and  N_11
REMARK    4  A    between atoms: C_12  and  C_14
REMARK    5  A    between atoms: C_14  and  S_15
REMARK    6  A    between atoms: S_15  and  C_16
REMARK    7  A    between atoms: C_19  and  C_21
REMARK                            x       y       z     vdW  Elec       q    Type
REMARK                         _______ _______ _______ _____ _____    ______ ____
ROOT
ATOM      1  C   UNL     1       7.761   4.208   1.310  0.00  0.00    +0.175 C 
ENDROOT
BRANCH   1   3
ATOM      2  N   UNL     1      10.010   5.231   1.187  0.00  0.00    -0.285 N 
ATOM      3  C   UNL     1       8.848   5.097   1.857  0.00  0.00    +0.228 C 
ATOM      4  O   UNL     1       8.678   5.692   2.900  0.00  0.00    -0.275 OA
ATOM      5  H   UNL     1      10.173   4.704   0.389  0.00  0.00    +0.155 HD
BRANCH   2   9
ATOM      6  C   UNL     1      12.904   7.908   2.545  0.00  0.00    +0.033 A 
ATOM      7  C   UNL     1      12.118   7.215   3.456  0.00  0.00    +0.025 A 
ATOM      8  C   UNL     1      11.159   6.328   3.006  0.00  0.00    +0.025 A 
ATOM      9  C   UNL     1      10.982   6.130   1.643  0.00  0.00    +0.034 A 
ATOM     10  C   UNL     1      11.772   6.819   0.733  0.00  0.00    +0.025 A 
ATOM     11  C   UNL     1      12.727   7.710   1.182  0.00  0.00    +0.025 A 
BRANCH   6  15
ATOM     12  C   UNL     1      15.105  10.948   2.849  0.00  0.00    +0.109 C 
ATOM     13  C   UNL     1      14.135   9.931   2.305  0.00  0.00    +0.214 C 
ATOM     14  O   UNL     1      13.585  10.125   1.241  0.00  0.00    -0.276 OA
ATOM     15  N   UNL     1      13.877   8.807   3.002  0.00  0.00    -0.286 N 
ATOM     16  H   UNL     1      14.365   8.619   3.819  0.00  0.00    +0.155 HD
ENDBRANCH   6  15
ENDBRANCH   2   9
ENDBRANCH   1   3
BRANCH   1  17
ATOM     17  S   UNL     1       6.338   4.237   2.429  0.00  0.00    -0.056 S 
BRANCH  17  18
ATOM     18  C   UNL     1       5.252   3.147   1.571  0.00  0.00    +0.278 A 
ATOM     19  N   UNL     1       5.501   2.533   0.439  0.00  0.00    -0.101 NA
ATOM     20  N   UNL     1       4.484   1.815   0.112  0.00  0.00    -0.108 NA
ATOM     21  C   UNL     1       3.551   1.947   1.009  0.00  0.00    +0.262 A 
ATOM     22  O   UNL     1       4.013   2.788   1.955  0.00  0.00    -0.412 OA
BRANCH  21  23
ATOM     23  C   UNL     1       2.202   1.277   0.995  0.00  0.00    +0.297 C 
ATOM     24  C   UNL     1       1.304   1.941  -0.058  0.00  0.00    +0.283 C 
ATOM     25  O   UNL     1       0.038   1.273  -0.054  0.00  0.00    -0.484 OA
ATOM     26  C   UNL     1       0.064  -0.088  -0.048  0.00  0.00    +0.162 A 
ATOM     27  C   UNL     1      -1.078  -0.792  -0.400  0.00  0.00    +0.049 A 
ATOM     28  C   UNL     1      -1.067  -2.174  -0.396  0.00  0.00    +0.004 A 
ATOM     29  C   UNL     1       0.081  -2.858  -0.043  0.00  0.00    +0.004 A 
ATOM     30  C   UNL     1       1.223  -2.163   0.307  0.00  0.00    +0.049 A 
ATOM     31  C   UNL     1       1.219  -0.775   0.304  0.00  0.00    +0.163 A 
ATOM     32  O   UNL     1       2.353  -0.104   0.648  0.00  0.00    -0.472 OA
ENDBRANCH  21  23
ENDBRANCH  17  18
ENDBRANCH   1  17
TORSDOF 6
