REMARK  Name = ZINC15979602
REMARK  17 active torsions:
REMARK  status: ('A' for Active; 'I' for Inactive)
REMARK    1  A    between atoms: C_1  and  C_2
REMARK    2  A    between atoms: C_2  and  O_3
REMARK    3  A    between atoms: O_3  and  C_4
REMARK    4  A    between atoms: C_7  and  S_25
REMARK    5  A    between atoms: C_9  and  C_10
REMARK    6  A    between atoms: N_17  and  C_24
REMARK    7  A    between atoms: C_19  and  C_20
REMARK    8  A    between atoms: C_20  and  C_21
REMARK    9  A    between atoms: C_20  and  C_22
REMARK   10  A    between atoms: C_20  and  C_23
REMARK   11  A    between atoms: S_25  and  N_28
REMARK   12  A    between atoms: N_28  and  C_29
REMARK   13  A    between atoms: N_28  and  C_32
REMARK   14  A    between atoms: C_29  and  C_30
REMARK   15  A    between atoms: C_30  and  O_31
REMARK   16  A    between atoms: C_32  and  C_33
REMARK   17  A    between atoms: C_33  and  O_34
REMARK                            x       y       z     vdW  Elec       q    Type
REMARK                         _______ _______ _______ _____ _____    ______ ____
ROOT
ATOM      1  C   UNL     1       0.777  -1.808  -1.336  0.00  0.00    +0.131 A 
ATOM      2  C   UNL     1       0.243  -2.668  -0.388  0.00  0.00    +0.048 A 
ATOM      3  C   UNL     1       0.352  -4.035  -0.554  0.00  0.00    +0.032 A 
ATOM      4  C   UNL     1       0.992  -4.557  -1.666  0.00  0.00    +0.106 A 
ATOM      5  C   UNL     1       1.527  -3.716  -2.618  0.00  0.00    +0.043 A 
ATOM      6  C   UNL     1       1.420  -2.332  -2.465  0.00  0.00    +0.061 A 
ENDROOT
BRANCH   6   7
ATOM      7  C   UNL     1       1.986  -1.426  -3.484  0.00  0.00    +0.145 A 
ATOM      8  N   UNL     1       1.882  -0.131  -3.311  0.00  0.00    -0.225 NA
ATOM      9  C   UNL     1       2.385   0.735  -4.214  0.00  0.00    +0.120 A 
ATOM     10  C   UNL     1       3.029   0.241  -5.356  0.00  0.00    +0.151 A 
ATOM     11  C   UNL     1       3.133  -1.159  -5.528  0.00  0.00    +0.278 A 
ATOM     12  O   UNL     1       3.686  -1.627  -6.508  0.00  0.00    -0.265 OA
ATOM     13  N   UNL     1       2.610  -1.964  -4.577  0.00  0.00    -0.305 N 
ATOM     14  N   UNL     1       3.432   1.325  -6.086  0.00  0.00    -0.260 N 
ATOM     15  N   UNL     1       3.039   2.479  -5.397  0.00  0.00    -0.173 NA
ATOM     16  C   UNL     1       2.423   2.141  -4.297  0.00  0.00    +0.094 A 
ATOM     17  C   UNL     1       4.150   1.285  -7.363  0.00  0.00    +0.173 C 
ATOM     18  H   UNL     1       2.673  -2.927  -4.672  0.00  0.00    +0.170 HD
BRANCH  16  19
ATOM     19  C   UNL     1       1.848   3.096  -3.283  0.00  0.00    +0.008 C 
ATOM     20  C   UNL     1       2.521   2.867  -1.928  0.00  0.00    +0.017 C 
ATOM     21  C   UNL     1       2.096   4.535  -3.739  0.00  0.00    +0.017 C 
ATOM     22  C   UNL     1       0.343   2.855  -3.151  0.00  0.00    +0.017 C 
ENDBRANCH  16  19
ENDBRANCH   6   7
BRANCH   4  23
ATOM     23  S   UNL     1       1.123  -6.303  -1.864  0.00  0.00    +0.061 S 
ATOM     24  O   UNL     1       2.242  -6.533  -2.709  0.00  0.00    -0.153 OA
ATOM     25  O   UNL     1       1.020  -6.868  -0.565  0.00  0.00    -0.153 OA
BRANCH  23  26
ATOM     26  N   UNL     1      -0.215  -6.802  -2.704  0.00  0.00    -0.172 NA
BRANCH  26  27
ATOM     27  C   UNL     1      -0.184  -6.852  -4.168  0.00  0.00    +0.137 C 
BRANCH  27  28
ATOM     28  C   UNL     1       0.178  -8.267  -4.622  0.00  0.00    +0.173 C 
BRANCH  28  29
ATOM     29  O   UNL     1      -0.857  -9.172  -4.234  0.00  0.00    -0.394 OA
ATOM     30  H   UNL     1      -0.694 -10.090  -4.491  0.00  0.00    +0.209 HD
ENDBRANCH  28  29
ENDBRANCH  27  28
ENDBRANCH  26  27
BRANCH  26  31
ATOM     31  C   UNL     1      -1.429  -7.193  -1.983  0.00  0.00    +0.137 C 
BRANCH  31  32
ATOM     32  C   UNL     1      -2.379  -5.997  -1.897  0.00  0.00    +0.173 C 
BRANCH  32  33
ATOM     33  O   UNL     1      -2.817  -5.642  -3.210  0.00  0.00    -0.394 OA
ATOM     34  H   UNL     1      -3.424  -4.890  -3.232  0.00  0.00    +0.209 HD
ENDBRANCH  32  33
ENDBRANCH  31  32
ENDBRANCH  26  31
ENDBRANCH  23  26
ENDBRANCH   4  23
BRANCH   1  35
ATOM     35  O   UNL     1       0.671  -0.465  -1.174  0.00  0.00    -0.492 OA
BRANCH  35  37
ATOM     36  C   UNL     1      -0.019   1.526   0.010  0.00  0.00    +0.048 C 
ATOM     37  C   UNL     1       0.002  -0.004   0.002  0.00  0.00    +0.226 C 
ENDBRANCH  35  37
ENDBRANCH   1  35
TORSDOF 12
