REMARK  Name = ZINC02513382
REMARK  9 active torsions:
REMARK  status: ('A' for Active; 'I' for Inactive)
REMARK    1  A    between atoms: C_1  and  O_2
REMARK    2  A    between atoms: O_2  and  C_3
REMARK    3  A    between atoms: C_6  and  C_9
REMARK    4  A    between atoms: C_13  and  N_14
REMARK    5  A    between atoms: C_17  and  C_28
REMARK    6  A    between atoms: C_18  and  S_20
REMARK    7  A    between atoms: S_20  and  C_21
REMARK    8  A    between atoms: C_31  and  O_34
REMARK    9  A    between atoms: O_34  and  C_35
REMARK                            x       y       z     vdW  Elec       q    Type
REMARK                         _______ _______ _______ _____ _____    ______ ____
ROOT
ATOM      1  C   UNL     1      -2.520   1.030  -0.005  0.00  0.00    +0.041 A 
ATOM      2  C   UNL     1      -2.868  -0.022  -0.875  0.00  0.00    +0.145 A 
ATOM      3  N   UNL     1      -4.064  -0.441  -0.559  0.00  0.00    -0.171 NA
ATOM      4  N   UNL     1      -4.542   0.313   0.519  0.00  0.00    -0.194 N 
ATOM      5  C   UNL     1      -3.583   1.216   0.862  0.00  0.00    +0.130 A 
ATOM      6  C   UNL     1      -5.781   0.161   1.139  0.00  0.00    +0.197 A 
ATOM      7  N   UNL     1      -6.749  -0.691   0.865  0.00  0.00    -0.220 NA
ATOM      8  C   UNL     1      -7.881  -0.700   1.566  0.00  0.00    +0.094 A 
ATOM      9  C   UNL     1      -8.035   0.201   2.595  0.00  0.00    +0.079 A 
ATOM     10  S   UNL     1      -6.471   1.063   2.518  0.00  0.00    -0.041 S 
ENDROOT
BRANCH   1  14
ATOM     11  C   UNL     1       1.127   3.218  -0.033  0.00  0.00    +0.120 A 
ATOM     12  C   UNL     1       1.152   1.831  -0.038  0.00  0.00    +0.046 A 
ATOM     13  C   UNL     1      -0.029   1.118  -0.026  0.00  0.00    +0.012 A 
ATOM     14  C   UNL     1      -1.248   1.793  -0.013  0.00  0.00    -0.013 A 
ATOM     15  C   UNL     1      -1.270   3.187  -0.003  0.00  0.00    +0.012 A 
ATOM     16  C   UNL     1      -0.085   3.894  -0.016  0.00  0.00    +0.046 A 
BRANCH  11  18
ATOM     17  C   UNL     1       2.195   5.343  -0.040  0.00  0.00    +0.277 C 
ATOM     18  O   UNL     1       2.293   3.918  -0.046  0.00  0.00    -0.495 OA
ENDBRANCH  11  18
ENDBRANCH   1  14
BRANCH   8  19
ATOM     19  C   UNL     1      -8.957  -1.664   1.244  0.00  0.00    +0.002 A 
ATOM     20  C   UNL     1      -9.737  -2.209   2.264  0.00  0.00    +0.013 A 
ATOM     21  C   UNL     1     -10.742  -3.103   1.959  0.00  0.00    +0.046 A 
ATOM     22  C   UNL     1     -10.971  -3.469   0.640  0.00  0.00    +0.120 A 
ATOM     23  C   UNL     1     -10.193  -2.934  -0.378  0.00  0.00    +0.046 A 
ATOM     24  C   UNL     1      -9.190  -2.035  -0.081  0.00  0.00    +0.013 A 
BRANCH  22  25
ATOM     25  O   UNL     1     -11.959  -4.355   0.344  0.00  0.00    -0.495 OA
ATOM     26  C   UNL     1     -12.721  -4.867   1.439  0.00  0.00    +0.277 C 
ENDBRANCH  22  25
ENDBRANCH   8  19
BRANCH   5  27
ATOM     27  N   UNL     1      -3.658   2.150   1.887  0.00  0.00    -0.343 N 
ATOM     28  H   UNL     1      -2.916   2.754   2.048  0.00  0.00    +0.144 HD
ATOM     29  H   UNL     1      -4.452   2.199   2.441  0.00  0.00    +0.144 HD
ENDBRANCH   5  27
BRANCH   9  30
ATOM     30  S   UNL     1      -9.395   0.435   3.690  0.00  0.00    -0.080 S 
BRANCH  30  31
ATOM     31  C   UNL     1      -8.821   1.649   4.830  0.00  0.00    +0.013 A 
ATOM     32  C   UNL     1      -8.088   1.265   5.947  0.00  0.00    +0.016 A 
ATOM     33  C   UNL     1      -7.635   2.220   6.835  0.00  0.00    +0.021 A 
ATOM     34  C   UNL     1      -7.919   3.557   6.620  0.00  0.00    +0.041 A 
ATOM     35  C   UNL     1      -8.653   3.943   5.512  0.00  0.00    +0.021 A 
ATOM     36  C   UNL     1      -9.105   2.993   4.617  0.00  0.00    +0.016 A 
ATOM     37 CL   UNL     1      -7.353   4.754   7.744  0.00  0.00    -0.084 Cl
ENDBRANCH  30  31
ENDBRANCH   9  30
TORSDOF 7
