REMARK  Name = ZINC25531512
REMARK  11 active torsions:
REMARK  status: ('A' for Active; 'I' for Inactive)
REMARK    1  A    between atoms: C_1  and  C_2
REMARK    2  A    between atoms: C_4  and  N_27
REMARK    3  A    between atoms: C_6  and  C_7
REMARK    4  A    between atoms: N_9  and  C_10
REMARK    5  A    between atoms: C_13  and  N_16
REMARK    6  A    between atoms: N_16  and  S_17
REMARK    7  A    between atoms: S_17  and  C_20
REMARK    8  A    between atoms: C_28  and  C_30
REMARK    9  A    between atoms: C_30  and  C_31
REMARK   10  A    between atoms: C_30  and  C_32
REMARK   11  A    between atoms: C_30  and  C_33
REMARK                            x       y       z     vdW  Elec       q    Type
REMARK                         _______ _______ _______ _____ _____    ______ ____
ROOT
ATOM      1  C   UNL     1       5.766  -0.666  -5.257  0.00  0.00    +0.255 C 
ATOM      2  O   UNL     1       5.484   0.170  -4.418  0.00  0.00    -0.269 OA
ATOM      3  N   UNL     1       5.165  -1.872  -5.237  0.00  0.00    -0.281 N 
ATOM      4  H   UNL     1       5.481  -2.656  -5.941  0.00  0.00    +0.155 HD
ENDROOT
BRANCH   1  10
ATOM      5  C   UNL     1       7.304   2.000  -5.580  0.00  0.00    +0.045 C 
ATOM      6  C   UNL     1       7.479   0.808  -6.485  0.00  0.00    -0.029 A 
ATOM      7  C   UNL     1       8.359   0.833  -7.534  0.00  0.00    +0.035 A 
ATOM      8  C   UNL     1       8.471  -0.285  -8.332  0.00  0.00    +0.073 A 
ATOM      9  S   UNL     1       7.346  -1.394  -7.617  0.00  0.00    -0.069 S 
ATOM     10  C   UNL     1       6.758  -0.361  -6.287  0.00  0.00    +0.079 A 
BRANCH   8  11
ATOM     11  N   UNL     1       9.286  -0.477  -9.441  0.00  0.00    -0.280 N 
ATOM     12  C   UNL     1       9.259  -1.651 -10.102  0.00  0.00    +0.223 C 
ATOM     13  O   UNL     1       8.524  -2.540  -9.730  0.00  0.00    -0.275 OA
ATOM     14  H   UNL     1       9.954   0.330  -9.778  0.00  0.00    +0.155 HD
BRANCH  12  15
ATOM     15  C   UNL     1      10.144  -1.858 -11.305  0.00  0.00    +0.039 C 
ATOM     16  C   UNL     1       9.921  -3.264 -11.865  0.00  0.00    +0.020 C 
ATOM     17  C   UNL     1       9.800  -0.822 -12.376  0.00  0.00    +0.020 C 
ATOM     18  C   UNL     1      11.609  -1.699 -10.894  0.00  0.00    +0.020 C 
ENDBRANCH  12  15
ENDBRANCH   8  11
ENDBRANCH   1  10
BRANCH   3  19
ATOM     19  C   UNL     1       4.138  -2.126  -4.319  0.00  0.00    +0.034 A 
ATOM     20  C   UNL     1       3.982  -3.400  -3.788  0.00  0.00    +0.025 A 
ATOM     21  C   UNL     1       2.969  -3.651  -2.883  0.00  0.00    +0.026 A 
ATOM     22  C   UNL     1       2.108  -2.630  -2.504  0.00  0.00    +0.048 A 
ATOM     23  C   UNL     1       2.261  -1.358  -3.039  0.00  0.00    +0.026 A 
ATOM     24  C   UNL     1       3.277  -1.105  -3.939  0.00  0.00    +0.025 A 
BRANCH  22  25
ATOM     25  N   UNL     1       1.082  -2.885  -1.587  0.00  0.00    -0.216 N 
ATOM     26  H   UNL     1       0.040  -2.954  -1.934  0.00  0.00    +0.174 HD
BRANCH  25  27
ATOM     27  S   UNL     1       1.435  -3.081   0.018  0.00  0.00    +0.072 S 
ATOM     28  O   UNL     1       2.470  -4.052   0.090  0.00  0.00    -0.150 OA
ATOM     29  O   UNL     1       0.194  -3.239   0.691  0.00  0.00    -0.150 OA
BRANCH  27  30
ATOM     30  C   UNL     1       2.128  -1.564   0.588  0.00  0.00    +0.109 A 
ATOM     31  C   UNL     1       1.298  -0.536   0.996  0.00  0.00    +0.031 A 
ATOM     32  C   UNL     1       1.840   0.654   1.443  0.00  0.00    +0.040 A 
ATOM     33  C   UNL     1       3.214   0.817   1.483  0.00  0.00    +0.124 A 
ATOM     34  C   UNL     1       4.044  -0.214   1.074  0.00  0.00    +0.040 A 
ATOM     35  C   UNL     1       3.500  -1.403   0.628  0.00  0.00    +0.031 A 
ATOM     36  F   UNL     1       3.745   1.980   1.919  0.00  0.00    -0.205 F 
ENDBRANCH  27  30
ENDBRANCH  25  27
ENDBRANCH  22  25
ENDBRANCH   3  19
TORSDOF 7
