REMARK  Name = ZINC09233975
REMARK  4 active torsions:
REMARK  status: ('A' for Active; 'I' for Inactive)
REMARK    1  A    between atoms: C_4  and  C_7
REMARK    2  A    between atoms: C_7  and  C_9
REMARK    3  A    between atoms: C_11  and  C_29
REMARK    4  A    between atoms: C_33  and  N_35
REMARK                            x       y       z     vdW  Elec       q    Type
REMARK                         _______ _______ _______ _____ _____    ______ ____
ROOT
ATOM      1  C   UNL     1      -0.911   1.095  -0.777  0.00  0.00    +0.069 C 
ATOM      2  C   UNL     1       0.311   0.509  -0.038  0.00  0.00    +0.016 C 
ATOM      3  C   UNL     1       0.493  -0.888  -0.663  0.00  0.00    -0.047 C 
ATOM      4  C   UNL     1       1.976  -1.301  -0.562  0.00  0.00    +0.052 C 
ATOM      5  S   UNL     1       2.490  -1.307  -2.332  0.00  0.00    -0.181 S 
ATOM      6  C   UNL     1       1.068  -0.328  -2.991  0.00  0.00    -0.005 C 
ATOM      7  C   UNL     1      -1.075   0.235  -2.034  0.00  0.00    +0.052 C 
ATOM      8  C   UNL     1      -1.035   1.083  -3.277  0.00  0.00    -0.024 A 
ATOM      9  C   UNL     1      -0.083   1.918  -3.819  0.00  0.00    +0.043 A 
ATOM     10  C   UNL     1      -0.340   2.580  -5.009  0.00  0.00    +0.124 A 
ATOM     11  C   UNL     1      -1.554   2.398  -5.649  0.00  0.00    +0.040 A 
ATOM     12  C   UNL     1      -2.509   1.563  -5.107  0.00  0.00    +0.026 A 
ATOM     13  C   UNL     1      -2.258   0.895  -3.911  0.00  0.00    +0.036 A 
ATOM     14  N   UNL     1      -3.052   0.011  -3.176  0.00  0.00    -0.286 N 
ATOM     15  C   UNL     1      -2.432  -0.422  -2.062  0.00  0.00    +0.212 C 
ATOM     16  O   UNL     1      -2.878  -1.193  -1.240  0.00  0.00    -0.277 OA
ATOM     17  F   UNL     1       0.593   3.399  -5.544  0.00  0.00    -0.205 F 
ATOM     18  H   UNL     1      -3.946  -0.260  -3.437  0.00  0.00    +0.155 HD
ATOM     19  N   UNL     1      -0.018  -0.763  -2.041  0.00  0.00    +0.401 N 
ATOM     20  H   UNL     1      -0.394  -1.667  -2.349  0.00  0.00    -0.078 HD
ENDROOT
BRANCH   2  21
ATOM     21  C   UNL     1       0.030   0.394   1.438  0.00  0.00    -0.043 A 
ATOM     22  C   UNL     1       0.177  -0.823   2.077  0.00  0.00    +0.004 A 
ATOM     23  C   UNL     1      -0.076  -0.927   3.432  0.00  0.00    +0.002 A 
ATOM     24  C   UNL     1      -0.486   0.184   4.146  0.00  0.00    +0.033 A 
ATOM     25  C   UNL     1      -0.638   1.399   3.506  0.00  0.00    +0.126 A 
ATOM     26  C   UNL     1      -0.380   1.505   2.152  0.00  0.00    +0.036 A 
BRANCH  25  27
ATOM     27  N   UNL     1      -1.078   2.588   4.270  0.00  0.00    +0.056 N 
ATOM     28  O   UNL     1      -1.212   3.659   3.706  0.00  0.00    -0.126 OA
ATOM     29  O   UNL     1      -1.305   2.495   5.463  0.00  0.00    -0.126 OA
ENDBRANCH  25  27
ENDBRANCH   2  21
BRANCH   1  30
ATOM     30  C   UNL     1      -2.141   0.997   0.088  0.00  0.00    +0.166 C 
ATOM     31  O   UNL     1      -2.273   0.062   0.850  0.00  0.00    -0.292 OA
BRANCH  30  35
ATOM     32  C   UNL     1      -5.141   3.986  -0.142  0.00  0.00    +0.000 A 
ATOM     33  C   UNL     1      -5.296   2.921   0.729  0.00  0.00    +0.001 A 
ATOM     34  C   UNL     1      -4.325   1.945   0.809  0.00  0.00    +0.011 A 
ATOM     35  C   UNL     1      -3.182   2.034   0.008  0.00  0.00    +0.018 A 
ATOM     36  C   UNL     1      -3.031   3.115  -0.865  0.00  0.00    +0.011 A 
ATOM     37  C   UNL     1      -4.013   4.080  -0.938  0.00  0.00    +0.001 A 
ENDBRANCH  30  35
ENDBRANCH   1  30
TORSDOF 4
