REMARK  Name = ZINC04666119
REMARK  7 active torsions:
REMARK  status: ('A' for Active; 'I' for Inactive)
REMARK    1  A    between atoms: C_1  and  C_2
REMARK    2  A    between atoms: C_5  and  C_8
REMARK    3  A    between atoms: C_11  and  C_23
REMARK    4  A    between atoms: N_13  and  C_14
REMARK    5  A    between atoms: C_14  and  N_16
REMARK    6  A    between atoms: N_16  and  C_17
REMARK    7  A    between atoms: C_26  and  C_29
REMARK                            x       y       z     vdW  Elec       q    Type
REMARK                         _______ _______ _______ _____ _____    ______ ____
ROOT
ATOM      1  C   UNL     1       6.338  -1.197   3.610  0.00  0.00    +0.136 C 
ATOM      2  C   UNL     1       6.526  -1.722   5.048  0.00  0.00    +0.087 C 
ATOM      3  C   UNL     1       5.119  -1.796   5.595  0.00  0.00    +0.069 C 
ATOM      4  N   UNL     1       4.285  -1.402   4.696  0.00  0.00    -0.182 NA
ATOM      5  N   UNL     1       4.881  -1.024   3.494  0.00  0.00    -0.196 N 
ENDROOT
BRANCH   1  10
ATOM      6  C   UNL     1       9.048   3.861   2.930  0.00  0.00    +0.044 C 
ATOM      7  C   UNL     1       8.341   2.542   3.107  0.00  0.00    -0.050 A 
ATOM      8  C   UNL     1       8.886   1.389   2.575  0.00  0.00    +0.004 A 
ATOM      9  C   UNL     1       8.238   0.179   2.737  0.00  0.00    +0.006 A 
ATOM     10  C   UNL     1       7.045   0.122   3.433  0.00  0.00    -0.025 A 
ATOM     11  C   UNL     1       6.497   1.276   3.961  0.00  0.00    +0.006 A 
ATOM     12  C   UNL     1       7.148   2.486   3.802  0.00  0.00    +0.004 A 
ENDBRANCH   1  10
BRANCH   3  13
ATOM     13  C   UNL     1       4.756  -2.250   6.951  0.00  0.00    -0.002 A 
ATOM     14  C   UNL     1       5.749  -2.662   7.842  0.00  0.00    +0.010 A 
ATOM     15  C   UNL     1       5.403  -3.081   9.110  0.00  0.00    +0.004 A 
ATOM     16  C   UNL     1       4.075  -3.103   9.496  0.00  0.00    -0.050 A 
ATOM     17  C   UNL     1       3.085  -2.702   8.616  0.00  0.00    +0.004 A 
ATOM     18  C   UNL     1       3.417  -2.276   7.347  0.00  0.00    +0.010 A 
ATOM     19  C   UNL     1       3.704  -3.567  10.881  0.00  0.00    +0.044 C 
ENDBRANCH   3  13
BRANCH   5  20
ATOM     20  C   UNL     1       4.229  -0.577   2.402  0.00  0.00    +0.153 C 
ATOM     21  S   UNL     1       5.107  -0.150   0.996  0.00  0.00    -0.017 S 
BRANCH  20  22
ATOM     22  N   UNL     1       2.886  -0.467   2.418  0.00  0.00    -0.322 N 
ATOM     23  H   UNL     1       2.389  -0.709   3.214  0.00  0.00    +0.148 HD
BRANCH  22  24
ATOM     24  C   UNL     1       2.178   0.019   1.231  0.00  0.00    +0.072 C 
ATOM     25  C   UNL     1       0.742  -0.511   1.242  0.00  0.00    +0.022 C 
ATOM     26  C   UNL     1       0.002  -0.004   0.002  0.00  0.00    +0.002 C 
ATOM     27  C   UNL     1      -0.019   1.526   0.010  0.00  0.00    +0.000 C 
ATOM     28  C   UNL     1       1.417   2.055  -0.000  0.00  0.00    +0.002 C 
ATOM     29  C   UNL     1       2.157   1.548   1.239  0.00  0.00    +0.022 C 
ENDBRANCH  22  24
ENDBRANCH  20  22
ENDBRANCH   5  20
TORSDOF 5
