REMARK  Name = ZINC08991117
REMARK  9 active torsions:
REMARK  status: ('A' for Active; 'I' for Inactive)
REMARK    1  A    between atoms: C_1  and  C_2
REMARK    2  A    between atoms: C_2  and  C_3
REMARK    3  A    between atoms: C_3  and  C_5
REMARK    4  A    between atoms: C_3  and  N_29
REMARK    5  A    between atoms: N_7  and  N_8
REMARK    6  A    between atoms: C_11  and  C_28
REMARK    7  A    between atoms: C_30  and  O_32
REMARK    8  A    between atoms: O_32  and  C_33
REMARK    9  A    between atoms: C_33  and  C_34
REMARK                            x       y       z     vdW  Elec       q    Type
REMARK                         _______ _______ _______ _____ _____    ______ ____
ROOT
ATOM      1  N   UNL     1       8.015  -4.563  -6.071  0.00  0.00    -0.142 NA
ATOM      2  C   UNL     1       9.050  -5.258  -6.468  0.00  0.00    +0.236 A 
ATOM      3  C   UNL     1      10.245  -5.386  -5.621  0.00  0.00    +0.073 A 
ATOM      4  C   UNL     1      11.009  -6.500  -5.783  0.00  0.00    -0.035 A 
ATOM      5  C   UNL     1      10.585  -7.480  -6.795  0.00  0.00    +0.021 A 
ATOM      6  C   UNL     1      11.149  -8.755  -6.840  0.00  0.00    +0.019 A 
ATOM      7  C   UNL     1      10.731  -9.665  -7.792  0.00  0.00    -0.005 A 
ATOM      8  C   UNL     1       9.750  -9.313  -8.709  0.00  0.00    +0.128 A 
ATOM      9  C   UNL     1       9.187  -8.040  -8.675  0.00  0.00    +0.092 A 
ATOM     10  C   UNL     1       9.595  -7.122  -7.727  0.00  0.00    +0.141 A 
ATOM     11  O   UNL     1       9.053  -5.878  -7.682  0.00  0.00    -0.436 OA
ATOM     12  O   UNL     1       9.313 -10.183  -9.647  0.00  0.00    -0.485 OA
ATOM     13  C   UNL     1      10.042 -11.367  -9.927  0.00  0.00    +0.111 C 
ATOM     14  C   UNL     1       9.126 -12.366 -10.648  0.00  0.00    +0.048 C 
ATOM     15  C   UNL     1       8.597 -11.733 -11.936  0.00  0.00    +0.004 C 
ATOM     16  C   UNL     1       9.772 -11.382 -12.852  0.00  0.00    +0.000 C 
ATOM     17  C   UNL     1      10.697 -10.396 -12.137  0.00  0.00    +0.004 C 
ATOM     18  C   UNL     1      11.222 -11.030 -10.848  0.00  0.00    +0.048 C 
ATOM     19  C   UNL     1      10.572 -12.009  -8.653  0.00  0.00    +0.053 C 
ATOM     20  C   UNL     1      11.363 -11.029  -7.809  0.00  0.00    +0.043 C 
ATOM     21  C   UNL     1      12.251  -6.719  -4.958  0.00  0.00    +0.044 C 
ENDROOT
BRANCH   1  24
ATOM     22  C   UNL     1       6.966  -3.217  -4.410  0.00  0.00    +0.253 C 
ATOM     23  O   UNL     1       5.991  -3.118  -5.125  0.00  0.00    -0.272 OA
ATOM     24  N   UNL     1       8.033  -3.933  -4.819  0.00  0.00    -0.202 N 
ATOM     25  H   UNL     1       8.812  -4.012  -4.248  0.00  0.00    +0.177 HD
BRANCH  22  26
ATOM     26  C   UNL     1       6.986  -2.539  -3.064  0.00  0.00    +0.163 C 
BRANCH  26  27
ATOM     27  N   UNL     1       5.720  -1.831  -2.856  0.00  0.00    -0.270 N 
ATOM     28  C   UNL     1       5.283  -1.587  -1.605  0.00  0.00    +0.401 C 
ATOM     29  O   UNL     1       5.939  -1.953  -0.649  0.00  0.00    -0.226 OA
ATOM     30  H   UNL     1       5.197  -1.539  -3.618  0.00  0.00    +0.153 HD
BRANCH  28  31
ATOM     31  O   UNL     1       4.120  -0.936  -1.413  0.00  0.00    -0.446 OA
BRANCH  31  32
ATOM     32  C   UNL     1       3.711  -0.707  -0.039  0.00  0.00    +0.269 C 
BRANCH  32  33
ATOM     33  C   UNL     1       2.396   0.029  -0.022  0.00  0.00    -0.010 A 
ATOM     34  C   UNL     1       1.208  -0.679  -0.014  0.00  0.00    +0.007 A 
ATOM     35  C   UNL     1       0.002  -0.004   0.002  0.00  0.00    +0.000 A 
ATOM     36  C   UNL     1      -0.017   1.378   0.010  0.00  0.00    +0.000 A 
ATOM     37  C   UNL     1       1.171   2.086   0.002  0.00  0.00    +0.000 A 
ATOM     38  C   UNL     1       2.377   1.411  -0.014  0.00  0.00    +0.007 A 
ENDBRANCH  32  33
ENDBRANCH  31  32
ENDBRANCH  28  31
ENDBRANCH  26  27
BRANCH  26  40
ATOM     39  C   UNL     1       8.240  -0.944  -1.607  0.00  0.00    +0.006 C 
ATOM     40  C   UNL     1       8.143  -1.540  -3.013  0.00  0.00    +0.028 C 
ENDBRANCH  26  40
ENDBRANCH  22  26
ENDBRANCH   1  24
TORSDOF 7
