REMARK  Name = ZINC40003039
REMARK  4 active torsions:
REMARK  status: ('A' for Active; 'I' for Inactive)
REMARK    1  A    between atoms: C_1  and  C_2
REMARK    2  A    between atoms: C_2  and  C_28
REMARK    3  A    between atoms: N_5  and  C_9
REMARK    4  A    between atoms: C_11  and  C_22
REMARK                            x       y       z     vdW  Elec       q    Type
REMARK                         _______ _______ _______ _____ _____    ______ ____
ROOT
ATOM      1  C   UNL     1       2.797  -1.871  -1.246  0.00  0.00    +0.203 C 
ATOM      2  C   UNL     1       2.739  -3.385  -1.176  0.00  0.00    -0.002 C 
ATOM      3  C   UNL     1       3.925  -4.051  -0.855  0.00  0.00    +0.004 A 
ATOM      4  C   UNL     1       3.960  -5.459  -0.769  0.00  0.00    +0.030 A 
ATOM      5  C   UNL     1       5.129  -6.083  -0.455  0.00  0.00    +0.042 A 
ATOM      6  C   UNL     1       6.295  -5.358  -0.215  0.00  0.00    +0.022 A 
ATOM      7  C   UNL     1       6.322  -3.998  -0.284  0.00  0.00    +0.025 A 
ATOM      8  C   UNL     1       5.152  -3.287  -0.603  0.00  0.00    +0.041 A 
ATOM      9  N   UNL     1       5.181  -1.952  -0.670  0.00  0.00    -0.283 N 
ATOM     10  C   UNL     1       4.129  -1.214  -0.962  0.00  0.00    +0.243 C 
ATOM     11  O   UNL     1       4.230  -0.002  -1.005  0.00  0.00    -0.273 OA
ATOM     12 CL   UNL     1       5.167  -7.815  -0.351  0.00  0.00    -0.084 Cl
ATOM     13  H   UNL     1       6.022  -1.502  -0.493  0.00  0.00    +0.155 HD
ENDROOT
BRANCH   1  18
ATOM     14  C   UNL     1      -0.023   1.227   0.880  0.00  0.00    +0.050 C 
ATOM     15  C   UNL     1       0.032  -0.286   0.661  0.00  0.00    +0.168 C 
ATOM     16  C   UNL     1       0.741  -0.612  -0.638  0.00  0.00    +0.255 C 
ATOM     17  O   UNL     1       0.407  -0.286  -1.757  0.00  0.00    -0.272 OA
ATOM     18  N   UNL     1       1.821  -1.339  -0.291  0.00  0.00    -0.208 N 
ATOM     19  C   UNL     1       1.892  -1.516   1.034  0.00  0.00    +0.311 C 
ATOM     20  O   UNL     1       2.777  -2.139   1.585  0.00  0.00    -0.252 OA
ATOM     21  N   UNL     1       0.873  -0.928   1.686  0.00  0.00    -0.279 N 
ATOM     22  H   UNL     1       0.723  -0.926   2.644  0.00  0.00    +0.152 HD
BRANCH  15  23
ATOM     23  C   UNL     1      -1.357  -0.872   0.672  0.00  0.00    +0.137 A 
ATOM     24  C   UNL     1      -2.015  -1.314   1.759  0.00  0.00    +0.047 A 
ATOM     25  C   UNL     1      -3.275  -1.777   1.314  0.00  0.00    +0.041 A 
ATOM     26  C   UNL     1      -3.311  -1.590  -0.017  0.00  0.00    +0.195 A 
ATOM     27  O   UNL     1      -2.149  -1.036  -0.400  0.00  0.00    -0.465 OA
ENDBRANCH  15  23
ENDBRANCH   1  18
BRANCH   2  28
ATOM     28  C   UNL     1       1.536  -4.092  -1.424  0.00  0.00    -0.019 A 
ATOM     29  C   UNL     1       0.930  -4.839  -0.401  0.00  0.00    +0.008 A 
ATOM     30  C   UNL     1      -0.238  -5.522  -0.652  0.00  0.00    +0.001 A 
ATOM     31  C   UNL     1      -0.816  -5.476  -1.911  0.00  0.00    +0.000 A 
ATOM     32  C   UNL     1      -0.227  -4.742  -2.928  0.00  0.00    +0.001 A 
ATOM     33  C   UNL     1       0.939  -4.047  -2.695  0.00  0.00    +0.008 A 
ENDBRANCH   2  28
TORSDOF 3
