REMARK  Name = ZINC63948705
REMARK  9 active torsions:
REMARK  status: ('A' for Active; 'I' for Inactive)
REMARK    1  A    between atoms: C_1  and  C_2
REMARK    2  A    between atoms: C_2  and  C_4
REMARK    3  A    between atoms: C_2  and  N_14
REMARK    4  A    between atoms: C_4  and  C_5
REMARK    5  A    between atoms: C_15  and  C_17
REMARK    6  A    between atoms: C_20  and  C_23
REMARK    7  A    between atoms: C_23  and  N_24
REMARK    8  A    between atoms: N_24  and  S_25
REMARK    9  A    between atoms: S_25  and  C_28
REMARK                            x       y       z     vdW  Elec       q    Type
REMARK                         _______ _______ _______ _____ _____    ______ ____
ROOT
ATOM      1  C   UNL     1       0.698  -1.085  -3.575  0.00  0.00    +0.037 A 
ATOM      2  C   UNL     1       2.056  -1.405  -3.529  0.00  0.00    +0.013 A 
ATOM      3  C   UNL     1       2.696  -1.850  -4.667  0.00  0.00    +0.006 A 
ATOM      4  C   UNL     1       1.994  -1.978  -5.853  0.00  0.00    -0.032 A 
ATOM      5  C   UNL     1       0.648  -1.662  -5.906  0.00  0.00    +0.006 A 
ATOM      6  C   UNL     1      -0.005  -1.222  -4.773  0.00  0.00    +0.013 A 
ENDROOT
BRANCH   1   8
ATOM      7  N   UNL     1       0.688  -0.476  -1.203  0.00  0.00    -0.308 N 
ATOM      8  C   UNL     1       0.006  -0.608  -2.358  0.00  0.00    +0.244 C 
ATOM      9  O   UNL     1      -1.177  -0.335  -2.400  0.00  0.00    -0.270 OA
ATOM     10  H   UNL     1       1.632  -0.695  -1.170  0.00  0.00    +0.149 HD
BRANCH   7  12
ATOM     11  C   UNL     1      -0.019   1.526   0.010  0.00  0.00    +0.028 C 
ATOM     12  C   UNL     1       0.002  -0.004   0.002  0.00  0.00    +0.074 C 
BRANCH  12  13
ATOM     13  C   UNL     1       0.742  -0.511   1.242  0.00  0.00    +0.055 C 
BRANCH  13  14
ATOM     14  C   UNL     1       0.657  -2.014   1.298  0.00  0.00    -0.040 C 
ATOM     15  C   UNL     1       1.572  -2.899   0.840  0.00  0.00    -0.001 A 
ATOM     16  C   UNL     1       2.871  -2.732   0.178  0.00  0.00    +0.010 A 
ATOM     17  C   UNL     1       3.576  -3.832  -0.172  0.00  0.00    +0.001 A 
ATOM     18  C   UNL     1       3.098  -5.125   0.083  0.00  0.00    +0.002 A 
ATOM     19  C   UNL     1       1.914  -5.358   0.687  0.00  0.00    +0.026 A 
ATOM     20  C   UNL     1       1.090  -4.274   1.098  0.00  0.00    +0.043 A 
ATOM     21  N   UNL     1      -0.079  -4.242   1.691  0.00  0.00    -0.380 N 
ATOM     22  C   UNL     1      -0.467  -2.840   1.883  0.00  0.00    +0.144 C 
ATOM     23  H   UNL     1      -0.598  -5.015   1.962  0.00  0.00    +0.160 HD
ENDBRANCH  13  14
ENDBRANCH  12  13
ENDBRANCH   7  12
ENDBRANCH   1   8
BRANCH   4  24
ATOM     24  C   UNL     1       2.700  -2.465  -7.093  0.00  0.00    +0.141 C 
BRANCH  24  25
ATOM     25  N   UNL     1       2.610  -3.925  -7.165  0.00  0.00    -0.186 NA
ATOM     26  H   UNL     1       2.345  -4.434  -6.383  0.00  0.00    +0.148 HD
BRANCH  25  27
ATOM     27  S   UNL     1       2.960  -4.707  -8.582  0.00  0.00    +0.059 S 
ATOM     28  O   UNL     1       2.809  -6.097  -8.327  0.00  0.00    -0.153 OA
ATOM     29  O   UNL     1       2.236  -4.037  -9.605  0.00  0.00    -0.153 OA
BRANCH  27  30
ATOM     30  C   UNL     1       4.669  -4.439  -8.916  0.00  0.00    +0.105 A 
ATOM     31  C   UNL     1       5.065  -3.341  -9.657  0.00  0.00    +0.028 A 
ATOM     32  C   UNL     1       6.406  -3.131  -9.919  0.00  0.00    +0.002 A 
ATOM     33  C   UNL     1       7.351  -4.018  -9.441  0.00  0.00    +0.000 A 
ATOM     34  C   UNL     1       6.956  -5.116  -8.699  0.00  0.00    +0.002 A 
ATOM     35  C   UNL     1       5.615  -5.324  -8.433  0.00  0.00    +0.028 A 
ENDBRANCH  27  30
ENDBRANCH  25  27
ENDBRANCH  24  25
ENDBRANCH   4  24
TORSDOF 8
