REMARK  Name = ZINC39490814
REMARK  8 active torsions:
REMARK  status: ('A' for Active; 'I' for Inactive)
REMARK    1  A    between atoms: C_1  and  C_2
REMARK    2  A    between atoms: C_2  and  S_23
REMARK    3  A    between atoms: N_7  and  C_8
REMARK    4  A    between atoms: C_8  and  C_9
REMARK    5  A    between atoms: C_9  and  C_16
REMARK    6  A    between atoms: N_12  and  O_15
REMARK    7  A    between atoms: S_23  and  O_26
REMARK    8  A    between atoms: O_26  and  C_27
REMARK                            x       y       z     vdW  Elec       q    Type
REMARK                         _______ _______ _______ _____ _____    ______ ____
ROOT
ATOM      1  C   UNL     1      -0.280   2.673   2.270  0.00  0.00    +0.062 C 
ATOM      2  C   UNL     1      -1.499   1.861   2.712  0.00  0.00    +0.207 C 
ATOM      3  C   UNL     1      -2.776   2.386   2.028  0.00  0.00    +0.175 C 
ATOM      4  N   UNL     1      -3.254   1.238   1.244  0.00  0.00    -0.218 N 
ATOM      5  C   UNL     1      -2.418   0.206   1.422  0.00  0.00    +0.316 C 
ATOM      6  O   UNL     1      -2.577  -0.875   0.887  0.00  0.00    -0.252 OA
ATOM      7  N   UNL     1      -1.393   0.472   2.241  0.00  0.00    -0.256 N 
ATOM      8 BR   UNL     1      -4.768   1.220   0.182  0.00  0.00    +0.040 Br
ENDROOT
BRANCH   2   9
ATOM      9  S   UNL     1      -1.673   1.909   4.517  0.00  0.00    +0.145 S 
ATOM     10  O   UNL     1      -2.951   1.419   4.899  0.00  0.00    -0.135 OA
ATOM     11  O   UNL     1      -0.493   1.416   5.136  0.00  0.00    -0.135 OA
BRANCH   9  12
ATOM     12  O   UNL     1      -1.705   3.390   4.867  0.00  0.00    -0.345 OA
BRANCH  12  13
ATOM     13  C   UNL     1      -2.898   3.991   4.618  0.00  0.00    +0.156 A 
ATOM     14  C   UNL     1      -3.098   4.673   3.426  0.00  0.00    +0.048 A 
ATOM     15  C   UNL     1      -4.311   5.282   3.175  0.00  0.00    +0.004 A 
ATOM     16  C   UNL     1      -5.327   5.214   4.110  0.00  0.00    +0.000 A 
ATOM     17  C   UNL     1      -5.131   4.536   5.299  0.00  0.00    +0.004 A 
ATOM     18  C   UNL     1      -3.921   3.920   5.553  0.00  0.00    +0.048 A 
ENDBRANCH  12  13
ENDBRANCH   9  12
ENDBRANCH   2   9
BRANCH   7  19
ATOM     19  C   UNL     1      -0.334  -0.471   2.610  0.00  0.00    +0.119 C 
BRANCH  19  20
ATOM     20  C   UNL     1      -0.922  -1.585   3.478  0.00  0.00    -0.008 C 
ATOM     21  C   UNL     1       0.151  -2.643   3.749  0.00  0.00    +0.026 C 
ATOM     22  C   UNL     1       0.591  -3.269   2.424  0.00  0.00    +0.115 C 
ATOM     23  N   UNL     1      -0.569  -3.881   1.762  0.00  0.00    -0.191 NA
ATOM     24  C   UNL     1      -1.593  -2.876   1.449  0.00  0.00    +0.115 C 
ATOM     25  C   UNL     1      -2.097  -2.238   2.745  0.00  0.00    +0.026 C 
BRANCH  20  26
ATOM     26  C   UNL     1      -1.409  -0.997   4.803  0.00  0.00    -0.003 C 
ATOM     27  C   UNL     1      -0.223  -0.839   5.758  0.00  0.00    +0.004 C 
ATOM     28  C   UNL     1      -0.710  -0.251   7.083  0.00  0.00    +0.000 C 
ATOM     29  C   UNL     1      -1.746  -1.189   7.707  0.00  0.00    +0.000 C 
ATOM     30  C   UNL     1      -2.932  -1.346   6.753  0.00  0.00    +0.000 C 
ATOM     31  C   UNL     1      -2.445  -1.934   5.428  0.00  0.00    +0.004 C 
ENDBRANCH  20  26
BRANCH  23  32
ATOM     32  O   UNL     1      -0.163  -4.608   0.559  0.00  0.00    -0.312 OA
ATOM     33  H   UNL     1      -0.901  -4.965   0.047  0.00  0.00    +0.237 HD
ENDBRANCH  23  32
ENDBRANCH  19  20
ENDBRANCH   7  19
TORSDOF 7
