REMARK  Name = ZINC09318435
REMARK  10 active torsions:
REMARK  status: ('A' for Active; 'I' for Inactive)
REMARK    1  A    between atoms: C_1  and  C_2
REMARK    2  A    between atoms: C_5  and  S_8
REMARK    3  A    between atoms: S_8  and  N_11
REMARK    4  A    between atoms: N_11  and  C_12
REMARK    5  A    between atoms: N_11  and  C_13
REMARK    6  A    between atoms: C_16  and  O_19
REMARK    7  A    between atoms: O_19  and  C_20
REMARK    8  A    between atoms: C_20  and  C_21
REMARK    9  A    between atoms: N_23  and  C_24
REMARK   10  A    between atoms: C_25  and  C_32
REMARK                            x       y       z     vdW  Elec       q    Type
REMARK                         _______ _______ _______ _____ _____    ______ ____
ROOT
ATOM      1  O   UNL     1      -0.928   4.397   1.036  0.00  0.00    -0.483 OA
ENDROOT
BRANCH   1   5
ATOM      2  C   UNL     1      -4.472   6.398   0.337  0.00  0.00    +0.051 A 
ATOM      3  C   UNL     1      -3.282   7.107   0.438  0.00  0.00    +0.028 A 
ATOM      4  C   UNL     1      -2.097   6.437   0.672  0.00  0.00    +0.047 A 
ATOM      5  C   UNL     1      -2.096   5.057   0.806  0.00  0.00    +0.121 A 
ATOM      6  C   UNL     1      -3.283   4.347   0.700  0.00  0.00    +0.047 A 
ATOM      7  C   UNL     1      -4.469   5.016   0.471  0.00  0.00    +0.028 A 
BRANCH   2   8
ATOM      8  N   UNL     1      -5.673   7.077   0.100  0.00  0.00    -0.206 N 
ATOM      9  C   UNL     1      -5.819   8.474   0.514  0.00  0.00    +0.157 C 
BRANCH   8  10
ATOM     10  S   UNL     1      -6.928   6.299  -0.649  0.00  0.00    +0.074 S 
ATOM     11  O   UNL     1      -7.714   7.305  -1.274  0.00  0.00    -0.150 OA
ATOM     12  O   UNL     1      -6.362   5.216  -1.373  0.00  0.00    -0.150 OA
BRANCH  10  17
ATOM     13  C   UNL     1     -10.362   3.872   3.678  0.00  0.00    +0.044 C 
ATOM     14  C   UNL     1      -9.504   4.478   2.597  0.00  0.00    -0.050 A 
ATOM     15  C   UNL     1      -9.670   5.805   2.246  0.00  0.00    +0.005 A 
ATOM     16  C   UNL     1      -8.883   6.361   1.255  0.00  0.00    +0.029 A 
ATOM     17  C   UNL     1      -7.931   5.590   0.615  0.00  0.00    +0.109 A 
ATOM     18  C   UNL     1      -7.769   4.262   0.962  0.00  0.00    +0.029 A 
ATOM     19  C   UNL     1      -8.552   3.707   1.956  0.00  0.00    +0.005 A 
ENDBRANCH  10  17
ENDBRANCH   8  10
ENDBRANCH   2   8
ENDBRANCH   1   5
BRANCH   1  20
ATOM     20  C   UNL     1      -1.000   2.976   1.164  0.00  0.00    +0.324 C 
BRANCH  20  21
ATOM     21  C   UNL     1       0.379   2.424   1.414  0.00  0.00    +0.255 C 
ATOM     22  O   UNL     1       1.331   3.173   1.471  0.00  0.00    -0.272 OA
ATOM     23  N   UNL     1       0.556   1.097   1.568  0.00  0.00    -0.277 N 
ATOM     24  H   UNL     1      -0.205   0.497   1.521  0.00  0.00    +0.155 HD
BRANCH  23  25
ATOM     25  C   UNL     1       1.826   0.588   1.792  0.00  0.00    +0.084 A 
ATOM     26  C   UNL     1       2.204  -0.731   1.978  0.00  0.00    +0.068 A 
ATOM     27  C   UNL     1       3.625  -1.004   2.195  0.00  0.00    -0.023 A 
ATOM     28  C   UNL     1       4.421   0.080   2.198  0.00  0.00    -0.004 A 
ATOM     29  S   UNL     1       3.323   1.448   1.914  0.00  0.00    -0.077 S 
ATOM     30  C   UNL     1       5.864  -0.280   2.429  0.00  0.00    +0.043 C 
ATOM     31  C   UNL     1       5.937  -1.796   2.142  0.00  0.00    +0.010 C 
ATOM     32  C   UNL     1       4.490  -2.241   2.436  0.00  0.00    +0.037 C 
BRANCH  26  33
ATOM     33  C   UNL     1       1.217  -1.815   1.956  0.00  0.00    +0.244 C 
ATOM     34  O   UNL     1       0.949  -2.371   0.907  0.00  0.00    -0.270 OA
ATOM     35  N   UNL     1       0.607  -2.195   3.096  0.00  0.00    -0.325 N 
ATOM     36  H   UNL     1       0.821  -1.751   3.932  0.00  0.00    +0.145 HD
ATOM     37  H   UNL     1      -0.046  -2.912   3.081  0.00  0.00    +0.145 HD
ENDBRANCH  26  33
ENDBRANCH  23  25
ENDBRANCH  20  21
ENDBRANCH   1  20
TORSDOF 8
