REMARK  Name = ZINC12326225
REMARK  5 active torsions:
REMARK  status: ('A' for Active; 'I' for Inactive)
REMARK    1  A    between atoms: C_4  and  C_7
REMARK    2  A    between atoms: C_7  and  C_8
REMARK    3  A    between atoms: C_8  and  C_15
REMARK    4  A    between atoms: C_20  and  C_21
REMARK    5  A    between atoms: C_20  and  N_57
REMARK                            x       y       z     vdW  Elec       q    Type
REMARK                         _______ _______ _______ _____ _____    ______ ____
ROOT
ATOM      1  C   UNL     1       6.126   6.093   3.410  0.00  0.00    +0.018 C 
ATOM      2  C   UNL     1       7.061   5.008   2.869  0.00  0.00    -0.013 C 
ATOM      3  C   UNL     1       6.699   4.708   1.413  0.00  0.00    -0.078 C 
ATOM      4  C   UNL     1       4.383   5.302   1.807  0.00  0.00    -0.078 C 
ATOM      5  C   UNL     1       4.676   5.619   3.275  0.00  0.00    -0.013 C 
ATOM      6  N   UNL     1       5.299   4.234   1.355  0.00  0.00    +0.383 N 
ATOM      7  H   UNL     1       5.197   3.422   1.975  0.00  0.00    -0.081 HD
ENDROOT
BRANCH   1   8
ATOM      8  C   UNL     1       6.445   6.355   4.883  0.00  0.00    +0.119 C 
ATOM      9  C   UNL     1       7.898   6.752   5.052  0.00  0.00    +0.244 C 
ATOM     10  O   UNL     1       8.452   7.721   4.579  0.00  0.00    -0.273 OA
ATOM     11  N   UNL     1       8.446   5.804   5.838  0.00  0.00    -0.238 N 
ATOM     12  C   UNL     1       7.550   4.873   6.185  0.00  0.00    +0.307 C 
ATOM     13  O   UNL     1       7.808   3.917   6.890  0.00  0.00    -0.252 OA
ATOM     14  N   UNL     1       6.328   5.114   5.668  0.00  0.00    -0.284 N 
ATOM     15  H   UNL     1       9.375   5.797   6.117  0.00  0.00    +0.159 HD
ATOM     16  H   UNL     1       5.529   4.577   5.787  0.00  0.00    +0.151 HD
BRANCH   8  17
ATOM     17  C   UNL     1       5.522   7.437   5.448  0.00  0.00    +0.070 C 
BRANCH  17  21
ATOM     18  C   UNL     1       6.469   8.115   9.558  0.00  0.00    +0.000 A 
ATOM     19  C   UNL     1       7.106   8.845   8.572  0.00  0.00    +0.000 A 
ATOM     20  C   UNL     1       6.800   8.626   7.242  0.00  0.00    +0.004 A 
ATOM     21  C   UNL     1       5.857   7.676   6.898  0.00  0.00    -0.045 A 
ATOM     22  C   UNL     1       5.216   6.949   7.883  0.00  0.00    +0.004 A 
ATOM     23  C   UNL     1       5.525   7.165   9.213  0.00  0.00    +0.000 A 
ENDBRANCH  17  21
ENDBRANCH   8  17
ENDBRANCH   1   8
BRANCH   6  24
ATOM     24  C   UNL     1       4.961   3.829  -0.025  0.00  0.00    -0.036 C 
BRANCH  24  25
ATOM     25  C   UNL     1       3.615   3.151  -0.016  0.00  0.00    +0.018 A 
ATOM     26  C   UNL     1       3.534   1.808  -0.022  0.00  0.00    +0.201 A 
ATOM     27  O   UNL     1       2.370   1.151  -0.014  0.00  0.00    -0.462 OA
ATOM     28  C   UNL     1       1.181   1.788   0.000  0.00  0.00    +0.138 A 
ATOM     29  C   UNL     1      -0.013   1.076   0.008  0.00  0.00    +0.047 A 
ATOM     30  C   UNL     1      -1.215   1.750   0.017  0.00  0.00    +0.004 A 
ATOM     31  C   UNL     1      -1.250   3.137   0.029  0.00  0.00    +0.001 A 
ATOM     32  C   UNL     1      -0.078   3.862   0.022  0.00  0.00    +0.015 A 
ATOM     33  C   UNL     1       1.144   3.192   0.008  0.00  0.00    +0.064 A 
ATOM     34  C   UNL     1       2.425   3.925  -0.001  0.00  0.00    +0.194 A 
ATOM     35  O   UNL     1       2.459   5.143   0.006  0.00  0.00    -0.287 OA
ENDBRANCH  24  25
ENDBRANCH   6  24
TORSDOF 5
