REMARK  Name = ZINC36303449
REMARK  16 active torsions:
REMARK  status: ('A' for Active; 'I' for Inactive)
REMARK    1  A    between atoms: C_1  and  C_2
REMARK    2  A    between atoms: C_2  and  C_3
REMARK    3  A    between atoms: C_4  and  C_22
REMARK    4  A    between atoms: C_5  and  O_15
REMARK    5  A    between atoms: N_6  and  C_8
REMARK    6  A    between atoms: O_15  and  C_16
REMARK    7  A    between atoms: C_22  and  N_23
REMARK    8  A    between atoms: N_23  and  C_24
REMARK    9  A    between atoms: N_23  and  C_32
REMARK   10  A    between atoms: C_24  and  C_25
REMARK   11  A    between atoms: C_25  and  C_27
REMARK   12  A    between atoms: C_25  and  O_31
REMARK   13  A    between atoms: C_27  and  C_28
REMARK   14  A    between atoms: C_28  and  C_29
REMARK   15  A    between atoms: C_32  and  C_33
REMARK   16  A    between atoms: C_32  and  C_34
REMARK                            x       y       z     vdW  Elec       q    Type
REMARK                         _______ _______ _______ _____ _____    ______ ____
ROOT
ATOM      1  C   UNL     1      -0.754   1.465  -0.044  0.00  0.00    +0.068 A 
ATOM      2  C   UNL     1      -1.240   0.535   0.881  0.00  0.00    +0.021 A 
ATOM      3  C   UNL     1      -1.979  -0.383   0.202  0.00  0.00    +0.225 A 
ATOM      4  N   UNL     1      -1.955  -0.034  -1.113  0.00  0.00    -0.200 N 
ATOM      5  N   UNL     1      -1.185   1.130  -1.233  0.00  0.00    -0.168 NA
ENDROOT
BRANCH   4   6
ATOM      6  C   UNL     1      -2.592  -0.716  -2.160  0.00  0.00    +0.069 A 
ATOM      7  C   UNL     1      -2.549  -2.102  -2.215  0.00  0.00    +0.031 A 
ATOM      8  C   UNL     1      -3.177  -2.771  -3.247  0.00  0.00    +0.040 A 
ATOM      9  C   UNL     1      -3.849  -2.060  -4.227  0.00  0.00    +0.124 A 
ATOM     10  C   UNL     1      -3.893  -0.677  -4.174  0.00  0.00    +0.040 A 
ATOM     11  C   UNL     1      -3.272  -0.005  -3.139  0.00  0.00    +0.031 A 
ATOM     12  F   UNL     1      -4.463  -2.716  -5.236  0.00  0.00    -0.205 F 
ENDBRANCH   4   6
BRANCH   1  14
ATOM     13  C   UNL     1      -0.773   3.864   0.584  0.00  0.00    +0.010 C 
ATOM     14  C   UNL     1       0.113   2.655   0.277  0.00  0.00    +0.054 C 
ENDBRANCH   1  14
BRANCH   3  15
ATOM     15  O   UNL     1      -2.622  -1.451   0.737  0.00  0.00    -0.438 OA
BRANCH  15  16
ATOM     16  C   UNL     1      -1.914  -2.596   0.922  0.00  0.00    +0.130 A 
ATOM     17  C   UNL     1      -0.595  -2.673   0.496  0.00  0.00    +0.046 A 
ATOM     18  C   UNL     1       0.123  -3.838   0.685  0.00  0.00    +0.004 A 
ATOM     19  C   UNL     1      -0.471  -4.926   1.297  0.00  0.00    +0.000 A 
ATOM     20  C   UNL     1      -1.785  -4.852   1.722  0.00  0.00    +0.004 A 
ATOM     21  C   UNL     1      -2.505  -3.687   1.542  0.00  0.00    +0.046 A 
ENDBRANCH  15  16
ENDBRANCH   3  15
BRANCH   2  22
ATOM     22  C   UNL     1      -0.989   0.547   2.367  0.00  0.00    -0.035 C 
BRANCH  22  23
ATOM     23  N   UNL     1      -1.576   1.760   2.953  0.00  0.00    +0.386 N 
ATOM     24  H   UNL     1      -1.258   2.569   2.441  0.00  0.00    -0.081 HD
BRANCH  23  25
ATOM     25  C   UNL     1      -3.041   1.679   2.878  0.00  0.00    -0.074 C 
ATOM     26  C   UNL     1      -3.482   1.758   1.415  0.00  0.00    -0.014 C 
ATOM     27  C   UNL     1      -3.510   0.353   3.481  0.00  0.00    -0.014 C 
ENDBRANCH  23  25
BRANCH  23  28
ATOM     28  C   UNL     1      -1.163   1.874   4.357  0.00  0.00    -0.046 C 
BRANCH  28  29
ATOM     29  C   UNL     1      -1.645   3.212   4.923  0.00  0.00    +0.098 C 
BRANCH  29  30
ATOM     30  O   UNL     1      -1.046   4.282   4.191  0.00  0.00    -0.394 OA
ATOM     31  H   UNL     1      -0.080   4.290   4.224  0.00  0.00    +0.210 HD
ENDBRANCH  29  30
BRANCH  29  32
ATOM     32  C   UNL     1      -1.246   3.316   6.396  0.00  0.00    +0.033 C 
BRANCH  32  33
ATOM     33  C   UNL     1      -1.834   4.595   6.995  0.00  0.00    +0.029 C 
BRANCH  33  34
ATOM     34  C   UNL     1      -1.441   4.698   8.446  0.00  0.00    -0.034 C 
ATOM     35  C   UNL     1      -0.828   5.769   8.885  0.00  0.00    +0.004 C 
ENDBRANCH  33  34
ENDBRANCH  32  33
ENDBRANCH  29  32
ENDBRANCH  28  29
ENDBRANCH  23  28
ENDBRANCH  22  23
ENDBRANCH   2  22
TORSDOF 13
