REMARK  Name = ZINC49523797
REMARK  8 active torsions:
REMARK  status: ('A' for Active; 'I' for Inactive)
REMARK    1  A    between atoms: C_1  and  C_2
REMARK    2  A    between atoms: C_2  and  C_33
REMARK    3  A    between atoms: C_8  and  O_11
REMARK    4  A    between atoms: O_11  and  C_12
REMARK    5  A    between atoms: C_12  and  C_13
REMARK    6  A    between atoms: N_15  and  C_16
REMARK    7  A    between atoms: C_16  and  C_17
REMARK    8  A    between atoms: N_25  and  C_26
REMARK                            x       y       z     vdW  Elec       q    Type
REMARK                         _______ _______ _______ _____ _____    ______ ____
ROOT
ATOM      1  C   UNL     1       3.826  -0.342   8.255  0.00  0.00    +0.108 C 
ENDROOT
BRANCH   1   2
ATOM      2  C   UNL     1       5.175  -0.864   8.753  0.00  0.00    +0.009 C 
ATOM      3  C   UNL     1       5.188  -2.393   8.683  0.00  0.00    +0.024 C 
ATOM      4  C   UNL     1       6.552  -2.910   9.150  0.00  0.00    +0.109 C 
ATOM      5  N   UNL     1       6.833  -2.365  10.486  0.00  0.00    -0.285 N 
ATOM      6  C   UNL     1       6.758  -0.911  10.685  0.00  0.00    +0.109 C 
ATOM      7  C   UNL     1       5.392  -0.416  10.200  0.00  0.00    +0.024 C 
ATOM      8  C   UNL     1       7.152  -3.182  11.508  0.00  0.00    +0.306 C 
ATOM      9  O   UNL     1       7.117  -4.388  11.356  0.00  0.00    -0.252 OA
ATOM     10  N   UNL     1       7.510  -2.663  12.700  0.00  0.00    -0.269 N 
ATOM     11  H   UNL     1       7.464  -1.706  12.845  0.00  0.00    +0.156 HD
BRANCH  10  12
ATOM     12  C   UNL     1       7.948  -3.508  13.728  0.00  0.00    +0.035 A 
ATOM     13  C   UNL     1       8.661  -4.660  13.425  0.00  0.00    +0.026 A 
ATOM     14  C   UNL     1       9.093  -5.490  14.440  0.00  0.00    +0.040 A 
ATOM     15  C   UNL     1       8.815  -5.175  15.760  0.00  0.00    +0.124 A 
ATOM     16  C   UNL     1       8.103  -4.027  16.064  0.00  0.00    +0.040 A 
ATOM     17  C   UNL     1       7.674  -3.191  15.052  0.00  0.00    +0.026 A 
ATOM     18  F   UNL     1       9.238  -5.989  16.752  0.00  0.00    -0.205 F 
ENDBRANCH  10  12
ENDBRANCH   1   2
BRANCH   1  21
ATOM     19  C   UNL     1       2.552  -0.304   6.178  0.00  0.00    +0.251 C 
ATOM     20  O   UNL     1       1.673   0.293   6.763  0.00  0.00    -0.272 OA
ATOM     21  N   UNL     1       3.671  -0.668   6.835  0.00  0.00    -0.312 N 
ATOM     22  H   UNL     1       4.374  -1.146   6.367  0.00  0.00    +0.149 HD
BRANCH  19  23
ATOM     23  C   UNL     1       2.392  -0.639   4.718  0.00  0.00    +0.324 C 
BRANCH  23  24
ATOM     24  O   UNL     1       1.132  -0.152   4.252  0.00  0.00    -0.479 OA
BRANCH  24  32
ATOM     25  C   UNL     1      -1.755   2.782   1.754  0.00  0.00    +0.056 C 
ATOM     26  C   UNL     1      -2.237   1.359   2.044  0.00  0.00    +0.109 C 
ATOM     27  C   UNL     1      -2.033   0.449   0.810  0.00  0.00    +0.086 C 
ATOM     28  C   UNL     1      -0.670  -0.155   1.087  0.00  0.00    +0.002 A 
ATOM     29  C   UNL     1       0.225  -0.828   0.282  0.00  0.00    +0.007 A 
ATOM     30  C   UNL     1       1.426  -1.274   0.803  0.00  0.00    +0.004 A 
ATOM     31  C   UNL     1       1.726  -1.044   2.133  0.00  0.00    +0.049 A 
ATOM     32  C   UNL     1       0.829  -0.373   2.945  0.00  0.00    +0.163 A 
ATOM     33  C   UNL     1      -0.387   0.077   2.425  0.00  0.00    +0.166 A 
ATOM     34  O   UNL     1      -1.410   0.734   3.040  0.00  0.00    -0.482 OA
ATOM     35  C   UNL     1      -3.703   1.365   2.482  0.00  0.00    +0.056 C 
ENDBRANCH  24  32
ENDBRANCH  23  24
ENDBRANCH  19  23
ENDBRANCH   1  21
TORSDOF 6
