REMARK  Name = ZINC39671542
REMARK  4 active torsions:
REMARK  status: ('A' for Active; 'I' for Inactive)
REMARK    1  A    between atoms: C_6  and  C_11
REMARK    2  A    between atoms: C_11  and  N_12
REMARK    3  A    between atoms: C_13  and  C_15
REMARK    4  A    between atoms: C_26  and  C_28
REMARK                            x       y       z     vdW  Elec       q    Type
REMARK                         _______ _______ _______ _____ _____    ______ ____
ROOT
ATOM      1  C   UNL     1      -8.318   0.159   3.116  0.00  0.00    +0.100 C 
ATOM      2  C   UNL     1      -7.918  -1.226   3.673  0.00  0.00    +0.121 C 
ATOM      3  N   UNL     1      -9.070  -1.640   4.508  0.00  0.00    -0.297 N 
ATOM      4  C   UNL     1     -10.259  -1.196   3.742  0.00  0.00    +0.115 C 
ATOM      5  C   UNL     1      -9.855   0.174   3.162  0.00  0.00    -0.004 C 
ATOM      6  C   UNL     1     -10.345   1.297   4.071  0.00  0.00    -0.010 C 
ATOM      7  C   UNL     1     -11.876   1.328   4.057  0.00  0.00    -0.082 C 
ATOM      8  N   UNL     1     -12.350   1.541   2.684  0.00  0.00    +0.379 N 
ATOM      9  C   UNL     1     -11.953   0.410   1.836  0.00  0.00    -0.082 C 
ATOM     10  C   UNL     1     -10.425   0.340   1.757  0.00  0.00    -0.010 C 
ATOM     11  C   UNL     1      -9.043  -2.278   5.695  0.00  0.00    +0.260 C 
ATOM     12  O   UNL     1     -10.080  -2.551   6.260  0.00  0.00    -0.271 OA
ATOM     13  H   UNL     1     -13.356   1.622   2.685  0.00  0.00    -0.086 HD
ATOM     14  H   UNL     1     -11.947   2.391   2.318  0.00  0.00    -0.086 HD
ENDROOT
BRANCH  11  15
ATOM     15  C   UNL     1      -7.723  -2.650   6.321  0.00  0.00    +0.296 C 
ATOM     16  C   UNL     1      -7.014  -3.696   5.449  0.00  0.00    +0.283 C 
ATOM     17  O   UNL     1      -5.774  -4.036   6.078  0.00  0.00    -0.484 OA
ATOM     18  C   UNL     1      -5.815  -4.287   7.415  0.00  0.00    +0.162 A 
ATOM     19  C   UNL     1      -4.761  -4.962   8.014  0.00  0.00    +0.049 A 
ATOM     20  C   UNL     1      -4.786  -5.221   9.371  0.00  0.00    +0.004 A 
ATOM     21  C   UNL     1      -5.862  -4.809  10.136  0.00  0.00    +0.004 A 
ATOM     22  C   UNL     1      -6.916  -4.137   9.545  0.00  0.00    +0.049 A 
ATOM     23  C   UNL     1      -6.897  -3.875   8.183  0.00  0.00    +0.163 A 
ATOM     24  O   UNL     1      -7.946  -3.220   7.615  0.00  0.00    -0.473 OA
ENDBRANCH  11  15
BRANCH   1  26
ATOM     25  N   UNL     1      -7.545   1.537   1.213  0.00  0.00    -0.309 N 
ATOM     26  C   UNL     1      -7.835   0.313   1.697  0.00  0.00    +0.219 C 
ATOM     27  O   UNL     1      -7.707  -0.664   0.990  0.00  0.00    -0.275 OA
ATOM     28  H   UNL     1      -7.647   2.319   1.778  0.00  0.00    +0.149 HD
BRANCH  25  29
ATOM     29  C   UNL     1      -7.074   1.687  -0.167  0.00  0.00    +0.157 C 
BRANCH  29  35
ATOM     30  C   UNL     1      -6.586   7.592  -1.554  0.00  0.00    +0.001 A 
ATOM     31  C   UNL     1      -5.322   7.439  -1.003  0.00  0.00    +0.002 A 
ATOM     32  C   UNL     1      -4.912   6.219  -0.511  0.00  0.00    +0.026 A 
ATOM     33  C   UNL     1      -5.774   5.128  -0.565  0.00  0.00    +0.047 A 
ATOM     34  N   UNL     1      -5.665   3.814  -0.169  0.00  0.00    -0.357 N 
ATOM     35  C   UNL     1      -6.823   3.144  -0.456  0.00  0.00    +0.034 A 
ATOM     36  H   UNL     1      -4.884   3.421   0.251  0.00  0.00    +0.166 HD
ATOM     37  C   UNL     1      -7.703   3.978  -1.034  0.00  0.00    +0.032 A 
ATOM     38  C   UNL     1      -7.055   5.289  -1.124  0.00  0.00    -0.000 A 
ATOM     39  C   UNL     1      -7.450   6.535  -1.613  0.00  0.00    +0.010 A 
ENDBRANCH  29  35
ENDBRANCH  25  29
ENDBRANCH   1  26
TORSDOF 4
