REMARK  Name = ZINC63479950
REMARK  4 active torsions:
REMARK  status: ('A' for Active; 'I' for Inactive)
REMARK    1  A    between atoms: C_1  and  C_2
REMARK    2  A    between atoms: C_6  and  N_8
REMARK    3  A    between atoms: C_13  and  C_31
REMARK    4  A    between atoms: C_31  and  C_32
REMARK                            x       y       z     vdW  Elec       q    Type
REMARK                         _______ _______ _______ _____ _____    ______ ____
ROOT
ATOM      1  N   UNL     1       0.050  -2.798   2.395  0.00  0.00    -0.210 N 
ATOM      2  C   UNL     1       0.141  -2.196   3.587  0.00  0.00    +0.232 C 
ATOM      3  O   UNL     1       0.218  -0.999   3.762  0.00  0.00    -0.274 OA
ATOM      4  C   UNL     1       0.130  -3.240   4.680  0.00  0.00    +0.107 C 
ATOM      5  C   UNL     1       1.518  -3.281   5.355  0.00  0.00    +0.072 C 
ATOM      6  N   UNL     1       1.851  -4.726   5.455  0.00  0.00    -0.295 NA
ATOM      7  C   UNL     1       1.351  -5.300   4.191  0.00  0.00    +0.136 C 
ATOM      8  C   UNL     1       0.013  -4.577   3.896  0.00  0.00    +0.123 C 
ATOM      9  C   UNL     1      -0.030  -4.133   2.452  0.00  0.00    +0.233 C 
ATOM     10  O   UNL     1      -0.121  -4.870   1.494  0.00  0.00    -0.274 OA
ATOM     11  C   UNL     1       2.343  -5.122   3.077  0.00  0.00    +0.006 A 
ATOM     12  C   UNL     1       2.926  -4.019   2.495  0.00  0.00    +0.046 A 
ATOM     13  C   UNL     1       3.832  -4.179   1.459  0.00  0.00    +0.124 A 
ATOM     14  C   UNL     1       4.147  -5.451   1.012  0.00  0.00    +0.040 A 
ATOM     15  C   UNL     1       3.563  -6.558   1.592  0.00  0.00    +0.026 A 
ATOM     16  C   UNL     1       2.652  -6.404   2.634  0.00  0.00    +0.039 A 
ATOM     17  N   UNL     1       1.939  -7.354   3.371  0.00  0.00    -0.283 N 
ATOM     18  C   UNL     1       1.152  -6.787   4.305  0.00  0.00    +0.243 C 
ATOM     19  O   UNL     1       0.424  -7.362   5.086  0.00  0.00    -0.273 OA
ATOM     20  F   UNL     1       4.406  -3.098   0.888  0.00  0.00    -0.205 F 
ATOM     21  H   UNL     1       2.847  -4.863   5.545  0.00  0.00    +0.124 HD
ATOM     22  H   UNL     1       2.004  -8.312   3.226  0.00  0.00    +0.155 HD
ENDROOT
BRANCH   1  28
ATOM     23  C   UNL     1      -2.364  -1.362  -1.643  0.00  0.00    +0.044 C 
ATOM     24  C   UNL     1      -1.121  -1.376  -0.790  0.00  0.00    -0.049 A 
ATOM     25  C   UNL     1       0.006  -0.689  -1.200  0.00  0.00    +0.003 A 
ATOM     26  C   UNL     1       1.148  -0.700  -0.420  0.00  0.00    +0.002 A 
ATOM     27  C   UNL     1       1.166  -1.398   0.771  0.00  0.00    +0.024 A 
ATOM     28  C   UNL     1       0.035  -2.089   1.186  0.00  0.00    +0.044 A 
ATOM     29  C   UNL     1      -1.111  -2.071   0.404  0.00  0.00    +0.027 A 
ENDBRANCH   1  28
BRANCH   5  30
ATOM     30  C   UNL     1       1.451  -2.650   6.747  0.00  0.00    +0.052 C 
BRANCH  30  31
ATOM     31  C   UNL     1       2.837  -2.588   7.338  0.00  0.00    -0.040 C 
ATOM     32  C   UNL     1       3.689  -1.538   7.304  0.00  0.00    -0.001 A 
ATOM     33  C   UNL     1       3.586  -0.192   6.728  0.00  0.00    +0.010 A 
ATOM     34  C   UNL     1       4.630   0.658   6.857  0.00  0.00    +0.001 A 
ATOM     35  C   UNL     1       5.805   0.286   7.525  0.00  0.00    +0.002 A 
ATOM     36  C   UNL     1       5.974  -0.933   8.080  0.00  0.00    +0.026 A 
ATOM     37  C   UNL     1       4.940  -1.906   8.004  0.00  0.00    +0.043 A 
ATOM     38  N   UNL     1       4.864  -3.135   8.454  0.00  0.00    -0.380 N 
ATOM     39  C   UNL     1       3.552  -3.685   8.094  0.00  0.00    +0.144 C 
ATOM     40  H   UNL     1       5.558  -3.602   8.945  0.00  0.00    +0.160 HD
ENDBRANCH  30  31
ENDBRANCH   5  30
TORSDOF 3
