REMARK  Name = ZINC39468257
REMARK  7 active torsions:
REMARK  status: ('A' for Active; 'I' for Inactive)
REMARK    1  A    between atoms: C_1  and  S_2
REMARK    2  A    between atoms: S_2  and  P_3
REMARK    3  A    between atoms: C_11  and  S_28
REMARK    4  A    between atoms: C_12  and  C_21
REMARK    5  A    between atoms: C_21  and  C_22
REMARK    6  A    between atoms: S_28  and  O_31
REMARK    7  A    between atoms: O_31  and  C_32
REMARK                            x       y       z     vdW  Elec       q    Type
REMARK                         _______ _______ _______ _____ _____    ______ ____
ROOT
ATOM      1  P   UNL     1       3.742   0.803   2.173  0.00  0.00    +0.314 P 
ATOM      2  O   UNL     1       2.684   1.213   3.123  0.00  0.00    -0.262 OA
ATOM      3  N   UNL     1       3.670  -0.823   1.898  0.00  0.00    -0.283 NA
ATOM      4  N   UNL     1       4.194  -1.662   2.859  0.00  0.00    +0.398 N 
ATOM      5  C   UNL     1       4.101  -3.022   2.305  0.00  0.00    -0.046 C 
ATOM      6  C   UNL     1       4.641  -4.052   3.287  0.00  0.00    +0.006 C 
ATOM      7  C   UNL     1       3.849  -4.030   4.567  0.00  0.00    +0.006 C 
ATOM      8  C   UNL     1       4.398  -4.500   5.685  0.00  0.00    +0.128 C 
ATOM      9  C   UNL     1       5.766  -5.045   5.648  0.00  0.00    -0.019 C 
ATOM     10  C   UNL     1       6.591  -4.694   4.666  0.00  0.00    -0.017 C 
ATOM     11  C   UNL     1       6.106  -3.736   3.605  0.00  0.00    +0.016 C 
ATOM     12  C   UNL     1       6.191  -2.306   4.140  0.00  0.00    -0.003 C 
ATOM     13  C   UNL     1       5.591  -1.318   3.133  0.00  0.00    -0.020 C 
ATOM     14  C   UNL     1       5.715   0.082   3.747  0.00  0.00    +0.157 C 
ATOM     15  O   UNL     1       5.212   1.061   2.820  0.00  0.00    -0.312 OA
ATOM     16  H   UNL     1       3.272  -1.177   1.087  0.00  0.00    +0.112 HD
ATOM     17  H   UNL     1       3.652  -1.589   3.707  0.00  0.00    -0.055 HD
ENDROOT
BRANCH   8  18
ATOM     18  S   UNL     1       3.494  -4.471   7.197  0.00  0.00    +0.151 S 
ATOM     19  O   UNL     1       3.430  -5.814   7.658  0.00  0.00    -0.131 OA
ATOM     20  O   UNL     1       4.048  -3.423   7.981  0.00  0.00    -0.131 OA
BRANCH  18  21
ATOM     21  O   UNL     1       2.068  -4.058   6.862  0.00  0.00    -0.342 OA
BRANCH  21  22
ATOM     22  C   UNL     1       1.281  -5.082   6.439  0.00  0.00    +0.157 A 
ATOM     23  C   UNL     1       1.145  -5.339   5.083  0.00  0.00    +0.048 A 
ATOM     24  C   UNL     1       0.344  -6.380   4.655  0.00  0.00    +0.004 A 
ATOM     25  C   UNL     1      -0.322  -7.166   5.578  0.00  0.00    +0.000 A 
ATOM     26  C   UNL     1      -0.188  -6.911   6.931  0.00  0.00    +0.004 A 
ATOM     27  C   UNL     1       0.617  -5.875   7.363  0.00  0.00    +0.048 A 
ENDBRANCH  21  22
ENDBRANCH  18  21
ENDBRANCH   8  18
BRANCH   1  29
ATOM     28  C   UNL     1       3.774   3.601   0.827  0.00  0.00    +0.096 C 
ATOM     29  S   UNL     1       3.543   1.866   0.350  0.00  0.00    -0.059 S 
ENDBRANCH   1  29
BRANCH   9  30
ATOM     30  C   UNL     1       6.229  -5.997   6.720  0.00  0.00    +0.072 C 
BRANCH  30  31
ATOM     31  C   UNL     1       6.814  -5.214   7.868  0.00  0.00    -0.043 A 
ATOM     32  C   UNL     1       8.117  -4.759   7.802  0.00  0.00    +0.004 A 
ATOM     33  C   UNL     1       8.653  -4.042   8.855  0.00  0.00    +0.000 A 
ATOM     34  C   UNL     1       7.885  -3.778   9.974  0.00  0.00    +0.000 A 
ATOM     35  C   UNL     1       6.581  -4.232  10.039  0.00  0.00    +0.000 A 
ATOM     36  C   UNL     1       6.044  -4.947   8.985  0.00  0.00    +0.004 A 
ENDBRANCH  30  31
ENDBRANCH   9  30
TORSDOF 6
