REMARK  Name = ZINC56765040
REMARK  6 active torsions:
REMARK  status: ('A' for Active; 'I' for Inactive)
REMARK    1  A    between atoms: C_3  and  C_6
REMARK    2  A    between atoms: N_8  and  C_9
REMARK    3  A    between atoms: C_12  and  N_16
REMARK    4  A    between atoms: N_19  and  C_20
REMARK    5  A    between atoms: C_20  and  C_21
REMARK    6  A    between atoms: C_21  and  C_22
REMARK                            x       y       z     vdW  Elec       q    Type
REMARK                         _______ _______ _______ _____ _____    ______ ____
ROOT
ATOM      1  C   UNL     1       5.601  -0.695  -0.079  0.00  0.00    +0.052 A 
ATOM      2  C   UNL     1       6.357   0.310  -0.668  0.00  0.00    +0.026 A 
ATOM      3  C   UNL     1       7.730   0.188  -0.742  0.00  0.00    +0.025 A 
ATOM      4  C   UNL     1       8.356  -0.940  -0.227  0.00  0.00    +0.036 A 
ATOM      5  C   UNL     1       7.601  -1.945   0.362  0.00  0.00    +0.045 A 
ATOM      6  C   UNL     1       6.227  -1.821   0.441  0.00  0.00    +0.064 A 
ATOM      7 CL   UNL     1       5.283  -3.074   1.184  0.00  0.00    -0.082 Cl
ENDROOT
BRANCH   4   8
ATOM      8  N   UNL     1       9.749  -1.064  -0.302  0.00  0.00    -0.269 N 
ATOM      9  C   UNL     1      10.309  -2.275  -0.496  0.00  0.00    +0.304 C 
ATOM     10  O   UNL     1       9.611  -3.270  -0.522  0.00  0.00    -0.253 OA
ATOM     11  N   UNL     1      11.642  -2.382  -0.660  0.00  0.00    -0.299 N 
ATOM     12  H   UNL     1      10.311  -0.278  -0.215  0.00  0.00    +0.156 HD
ATOM     13  H   UNL     1      12.199  -1.589  -0.639  0.00  0.00    +0.150 HD
BRANCH  11  14
ATOM     14  C   UNL     1      12.250  -3.699  -0.870  0.00  0.00    +0.110 C 
BRANCH  14  15
ATOM     15  C   UNL     1      13.764  -3.542  -1.027  0.00  0.00    +0.049 C 
BRANCH  15  16
ATOM     16  C   UNL     1      14.390  -4.896  -1.244  0.00  0.00    -0.072 C 
ATOM     17  C   UNL     1      14.607  -5.276  -2.462  0.00  0.00    -0.028 C 
ATOM     18  C   UNL     1      15.212  -6.598  -2.834  0.00  0.00    +0.027 C 
ATOM     19  C   UNL     1      15.907  -7.220  -1.621  0.00  0.00    +0.004 C 
ATOM     20  C   UNL     1      14.938  -7.180  -0.433  0.00  0.00    +0.005 C 
ATOM     21  C   UNL     1      14.727  -5.716  -0.033  0.00  0.00    +0.030 C 
ENDBRANCH  15  16
ENDBRANCH  14  15
ENDBRANCH  11  14
ENDBRANCH   4   8
BRANCH   1  24
ATOM     22  C   UNL     1       3.531   0.037  -1.000  0.00  0.00    +0.284 C 
ATOM     23  O   UNL     1       4.137   0.552  -1.922  0.00  0.00    -0.266 OA
ATOM     24  N   UNL     1       4.207  -0.571  -0.005  0.00  0.00    -0.278 N 
ATOM     25  H   UNL     1       3.729  -0.923   0.762  0.00  0.00    +0.155 HD
BRANCH  22  28
ATOM     26  C   UNL     1      -0.062   0.463  -1.483  0.00  0.00    +0.042 A 
ATOM     27  C   UNL     1       1.261   0.659  -1.909  0.00  0.00    +0.054 A 
ATOM     28  C   UNL     1       2.066   0.079  -0.971  0.00  0.00    +0.189 A 
ATOM     29  O   UNL     1       1.276  -0.449  -0.013  0.00  0.00    -0.458 OA
ATOM     30  C   UNL     1      -0.008  -0.219  -0.318  0.00  0.00    +0.196 A 
ENDBRANCH  22  28
ENDBRANCH   1  24
TORSDOF 6
