REMARK  Name = ZINC13773628
REMARK  5 active torsions:
REMARK  status: ('A' for Active; 'I' for Inactive)
REMARK    1  A    between atoms: C_4  and  C_7
REMARK    2  A    between atoms: C_7  and  C_8
REMARK    3  A    between atoms: N_10  and  C_11
REMARK    4  A    between atoms: C_11  and  C_12
REMARK    5  A    between atoms: N_14  and  N_15
REMARK                            x       y       z     vdW  Elec       q    Type
REMARK                         _______ _______ _______ _____ _____    ______ ____
ROOT
ATOM      1  C   UNL     1       7.079  -2.588   2.966  0.00  0.00    +0.249 C 
ATOM      2  O   UNL     1       7.597  -2.879   1.909  0.00  0.00    -0.272 OA
ATOM      3  N   UNL     1       7.679  -2.923   4.126  0.00  0.00    -0.205 N 
ATOM      4  H   UNL     1       7.265  -2.691   4.971  0.00  0.00    +0.177 HD
ENDROOT
BRANCH   3   5
ATOM      5  N   UNL     1       8.902  -3.607   4.109  0.00  0.00    -0.174 NA
ATOM      6  C   UNL     1       9.486  -3.933   5.237  0.00  0.00    +0.153 C 
ATOM      7  C   UNL     1      10.773  -4.645   5.413  0.00  0.00    +0.030 A 
ATOM      8  C   UNL     1      11.706  -5.161   4.521  0.00  0.00    +0.027 A 
ATOM      9  C   UNL     1      12.839  -5.789   5.000  0.00  0.00    +0.020 A 
ATOM     10  C   UNL     1      13.043  -5.904   6.365  0.00  0.00    +0.032 A 
ATOM     11  C   UNL     1      12.122  -5.396   7.259  0.00  0.00    +0.041 A 
ATOM     12  C   UNL     1      10.975  -4.760   6.794  0.00  0.00    +0.057 A 
ATOM     13  N   UNL     1       9.909  -4.170   7.466  0.00  0.00    -0.279 N 
ATOM     14  C   UNL     1       9.008  -3.663   6.608  0.00  0.00    +0.269 C 
ATOM     15  O   UNL     1       7.978  -3.087   6.907  0.00  0.00    -0.268 OA
ATOM     16 BR   UNL     1      12.419  -5.565   9.119  0.00  0.00    -0.048 Br
ATOM     17 BR   UNL     1      14.112  -6.492   3.791  0.00  0.00    -0.050 Br
ATOM     18  H   UNL     1       9.829  -4.127   8.432  0.00  0.00    +0.155 HD
ENDBRANCH   3   5
BRANCH   1  19
ATOM     19  C   UNL     1       5.764  -1.853   2.984  0.00  0.00    +0.201 C 
BRANCH  19  22
ATOM     20  C   UNL     1       4.164  -0.959   1.377  0.00  0.00    +0.218 C 
ATOM     21  O   UNL     1       3.486  -0.579   2.308  0.00  0.00    -0.275 OA
ATOM     22  N   UNL     1       5.323  -1.607   1.608  0.00  0.00    -0.306 N 
ATOM     23  H   UNL     1       5.866  -1.911   0.864  0.00  0.00    +0.149 HD
BRANCH  20  24
ATOM     24  C   UNL     1       3.711  -0.707  -0.038  0.00  0.00    +0.130 C 
BRANCH  24  28
ATOM     25  C   UNL     1      -0.017   1.378   0.010  0.00  0.00    +0.000 A 
ATOM     26  C   UNL     1       1.171   2.086   0.002  0.00  0.00    +0.000 A 
ATOM     27  C   UNL     1       2.377   1.411  -0.013  0.00  0.00    +0.004 A 
ATOM     28  C   UNL     1       2.396   0.029  -0.020  0.00  0.00    -0.039 A 
ATOM     29  C   UNL     1       1.208  -0.679  -0.012  0.00  0.00    +0.004 A 
ATOM     30  C   UNL     1       0.002  -0.004   0.002  0.00  0.00    +0.000 A 
ENDBRANCH  24  28
ENDBRANCH  20  24
ENDBRANCH  19  22
ENDBRANCH   1  19
TORSDOF 5
