REMARK  Name = ZINC52541554
REMARK  11 active torsions:
REMARK  status: ('A' for Active; 'I' for Inactive)
REMARK    1  A    between atoms: C_1  and  C_2
REMARK    2  A    between atoms: C_2  and  C_3
REMARK    3  A    between atoms: C_2  and  N_4
REMARK    4  A    between atoms: N_7  and  N_8
REMARK    5  A    between atoms: C_9  and  C_10
REMARK    6  A    between atoms: C_13  and  C_16
REMARK    7  A    between atoms: C_20  and  C_25
REMARK    8  A    between atoms: N_26  and  N_27
REMARK    9  A    between atoms: N_30  and  C_31
REMARK   10  A    between atoms: C_31  and  C_32
REMARK   11  A    between atoms: C_31  and  C_33
REMARK                            x       y       z     vdW  Elec       q    Type
REMARK                         _______ _______ _______ _____ _____    ______ ____
ROOT
ATOM      1  C   UNL     1      -2.158  -2.284  10.718  0.00  0.00    +0.090 A 
ATOM      2  C   UNL     1      -1.617  -2.714  11.893  0.00  0.00    +0.121 A 
ATOM      3  N   UNL     1      -2.621  -2.714  12.821  0.00  0.00    -0.305 N 
ATOM      4  C   UNL     1      -2.647  -3.047  14.143  0.00  0.00    +0.102 A 
ATOM      5  C   UNL     1      -3.807  -2.956  14.856  0.00  0.00    +0.011 A 
ATOM      6  C   UNL     1      -4.995  -2.512  14.223  0.00  0.00    +0.014 A 
ATOM      7  C   UNL     1      -4.969  -2.180  12.908  0.00  0.00    +0.047 A 
ATOM      8  C   UNL     1      -3.759  -2.282  12.188  0.00  0.00    +0.138 A 
ATOM      9  N   UNL     1      -3.459  -2.023  10.924  0.00  0.00    -0.228 NA
ENDROOT
BRANCH   1  13
ATOM     10  C   UNL     1      -0.075  -1.830   7.034  0.00  0.00    -0.005 A 
ATOM     11  C   UNL     1      -1.437  -1.522   7.111  0.00  0.00    +0.010 A 
ATOM     12  C   UNL     1      -2.109  -1.669   8.303  0.00  0.00    +0.011 A 
ATOM     13  C   UNL     1      -1.432  -2.126   9.435  0.00  0.00    +0.002 A 
ATOM     14  C   UNL     1      -0.073  -2.434   9.360  0.00  0.00    +0.011 A 
ATOM     15  C   UNL     1       0.600  -2.293   8.168  0.00  0.00    +0.010 A 
BRANCH  10  17
ATOM     16  N   UNL     1       0.018  -1.242   4.707  0.00  0.00    -0.179 NA
ATOM     17  C   UNL     1       0.646  -1.672   5.759  0.00  0.00    +0.140 C 
BRANCH  16  21
ATOM     18  N   UNL     1       0.711  -0.489   1.189  0.00  0.00    -0.354 N 
ATOM     19  C   UNL     1       0.038  -0.636   2.380  0.00  0.00    +0.189 C 
ATOM     20  N   UNL     1      -1.231  -0.344   2.452  0.00  0.00    -0.370 N 
ATOM     21  N   UNL     1       0.703  -1.092   3.495  0.00  0.00    -0.249 N 
ATOM     22  H   UNL     1       1.654  -0.707   1.135  0.00  0.00    +0.163 HD
ATOM     23  H   UNL     1      -1.705  -0.448   3.291  0.00  0.00    +0.159 HD
ATOM     24  H   UNL     1       1.647  -1.310   3.441  0.00  0.00    +0.192 HD
ATOM     25  H   UNL     1      -1.700  -0.023   1.666  0.00  0.00    +0.159 HD
BRANCH  18  27
ATOM     26  C   UNL     1      -0.019   1.526   0.010  0.00  0.00    +0.030 C 
ATOM     27  C   UNL     1       0.002  -0.004   0.002  0.00  0.00    +0.076 C 
ATOM     28  C   UNL     1       0.718  -0.497  -1.257  0.00  0.00    +0.030 C 
ENDBRANCH  18  27
ENDBRANCH  16  21
ENDBRANCH  10  17
ENDBRANCH   1  13
BRANCH   5  29
ATOM     29  C   UNL     1      -3.824  -3.319  16.286  0.00  0.00    +0.142 C 
ATOM     30  N   UNL     1      -4.926  -3.233  16.964  0.00  0.00    -0.179 NA
BRANCH  30  31
ATOM     31  N   UNL     1      -4.942  -3.578  18.322  0.00  0.00    -0.247 N 
ATOM     32  C   UNL     1      -6.112  -3.486  19.041  0.00  0.00    +0.211 C 
ATOM     33  N   UNL     1      -7.205  -3.078  18.459  0.00  0.00    -0.267 NA
ATOM     34  N   UNL     1      -6.127  -3.826  20.374  0.00  0.00    -0.353 N 
ATOM     35  H   UNL     1      -5.314  -4.130  20.807  0.00  0.00    +0.163 HD
ATOM     36  H   UNL     1      -7.194  -2.839  17.519  0.00  0.00    +0.190 HD
ATOM     37  H   UNL     1      -4.129  -3.882  18.755  0.00  0.00    +0.192 HD
BRANCH  34  38
ATOM     38  C   UNL     1      -7.372  -3.728  21.140  0.00  0.00    +0.076 C 
ATOM     39  C   UNL     1      -8.187  -5.010  20.955  0.00  0.00    +0.030 C 
ATOM     40  C   UNL     1      -7.045  -3.541  22.623  0.00  0.00    +0.030 C 
ENDBRANCH  34  38
ENDBRANCH  30  31
ENDBRANCH   5  29
TORSDOF 7
