REMARK  Name = ZINC01933884
REMARK  14 active torsions:
REMARK  status: ('A' for Active; 'I' for Inactive)
REMARK    1  A    between atoms: C_1  and  C_2
REMARK    2  A    between atoms: C_2  and  O_3
REMARK    3  A    between atoms: O_3  and  C_4
REMARK    4  A    between atoms: C_7  and  N_10
REMARK    5  A    between atoms: C_11  and  C_13
REMARK    6  A    between atoms: C_17  and  N_18
REMARK    7  A    between atoms: C_19  and  C_21
REMARK    8  A    between atoms: C_23  and  O_31
REMARK    9  A    between atoms: C_24  and  O_29
REMARK   10  A    between atoms: C_25  and  O_27
REMARK   11  A    between atoms: O_27  and  C_28
REMARK   12  A    between atoms: O_29  and  C_30
REMARK   13  A    between atoms: O_31  and  C_32
REMARK   14  A    between atoms: C_34  and  C_38
REMARK                            x       y       z     vdW  Elec       q    Type
REMARK                         _______ _______ _______ _____ _____    ______ ____
ROOT
ATOM      1  C   UNL     1      -4.853   0.938   0.242  0.00  0.00    +0.069 A 
ATOM      2  C   UNL     1      -5.380   0.540   1.537  0.00  0.00    -0.023 A 
ATOM      3  C   UNL     1      -6.543  -0.145   1.498  0.00  0.00    -0.004 A 
ATOM      4  S   UNL     1      -6.934  -0.278  -0.223  0.00  0.00    -0.077 S 
ATOM      5  C   UNL     1      -5.577   0.572  -0.884  0.00  0.00    +0.085 A 
ATOM      6  C   UNL     1      -7.319  -0.675   2.666  0.00  0.00    +0.046 C 
ATOM      7  C   UNL     1      -6.796   0.003   3.941  0.00  0.00    -0.009 C 
ATOM      8  C   UNL     1      -5.266  -0.060   3.942  0.00  0.00    +0.008 C 
ATOM      9  C   UNL     1      -4.707   0.870   2.863  0.00  0.00    +0.037 C 
ATOM     10  C   UNL     1      -7.343  -0.726   5.170  0.00  0.00    +0.008 C 
ENDROOT
BRANCH   1  12
ATOM     11  N   UNL     1      -2.428   1.038   0.019  0.00  0.00    -0.281 N 
ATOM     12  C   UNL     1      -3.601   1.692   0.130  0.00  0.00    +0.251 C 
ATOM     13  O   UNL     1      -3.621   2.909   0.137  0.00  0.00    -0.270 OA
ATOM     14  H   UNL     1      -2.416  -0.058  -0.074  0.00  0.00    +0.155 HD
BRANCH  11  18
ATOM     15  C   UNL     1       1.158   3.165   0.036  0.00  0.00    +0.121 A 
ATOM     16  C   UNL     1       0.082   3.614   0.788  0.00  0.00    +0.047 A 
ATOM     17  C   UNL     1      -1.107   2.912   0.780  0.00  0.00    +0.027 A 
ATOM     18  C   UNL     1      -1.224   1.753   0.023  0.00  0.00    +0.034 A 
ATOM     19  C   UNL     1      -0.148   1.307  -0.733  0.00  0.00    +0.027 A 
ATOM     20  C   UNL     1       1.040   2.010  -0.724  0.00  0.00    +0.047 A 
BRANCH  15  21
ATOM     21  O   UNL     1       2.329   3.857   0.044  0.00  0.00    -0.492 OA
BRANCH  21  23
ATOM     22  C   UNL     1       4.621   4.242  -0.617  0.00  0.00    +0.048 C 
ATOM     23  C   UNL     1       3.395   3.337  -0.753  0.00  0.00    +0.225 C 
ENDBRANCH  21  23
ENDBRANCH  15  21
ENDBRANCH  11  18
ENDBRANCH   1  12
BRANCH   5  24
ATOM     24  N   UNL     1      -5.284   0.824  -2.215  0.00  0.00    -0.275 N 
ATOM     25  C   UNL     1      -6.114   0.385  -3.182  0.00  0.00    +0.249 C 
ATOM     26  O   UNL     1      -7.119  -0.232  -2.887  0.00  0.00    -0.270 OA
ATOM     27  H   UNL     1      -4.374   1.382  -2.482  0.00  0.00    +0.156 HD
BRANCH  25  28
ATOM     28  C   UNL     1      -5.802   0.654  -4.599  0.00  0.00    +0.044 A 
ATOM     29  C   UNL     1      -4.650   1.367  -4.939  0.00  0.00    +0.062 A 
ATOM     30  C   UNL     1      -4.357   1.613  -6.268  0.00  0.00    +0.166 A 
ATOM     31  C   UNL     1      -5.215   1.159  -7.266  0.00  0.00    +0.204 A 
ATOM     32  C   UNL     1      -6.367   0.453  -6.930  0.00  0.00    +0.166 A 
ATOM     33  C   UNL     1      -6.661   0.200  -5.603  0.00  0.00    +0.062 A 
BRANCH  32  34
ATOM     34  O   UNL     1      -7.203   0.011  -7.908  0.00  0.00    -0.491 OA
ATOM     35  C   UNL     1      -8.366  -0.708  -7.491  0.00  0.00    +0.277 C 
ENDBRANCH  32  34
BRANCH  31  36
ATOM     36  O   UNL     1      -4.928   1.407  -8.571  0.00  0.00    -0.488 OA
ATOM     37  C   UNL     1      -5.443   2.617  -9.131  0.00  0.00    +0.277 C 
ENDBRANCH  31  36
BRANCH  30  38
ATOM     38  O   UNL     1      -3.233   2.302  -6.600  0.00  0.00    -0.491 OA
ATOM     39  C   UNL     1      -2.398   2.737  -5.525  0.00  0.00    +0.277 C 
ENDBRANCH  30  38
ENDBRANCH  25  28
ENDBRANCH   5  24
TORSDOF 9
