REMARK  Name = ZINC12073686
REMARK  8 active torsions:
REMARK  status: ('A' for Active; 'I' for Inactive)
REMARK    1  A    between atoms: C_4  and  C_28
REMARK    2  A    between atoms: C_5  and  C_7
REMARK    3  A    between atoms: C_7  and  N_54
REMARK    4  A    between atoms: C_13  and  C_15
REMARK    5  A    between atoms: C_15  and  C_16
REMARK    6  A    between atoms: N_18  and  C_19
REMARK    7  A    between atoms: C_19  and  C_20
REMARK    8  A    between atoms: C_20  and  C_21
REMARK                            x       y       z     vdW  Elec       q    Type
REMARK                         _______ _______ _______ _____ _____    ______ ____
ROOT
ATOM      1  C   UNL     1      -3.373   3.371  -1.772  0.00  0.00    -0.058 C 
ATOM      2  C   UNL     1      -4.027   3.845  -3.072  0.00  0.00    +0.085 C 
ATOM      3  N   UNL     1      -3.113   4.718  -3.802  0.00  0.00    -0.318 N 
ATOM      4  C   UNL     1      -2.061   5.312  -3.228  0.00  0.00    +0.200 C 
ATOM      5  O   UNL     1      -1.370   6.048  -3.901  0.00  0.00    -0.278 OA
ATOM      6  C   UNL     1      -1.699   5.106  -1.784  0.00  0.00    +0.028 C 
ATOM      7  H   UNL     1      -3.276   4.875  -4.745  0.00  0.00    +0.149 HD
ATOM      8  N   UNL     1      -2.860   4.558  -1.059  0.00  0.00    +0.391 N 
ATOM      9  H   UNL     1      -3.598   5.270  -1.019  0.00  0.00    -0.080 HD
ENDROOT
BRANCH   8  10
ATOM     10  C   UNL     1      -2.469   4.191   0.321  0.00  0.00    -0.041 C 
BRANCH  10  15
ATOM     11  C   UNL     1      -1.020   6.887   2.532  0.00  0.00    +0.000 A 
ATOM     12  C   UNL     1      -2.091   7.755   2.646  0.00  0.00    +0.001 A 
ATOM     13  C   UNL     1      -3.283   7.470   2.007  0.00  0.00    +0.012 A 
ATOM     14  C   UNL     1      -3.405   6.316   1.255  0.00  0.00    +0.056 A 
ATOM     15  C   UNL     1      -2.335   5.449   1.141  0.00  0.00    -0.052 A 
ATOM     16  C   UNL     1      -1.141   5.737   1.775  0.00  0.00    +0.002 A 
BRANCH  14  17
ATOM     17  C   UNL     1      -4.705   6.005   0.559  0.00  0.00    +0.418 C 
ATOM     18  F   UNL     1      -5.638   7.008   0.843  0.00  0.00    -0.166 F 
ATOM     19  F   UNL     1      -4.492   5.943  -0.822  0.00  0.00    -0.166 F 
ATOM     20  F   UNL     1      -5.192   4.774   1.011  0.00  0.00    -0.166 F 
ENDBRANCH  14  17
ENDBRANCH  10  15
ENDBRANCH   8  10
BRANCH   6  21
ATOM     21  C   UNL     1      -1.312   6.449  -1.161  0.00  0.00    +0.089 C 
BRANCH  21  22
ATOM     22  C   UNL     1      -2.438   7.433  -1.349  0.00  0.00    +0.212 C 
ATOM     23  O   UNL     1      -3.395   7.136  -2.033  0.00  0.00    -0.276 OA
ATOM     24  N   UNL     1      -2.382   8.643  -0.758  0.00  0.00    -0.315 N 
ATOM     25  H   UNL     1      -1.586   8.908  -0.271  0.00  0.00    +0.149 HD
BRANCH  24  26
ATOM     26  C   UNL     1      -3.523   9.557  -0.850  0.00  0.00    +0.109 C 
BRANCH  26  27
ATOM     27  C   UNL     1      -3.157  10.896  -0.206  0.00  0.00    +0.054 C 
BRANCH  27  28
ATOM     28  C   UNL     1      -4.331  11.836  -0.301  0.00  0.00    -0.043 A 
ATOM     29  C   UNL     1      -4.462  12.669  -1.397  0.00  0.00    +0.004 A 
ATOM     30  C   UNL     1      -5.541  13.529  -1.488  0.00  0.00    +0.003 A 
ATOM     31  C   UNL     1      -6.484  13.564  -0.478  0.00  0.00    +0.038 A 
ATOM     32  C   UNL     1      -6.351  12.735   0.622  0.00  0.00    +0.124 A 
ATOM     33  C   UNL     1      -5.272  11.870   0.709  0.00  0.00    +0.042 A 
ATOM     34  F   UNL     1      -7.271  12.769   1.610  0.00  0.00    -0.205 F 
ENDBRANCH  27  28
ENDBRANCH  26  27
ENDBRANCH  24  26
ENDBRANCH  21  22
ENDBRANCH   6  21
TORSDOF 8
