REMARK  Name = ZINC64580528
REMARK  6 active torsions:
REMARK  status: ('A' for Active; 'I' for Inactive)
REMARK    1  A    between atoms: C_1  and  N_2
REMARK    2  A    between atoms: C_10  and  C_12
REMARK    3  A    between atoms: C_12  and  C_13
REMARK    4  A    between atoms: C_13  and  C_14
REMARK    5  A    between atoms: C_17  and  N_20
REMARK    6  A    between atoms: C_21  and  C_23
REMARK                            x       y       z     vdW  Elec       q    Type
REMARK                         _______ _______ _______ _____ _____    ______ ____
ROOT
ATOM      1  C   UNL     1      -2.348  -1.260   4.168  0.00  0.00    -0.047 A 
ATOM      2  C   UNL     1      -2.319  -0.355   5.213  0.00  0.00    +0.005 A 
ATOM      3  C   UNL     1      -3.449  -0.145   5.979  0.00  0.00    +0.023 A 
ATOM      4  C   UNL     1      -4.615  -0.845   5.699  0.00  0.00    +0.033 A 
ATOM      5  C   UNL     1      -4.641  -1.753   4.649  0.00  0.00    +0.023 A 
ATOM      6  C   UNL     1      -3.510  -1.954   3.883  0.00  0.00    +0.005 A 
ENDROOT
BRANCH   4   7
ATOM      7  N   UNL     1      -5.761  -0.636   6.474  0.00  0.00    -0.284 N 
ATOM      8  C   UNL     1      -6.013   0.584   6.989  0.00  0.00    +0.244 C 
ATOM      9  O   UNL     1      -5.300   1.522   6.703  0.00  0.00    -0.273 OA
ATOM     10  H   UNL     1      -6.374  -1.369   6.641  0.00  0.00    +0.155 HD
BRANCH   8  11
ATOM     11  C   UNL     1      -7.181   0.782   7.920  0.00  0.00    +0.190 C 
ATOM     12  C   UNL     1      -8.477   0.476   7.203  0.00  0.00    +0.016 C 
ATOM     13  C   UNL     1      -9.197   1.621   7.225  0.00  0.00    -0.004 A 
ATOM     14  C   UNL     1     -10.524   1.972   6.703  0.00  0.00    +0.010 A 
ATOM     15  C   UNL     1     -10.988   3.229   6.883  0.00  0.00    +0.001 A 
ATOM     16  C   UNL     1     -10.236   4.204   7.554  0.00  0.00    +0.002 A 
ATOM     17  C   UNL     1      -9.010   3.957   8.062  0.00  0.00    +0.026 A 
ATOM     18  C   UNL     1      -8.423   2.668   7.930  0.00  0.00    +0.043 A 
ATOM     19  N   UNL     1      -7.269   2.188   8.329  0.00  0.00    -0.370 N 
ATOM     20  H   UNL     1      -6.587   2.680   8.813  0.00  0.00    +0.161 HD
ENDBRANCH   8  11
ENDBRANCH   4   7
BRANCH   1  21
ATOM     21  C   UNL     1      -1.114  -1.486   3.334  0.00  0.00    +0.038 C 
BRANCH  21  22
ATOM     22  C   UNL     1      -1.107  -0.507   2.157  0.00  0.00    +0.047 C 
BRANCH  22  32
ATOM     23  C   UNL     1       0.328   1.721   0.429  0.00  0.00    +0.131 C 
ATOM     24  N   UNL     1       0.230   0.271   0.246  0.00  0.00    -0.313 N 
ATOM     25  C   UNL     1       0.205  -0.412  -0.978  0.00  0.00    +0.052 A 
ATOM     26  C   UNL     1       0.262   0.069  -2.281  0.00  0.00    +0.025 A 
ATOM     27  C   UNL     1       0.220  -0.809  -3.347  0.00  0.00    +0.002 A 
ATOM     28  C   UNL     1       0.120  -2.170  -3.122  0.00  0.00    +0.002 A 
ATOM     29  C   UNL     1       0.063  -2.657  -1.830  0.00  0.00    +0.025 A 
ATOM     30  C   UNL     1       0.105  -1.782  -0.751  0.00  0.00    +0.050 A 
ATOM     31  N   UNL     1       0.062  -2.033   0.627  0.00  0.00    -0.324 N 
ATOM     32  C   UNL     1       0.146  -0.737   1.310  0.00  0.00    +0.158 C 
ATOM     33  H   UNL     1      -0.007  -2.903   1.051  0.00  0.00    +0.148 HD
ENDBRANCH  22  32
ENDBRANCH  21  22
ENDBRANCH   1  21
TORSDOF 5
