REMARK  Name = ZINC24885144
REMARK  12 active torsions:
REMARK  status: ('A' for Active; 'I' for Inactive)
REMARK    1  A    between atoms: C_1  and  O_2
REMARK    2  A    between atoms: O_2  and  C_3
REMARK    3  A    between atoms: C_3  and  C_5
REMARK    4  A    between atoms: C_8  and  C_11
REMARK    5  A    between atoms: C_11  and  N_12
REMARK    6  A    between atoms: C_15  and  N_18
REMARK    7  A    between atoms: N_18  and  C_19
REMARK    8  A    between atoms: N_18  and  S_23
REMARK    9  A    between atoms: C_19  and  C_20
REMARK   10  A    between atoms: S_23  and  C_26
REMARK   11  A    between atoms: C_30  and  S_32
REMARK   12  A    between atoms: S_32  and  C_35
REMARK                            x       y       z     vdW  Elec       q    Type
REMARK                         _______ _______ _______ _____ _____    ______ ____
ROOT
ATOM      1  N   UNL     1      -1.312  -1.662   4.029  0.00  0.00    +0.382 N 
ATOM      2  C   UNL     1      -1.318  -2.281   2.698  0.00  0.00    -0.077 C 
ATOM      3  C   UNL     1      -1.232  -1.192   1.627  0.00  0.00    +0.002 C 
ATOM      4  C   UNL     1      -2.425  -0.243   1.774  0.00  0.00    +0.076 C 
ATOM      5  C   UNL     1      -2.423   0.351   3.185  0.00  0.00    +0.002 C 
ATOM      6  C   UNL     1      -2.474  -0.783   4.211  0.00  0.00    -0.077 C 
ATOM      7  H   UNL     1      -0.407  -1.041   4.107  0.00  0.00    -0.081 HD
ENDROOT
BRANCH   1   8
ATOM      8  C   UNL     1      -1.254  -2.682   5.085  0.00  0.00    -0.043 C 
BRANCH   8  12
ATOM      9  C   UNL     1      -0.542  -0.795   8.856  0.00  0.00    +0.059 A 
ATOM     10  C   UNL     1      -1.849  -0.996   8.408  0.00  0.00    +0.015 A 
ATOM     11  C   UNL     1      -2.071  -1.605   7.190  0.00  0.00    +0.002 A 
ATOM     12  C   UNL     1      -1.003  -2.017   6.413  0.00  0.00    -0.064 A 
ATOM     13  C   UNL     1       0.295  -1.826   6.854  0.00  0.00    +0.002 A 
ATOM     14  C   UNL     1       0.532  -1.213   8.067  0.00  0.00    +0.015 A 
BRANCH   9  15
ATOM     15  C   UNL     1      -0.296  -0.143  10.158  0.00  0.00    +0.339 C 
ATOM     16  O   UNL     1      -1.232   0.219  10.842  0.00  0.00    -0.245 OA
BRANCH  15  18
ATOM     17  C   UNL     1       1.133   0.696  11.877  0.00  0.00    +0.280 C 
ATOM     18  O   UNL     1       0.966   0.049  10.588  0.00  0.00    -0.464 OA
ENDBRANCH  15  18
ENDBRANCH   9  15
ENDBRANCH   8  12
ENDBRANCH   1   8
BRANCH   4  19
ATOM     19  N   UNL     1      -2.317   0.835   0.788  0.00  0.00    -0.173 NA
BRANCH  19  20
ATOM     20  S   UNL     1      -3.510   1.048  -0.341  0.00  0.00    +0.061 S 
ATOM     21  O   UNL     1      -4.691   0.473   0.203  0.00  0.00    -0.153 OA
ATOM     22  O   UNL     1      -3.443   2.406  -0.752  0.00  0.00    -0.153 OA
BRANCH  20  23
ATOM     23  C   UNL     1      -3.078   0.075  -1.745  0.00  0.00    +0.107 A 
ATOM     24  C   UNL     1      -3.508  -1.236  -1.837  0.00  0.00    +0.028 A 
ATOM     25  C   UNL     1      -3.169  -1.999  -2.938  0.00  0.00    +0.004 A 
ATOM     26  C   UNL     1      -2.400  -1.451  -3.948  0.00  0.00    +0.027 A 
ATOM     27  C   UNL     1      -1.970  -0.141  -3.856  0.00  0.00    +0.090 A 
ATOM     28  C   UNL     1      -2.314   0.624  -2.757  0.00  0.00    +0.055 A 
BRANCH  27  29
ATOM     29  S   UNL     1      -0.990   0.557  -5.144  0.00  0.00    -0.006 S 
ATOM     30  O   UNL     1      -0.240   1.585  -4.511  0.00  0.00    -0.170 OA
ATOM     31  O   UNL     1      -0.335  -0.553  -5.743  0.00  0.00    -0.170 OA
ATOM     32  C   UNL     1      -2.186   1.277  -6.302  0.00  0.00    +0.200 C 
ENDBRANCH  27  29
ENDBRANCH  20  23
ENDBRANCH  19  20
BRANCH  19  33
ATOM     33  C   UNL     1      -1.154   1.726   0.801  0.00  0.00    +0.113 C 
BRANCH  33  34
ATOM     34  C   UNL     1      -0.013   1.086   0.008  0.00  0.00    +0.005 C 
ATOM     35  C   UNL     1       0.460   1.806  -1.256  0.00  0.00    +0.005 C 
ATOM     36  C   UNL     1       1.335   1.811  -0.001  0.00  0.00    +0.005 C 
ENDBRANCH  33  34
ENDBRANCH  19  33
ENDBRANCH   4  19
TORSDOF 10
