REMARK  Name = ZINC39696089
REMARK  7 active torsions:
REMARK  status: ('A' for Active; 'I' for Inactive)
REMARK    1  A    between atoms: C_1  and  C_2
REMARK    2  A    between atoms: C_2  and  C_3
REMARK    3  A    between atoms: C_6  and  C_9
REMARK    4  A    between atoms: C_9  and  C_11
REMARK    5  A    between atoms: C_9  and  N_12
REMARK    6  A    between atoms: C_13  and  C_15
REMARK    7  A    between atoms: C_26  and  C_28
REMARK                            x       y       z     vdW  Elec       q    Type
REMARK                         _______ _______ _______ _____ _____    ______ ____
ROOT
ATOM      1  C   UNL     1       2.918  -0.853   7.988  0.00  0.00    +0.100 C 
ATOM      2  C   UNL     1       1.535  -1.367   8.445  0.00  0.00    +0.121 C 
ATOM      3  N   UNL     1       1.823  -2.224   9.619  0.00  0.00    -0.296 N 
ATOM      4  C   UNL     1       2.893  -1.502  10.349  0.00  0.00    +0.115 C 
ATOM      5  C   UNL     1       3.805  -0.939   9.241  0.00  0.00    -0.004 C 
ATOM      6  C   UNL     1       4.311   0.447   9.627  0.00  0.00    -0.010 C 
ATOM      7  C   UNL     1       5.238   0.328  10.840  0.00  0.00    -0.082 C 
ATOM      8  N   UNL     1       6.366  -0.552  10.512  0.00  0.00    +0.379 N 
ATOM      9  C   UNL     1       5.877  -1.908  10.233  0.00  0.00    -0.082 C 
ATOM     10  C   UNL     1       4.978  -1.884   8.994  0.00  0.00    -0.010 C 
ATOM     11  C   UNL     1       1.243  -3.395   9.949  0.00  0.00    +0.248 C 
ATOM     12  O   UNL     1       1.523  -3.936  11.002  0.00  0.00    -0.270 OA
ATOM     13  H   UNL     1       6.845  -0.195   9.700  0.00  0.00    -0.086 HD
ATOM     14  H   UNL     1       7.006  -0.581  11.292  0.00  0.00    -0.086 HD
ENDROOT
BRANCH  11  15
ATOM     15  C   UNL     1       0.268  -4.021   9.032  0.00  0.00    +0.057 A 
ATOM     16  C   UNL     1      -0.602  -3.226   8.284  0.00  0.00    +0.014 A 
ATOM     17  C   UNL     1      -1.510  -3.816   7.430  0.00  0.00    +0.002 A 
ATOM     18  C   UNL     1      -1.561  -5.194   7.313  0.00  0.00    +0.021 A 
ATOM     19  C   UNL     1      -0.703  -5.990   8.051  0.00  0.00    +0.060 A 
ATOM     20  C   UNL     1       0.217  -5.412   8.906  0.00  0.00    +0.071 A 
ATOM     21 CL   UNL     1       1.299  -6.410   9.826  0.00  0.00    -0.081 Cl
ATOM     22 CL   UNL     1      -0.775  -7.718   7.897  0.00  0.00    -0.082 Cl
ENDBRANCH  11  15
BRANCH   1  24
ATOM     23  N   UNL     1       4.329  -1.221   5.990  0.00  0.00    -0.308 N 
ATOM     24  C   UNL     1       3.469  -1.730   6.894  0.00  0.00    +0.219 C 
ATOM     25  O   UNL     1       3.138  -2.895   6.826  0.00  0.00    -0.275 OA
ATOM     26  H   UNL     1       4.593  -0.289   6.043  0.00  0.00    +0.149 HD
BRANCH  23  27
ATOM     27  C   UNL     1       4.864  -2.074   4.926  0.00  0.00    +0.100 C 
ATOM     28  C   UNL     1       3.881  -2.106   3.754  0.00  0.00    +0.033 C 
BRANCH  27  32
ATOM     29  C   UNL     1       8.610  -0.511   3.595  0.00  0.00    -0.048 A 
ATOM     30  C   UNL     1       8.440  -1.876   3.732  0.00  0.00    +0.004 A 
ATOM     31  C   UNL     1       7.228  -2.382   4.163  0.00  0.00    +0.006 A 
ATOM     32  C   UNL     1       6.186  -1.522   4.457  0.00  0.00    -0.027 A 
ATOM     33  C   UNL     1       6.356  -0.157   4.321  0.00  0.00    +0.006 A 
ATOM     34  C   UNL     1       7.570   0.348   3.894  0.00  0.00    +0.004 A 
BRANCH  29  36
ATOM     35  C   UNL     1      10.834   0.301   4.333  0.00  0.00    +0.009 C 
ATOM     36  C   UNL     1       9.932   0.040   3.125  0.00  0.00    +0.032 C 
ENDBRANCH  29  36
ENDBRANCH  27  32
ENDBRANCH  23  27
ENDBRANCH   1  24
TORSDOF 5
