REMARK  Name = ZINC03325324
REMARK  7 active torsions:
REMARK  status: ('A' for Active; 'I' for Inactive)
REMARK    1  A    between atoms: C_3  and  C_6
REMARK    2  A    between atoms: N_10  and  C_30
REMARK    3  A    between atoms: C_11  and  S_13
REMARK    4  A    between atoms: S_13  and  C_14
REMARK    5  A    between atoms: C_14  and  C_15
REMARK    6  A    between atoms: C_33  and  O_36
REMARK    7  A    between atoms: O_36  and  C_37
REMARK                            x       y       z     vdW  Elec       q    Type
REMARK                         _______ _______ _______ _____ _____    ______ ____
ROOT
ATOM      1  C   UNL     1       3.495   0.579  -0.307  0.00  0.00    +0.079 C 
ATOM      2  C   UNL     1       4.161  -0.624  -0.164  0.00  0.00    +0.132 C 
ATOM      3  C   UNL     1       5.609  -0.853  -0.280  0.00  0.00    +0.275 C 
ATOM      4  O   UNL     1       6.469  -0.025  -0.522  0.00  0.00    -0.268 OA
ATOM      5  N   UNL     1       5.785  -2.174  -0.061  0.00  0.00    -0.214 N 
ATOM      6  C   UNL     1       4.556  -2.740   0.174  0.00  0.00    +0.169 C 
ATOM      7  N   UNL     1       3.609  -1.841   0.121  0.00  0.00    -0.220 NA
ENDROOT
BRANCH   5   8
ATOM      8  C   UNL     1       7.014  -2.853  -0.073  0.00  0.00    +0.044 A 
ATOM      9  C   UNL     1       7.285  -3.780  -1.070  0.00  0.00    +0.027 A 
ATOM     10  C   UNL     1       8.493  -4.448  -1.081  0.00  0.00    +0.048 A 
ATOM     11  C   UNL     1       9.437  -4.191  -0.097  0.00  0.00    +0.127 A 
ATOM     12  C   UNL     1       9.166  -3.264   0.899  0.00  0.00    +0.048 A 
ATOM     13  C   UNL     1       7.960  -2.592   0.908  0.00  0.00    +0.027 A 
BRANCH  11  14
ATOM     14  O   UNL     1      10.627  -4.849  -0.108  0.00  0.00    -0.434 OA
BRANCH  14  15
ATOM     15  C   UNL     1      11.551  -4.535   0.936  0.00  0.00    +0.541 C 
ATOM     16  F   UNL     1      11.873  -3.175   0.880  0.00  0.00    -0.166 F 
ATOM     17  F   UNL     1      10.972  -4.828   2.175  0.00  0.00    -0.166 F 
ENDBRANCH  14  15
ENDBRANCH  11  14
ENDBRANCH   5   8
BRANCH   1  20
ATOM     18  C   UNL     1      -0.018   1.345  -0.049  0.00  0.00    +0.042 A 
ATOM     19  C   UNL     1       1.302   1.760  -0.274  0.00  0.00    +0.049 A 
ATOM     20  C   UNL     1       2.094   0.631  -0.158  0.00  0.00    +0.130 A 
ATOM     21  O   UNL     1       1.284  -0.412   0.123  0.00  0.00    -0.463 OA
ATOM     22  C   UNL     1       0.014   0.015   0.189  0.00  0.00    +0.195 A 
ENDBRANCH   1  20
BRANCH   6  23
ATOM     23  S   UNL     1       4.292  -4.450   0.510  0.00  0.00    -0.082 S 
BRANCH  23  24
ATOM     24  C   UNL     1       2.496  -4.582   0.729  0.00  0.00    +0.151 C 
BRANCH  24  25
ATOM     25  C   UNL     1       2.130  -6.013   1.026  0.00  0.00    +0.121 A 
ATOM     26  N   UNL     1       0.827  -6.341   1.221  0.00  0.00    -0.310 N 
ATOM     27  H   UNL     1       0.149  -5.649   1.166  0.00  0.00    +0.170 HD
ATOM     28  C   UNL     1       0.456  -7.607   1.488  0.00  0.00    +0.260 A 
ATOM     29  O   UNL     1      -0.718  -7.886   1.660  0.00  0.00    -0.267 OA
ATOM     30  C   UNL     1       1.465  -8.623   1.567  0.00  0.00    +0.075 A 
ATOM     31  C   UNL     1       1.299 -10.049   1.844  0.00  0.00    -0.023 A 
ATOM     32  C   UNL     1       2.418 -10.803   1.863  0.00  0.00    -0.004 A 
ATOM     33  S   UNL     1       3.740  -9.673   1.520  0.00  0.00    -0.073 S 
ATOM     34  C   UNL     1       2.782  -8.188   1.351  0.00  0.00    +0.116 A 
ATOM     35  N   UNL     1       3.071  -6.917   1.086  0.00  0.00    -0.226 NA
ATOM     36  C   UNL     1       2.517 -12.275   2.122  0.00  0.00    +0.043 C 
ATOM     37  C   UNL     1       1.190 -12.749   2.732  0.00  0.00    +0.005 C 
ATOM     38  C   UNL     1       0.036 -12.188   1.895  0.00  0.00    +0.005 C 
ATOM     39  C   UNL     1      -0.068 -10.677   2.101  0.00  0.00    +0.037 C 
ENDBRANCH  24  25
ENDBRANCH  23  24
ENDBRANCH   6  23
TORSDOF 7
