REMARK  Name = ZINC33916311
REMARK  6 active torsions:
REMARK  status: ('A' for Active; 'I' for Inactive)
REMARK    1  A    between atoms: C_1  and  N_2
REMARK    2  A    between atoms: C_3  and  C_32
REMARK    3  A    between atoms: C_6  and  N_24
REMARK    4  A    between atoms: C_8  and  C_18
REMARK    5  A    between atoms: C_10  and  C_12
REMARK    6  A    between atoms: C_25  and  C_26
REMARK                            x       y       z     vdW  Elec       q    Type
REMARK                         _______ _______ _______ _____ _____    ______ ____
ROOT
ATOM      1  C   UNL     1       0.369   0.876  -0.910  0.00  0.00    +0.106 C 
ATOM      2  N   UNL     1       0.321  -0.489  -0.369  0.00  0.00    -0.291 NA
ATOM      3  C   UNL     1      -1.065  -0.963  -0.261  0.00  0.00    +0.089 C 
ATOM      4  C   UNL     1      -1.070  -2.432   0.167  0.00  0.00    +0.048 C 
ATOM      5  C   UNL     1      -0.358  -2.569   1.516  0.00  0.00    +0.090 C 
ATOM      6  C   UNL     1       1.067  -2.023   1.389  0.00  0.00    +0.063 C 
ATOM      7  C   UNL     1       1.011  -0.566   0.925  0.00  0.00    +0.096 C 
ENDROOT
BRANCH   7   8
ATOM      8  C   UNL     1       0.263   0.256   1.943  0.00  0.00    -0.030 A 
ATOM      9  C   UNL     1       0.690   0.284   3.258  0.00  0.00    +0.005 A 
ATOM     10  C   UNL     1       0.003   1.038   4.191  0.00  0.00    +0.000 A 
ATOM     11  C   UNL     1      -1.109   1.764   3.810  0.00  0.00    +0.000 A 
ATOM     12  C   UNL     1      -1.536   1.737   2.495  0.00  0.00    +0.000 A 
ATOM     13  C   UNL     1      -0.847   0.986   1.561  0.00  0.00    +0.005 A 
ENDBRANCH   7   8
BRANCH   6  14
ATOM     14  C   UNL     1       1.756  -2.100   2.727  0.00  0.00    -0.041 A 
ATOM     15  C   UNL     1       1.057  -1.808   3.882  0.00  0.00    +0.004 A 
ATOM     16  C   UNL     1       1.689  -1.879   5.110  0.00  0.00    +0.000 A 
ATOM     17  C   UNL     1       3.021  -2.243   5.181  0.00  0.00    +0.000 A 
ATOM     18  C   UNL     1       3.720  -2.536   4.025  0.00  0.00    +0.000 A 
ATOM     19  C   UNL     1       3.087  -2.469   2.799  0.00  0.00    +0.004 A 
ENDBRANCH   6  14
BRANCH   3  20
ATOM     20  C   UNL     1      -1.747  -0.827  -1.597  0.00  0.00    -0.030 A 
ATOM     21  C   UNL     1      -1.063  -1.137  -2.758  0.00  0.00    +0.005 A 
ATOM     22  C   UNL     1      -1.689  -1.012  -3.984  0.00  0.00    +0.000 A 
ATOM     23  C   UNL     1      -3.000  -0.578  -4.049  0.00  0.00    +0.000 A 
ATOM     24  C   UNL     1      -3.685  -0.269  -2.889  0.00  0.00    +0.000 A 
ATOM     25  C   UNL     1      -3.060  -0.398  -1.663  0.00  0.00    +0.005 A 
ENDBRANCH   3  20
BRANCH   5  26
ATOM     26  N   UNL     1      -1.086  -1.807   2.533  0.00  0.00    -0.386 N 
ATOM     27  C   UNL     1      -2.112  -2.330   3.121  0.00  0.00    +0.086 C 
ATOM     28  H   UNL     1      -0.799  -0.911   2.766  0.00  0.00    +0.159 HD
BRANCH  27  29
ATOM     29  C   UNL     1      -2.695  -3.587   2.610  0.00  0.00    -0.009 A 
ATOM     30  C   UNL     1      -2.140  -4.213   1.493  0.00  0.00    +0.009 A 
ATOM     31  C   UNL     1      -2.689  -5.388   1.020  0.00  0.00    +0.001 A 
ATOM     32  C   UNL     1      -3.787  -5.944   1.652  0.00  0.00    +0.000 A 
ATOM     33  C   UNL     1      -4.342  -5.329   2.759  0.00  0.00    +0.001 A 
ATOM     34  C   UNL     1      -3.799  -4.157   3.246  0.00  0.00    +0.009 A 
ENDBRANCH  27  29
ENDBRANCH   5  26
TORSDOF 5
