REMARK  Name = ZINC35711422
REMARK  12 active torsions:
REMARK  status: ('A' for Active; 'I' for Inactive)
REMARK    1  A    between atoms: C_1  and  C_2
REMARK    2  A    between atoms: C_2  and  C_3
REMARK    3  A    between atoms: C_3  and  N_4
REMARK    4  A    between atoms: C_5  and  C_37
REMARK    5  A    between atoms: C_6  and  C_32
REMARK    6  A    between atoms: C_7  and  C_12
REMARK    7  A    between atoms: C_15  and  N_18
REMARK    8  A    between atoms: N_21  and  C_22
REMARK    9  A    between atoms: C_25  and  C_28
REMARK   10  A    between atoms: C_32  and  O_34
REMARK   11  A    between atoms: O_34  and  C_35
REMARK   12  A    between atoms: C_35  and  C_36
REMARK                            x       y       z     vdW  Elec       q    Type
REMARK                         _______ _______ _______ _____ _____    ______ ____
ROOT
ATOM      1  C   UNL     1       0.373  -5.585  -0.086  0.00  0.00    -0.022 A 
ATOM      2  C   UNL     1      -0.362  -5.026   0.943  0.00  0.00    +0.007 A 
ATOM      3  C   UNL     1      -0.739  -5.799   2.024  0.00  0.00    +0.024 A 
ATOM      4  C   UNL     1      -0.379  -7.139   2.077  0.00  0.00    +0.035 A 
ATOM      5  C   UNL     1       0.359  -7.698   1.042  0.00  0.00    +0.024 A 
ATOM      6  C   UNL     1       0.728  -6.921  -0.039  0.00  0.00    +0.007 A 
ENDROOT
BRANCH   1  10
ATOM      7  N   UNL     1       0.778  -1.975  -1.364  0.00  0.00    -0.259 N 
ATOM      8  C   UNL     1       1.921  -2.589  -0.937  0.00  0.00    +0.024 C 
ATOM      9  C   UNL     1       2.002  -3.935  -0.860  0.00  0.00    +0.078 C 
ATOM     10  C   UNL     1       0.783  -4.739  -1.264  0.00  0.00    +0.143 C 
ATOM     11  N   UNL     1      -0.399  -3.982  -1.710  0.00  0.00    -0.288 N 
ATOM     12  C   UNL     1      -0.328  -2.636  -1.728  0.00  0.00    +0.307 C 
ATOM     13  O   UNL     1      -1.299  -2.001  -2.091  0.00  0.00    -0.252 OA
ATOM     14  C   UNL     1       3.110  -1.752  -0.544  0.00  0.00    +0.061 C 
ATOM     15  H   UNL     1      -1.209  -4.440  -1.981  0.00  0.00    +0.151 HD
BRANCH   9  16
ATOM     16  C   UNL     1       3.185  -4.572  -0.418  0.00  0.00    +0.339 C 
ATOM     17  O   UNL     1       4.152  -3.907  -0.099  0.00  0.00    -0.245 OA
BRANCH  16  18
ATOM     18  O   UNL     1       3.241  -5.919  -0.350  0.00  0.00    -0.462 OA
BRANCH  18  19
ATOM     19  C   UNL     1       4.466  -6.495   0.105  0.00  0.00    +0.229 C 
ATOM     20  C   UNL     1       4.341  -8.020   0.115  0.00  0.00    +0.048 C 
ENDBRANCH  18  19
ENDBRANCH  16  18
ENDBRANCH   9  16
BRANCH   7  21
ATOM     21  C   UNL     1       0.761  -0.512  -1.423  0.00  0.00    +0.114 C 
BRANCH  21  23
ATOM     22  C   UNL     1       1.348   1.482  -2.810  0.00  0.00    +0.005 C 
ATOM     23  C   UNL     1       1.367  -0.047  -2.749  0.00  0.00    +0.016 C 
ENDBRANCH  21  23
ENDBRANCH   7  21
ENDBRANCH   1  10
BRANCH   4  24
ATOM     24  N   UNL     1      -0.758  -7.925   3.171  0.00  0.00    -0.269 N 
ATOM     25  C   UNL     1      -1.946  -7.714   3.772  0.00  0.00    +0.308 C 
ATOM     26  O   UNL     1      -2.652  -6.790   3.416  0.00  0.00    -0.252 OA
ATOM     27  N   UNL     1      -2.352  -8.527   4.767  0.00  0.00    -0.269 N 
ATOM     28  H   UNL     1      -0.167  -8.621   3.497  0.00  0.00    +0.156 HD
ATOM     29  H   UNL     1      -1.756  -9.213   5.106  0.00  0.00    +0.156 HD
BRANCH  27  30
ATOM     30  C   UNL     1      -3.632  -8.382   5.312  0.00  0.00    +0.035 A 
ATOM     31  C   UNL     1      -4.695  -8.007   4.501  0.00  0.00    +0.024 A 
ATOM     32  C   UNL     1      -5.958  -7.864   5.041  0.00  0.00    +0.014 A 
ATOM     33  C   UNL     1      -6.165  -8.093   6.389  0.00  0.00    +0.055 A 
ATOM     34  C   UNL     1      -5.108  -8.466   7.200  0.00  0.00    +0.014 A 
ATOM     35  C   UNL     1      -3.844  -8.617   6.664  0.00  0.00    +0.024 A 
BRANCH  33  36
ATOM     36  C   UNL     1      -7.544  -7.936   6.976  0.00  0.00    +0.417 C 
ATOM     37  F   UNL     1      -8.223  -9.157   6.902  0.00  0.00    -0.166 F 
ATOM     38  F   UNL     1      -7.439  -7.541   8.314  0.00  0.00    -0.166 F 
ATOM     39  F   UNL     1      -8.249  -6.966   6.257  0.00  0.00    -0.166 F 
ENDBRANCH  33  36
ENDBRANCH  27  30
ENDBRANCH   4  24
TORSDOF 9
