REMARK  Name = ZINC12877290
REMARK  6 active torsions:
REMARK  status: ('A' for Active; 'I' for Inactive)
REMARK    1  A    between atoms: C_1  and  C_2
REMARK    2  A    between atoms: C_7  and  N_8
REMARK    3  A    between atoms: C_13  and  C_29
REMARK    4  A    between atoms: C_29  and  C_30
REMARK    5  A    between atoms: C_30  and  S_31
REMARK    6  A    between atoms: S_31  and  C_32
REMARK                            x       y       z     vdW  Elec       q    Type
REMARK                         _______ _______ _______ _____ _____    ______ ____
ROOT
ATOM      1  N   UNL     1      -1.240   2.070   0.019  0.00  0.00    -0.210 N 
ATOM      2  C   UNL     1      -1.873   2.435  -1.101  0.00  0.00    +0.228 C 
ATOM      3  O   UNL     1      -1.479   2.226  -2.228  0.00  0.00    -0.275 OA
ATOM      4  C   UNL     1      -3.158   3.145  -0.743  0.00  0.00    +0.073 C 
ATOM      5  C   UNL     1      -3.035   4.652  -1.124  0.00  0.00    -0.057 C 
ATOM      6  C   UNL     1      -3.024   4.620   1.212  0.00  0.00    +0.050 C 
ATOM      7  C   UNL     1      -3.148   3.144   0.811  0.00  0.00    +0.088 C 
ATOM      8  C   UNL     1      -1.865   2.418   1.150  0.00  0.00    +0.229 C 
ATOM      9  O   UNL     1      -1.466   2.187   2.271  0.00  0.00    -0.275 OA
ATOM     10  C   UNL     1      -4.363   5.212   1.551  0.00  0.00    -0.028 A 
ATOM     11  C   UNL     1      -5.536   5.367   0.847  0.00  0.00    +0.004 A 
ATOM     12  C   UNL     1      -6.629   5.967   1.448  0.00  0.00    +0.000 A 
ATOM     13  C   UNL     1      -6.540   6.409   2.755  0.00  0.00    +0.002 A 
ATOM     14  C   UNL     1      -5.366   6.256   3.463  0.00  0.00    +0.023 A 
ATOM     15  C   UNL     1      -4.261   5.654   2.867  0.00  0.00    +0.036 A 
ATOM     16  N   UNL     1      -2.984   5.390   3.367  0.00  0.00    -0.286 N 
ATOM     17  C   UNL     1      -2.197   4.785   2.457  0.00  0.00    +0.211 C 
ATOM     18  O   UNL     1      -1.044   4.440   2.611  0.00  0.00    -0.277 OA
ATOM     19  H   UNL     1      -2.697   5.616   4.266  0.00  0.00    +0.155 HD
ATOM     20  N   UNL     1      -2.434   5.274   0.058  0.00  0.00    +0.394 N 
ATOM     21  H   UNL     1      -2.642   6.279   0.074  0.00  0.00    -0.083 HD
ATOM     22  H   UNL     1      -1.416   5.136   0.053  0.00  0.00    -0.083 HD
ENDROOT
BRANCH   1  29
ATOM     23  C   UNL     1       1.161   3.599   0.010  0.00  0.00    +0.045 C 
ATOM     24  C   UNL     1       1.177   2.092   0.002  0.00  0.00    -0.029 A 
ATOM     25  C   UNL     1       2.381   1.413  -0.013  0.00  0.00    +0.005 A 
ATOM     26  C   UNL     1       2.396   0.031  -0.021  0.00  0.00    +0.000 A 
ATOM     27  C   UNL     1       1.208  -0.677  -0.013  0.00  0.00    +0.002 A 
ATOM     28  C   UNL     1       0.002  -0.004   0.002  0.00  0.00    +0.024 A 
ATOM     29  C   UNL     1      -0.017   1.384   0.010  0.00  0.00    +0.047 A 
ENDBRANCH   1  29
BRANCH   5  30
ATOM     30  C   UNL     1      -2.144   4.819  -2.357  0.00  0.00    -0.004 C 
BRANCH  30  31
ATOM     31  C   UNL     1      -2.083   6.298  -2.745  0.00  0.00    +0.067 C 
BRANCH  31  32
ATOM     32  S   UNL     1      -1.028   6.496  -4.207  0.00  0.00    -0.164 S 
ATOM     33  C   UNL     1      -1.060   8.280  -4.532  0.00  0.00    +0.084 C 
ENDBRANCH  31  32
ENDBRANCH  30  31
ENDBRANCH   5  30
TORSDOF 4
