REMARK  Name = ZINC41604913
REMARK  9 active torsions:
REMARK  status: ('A' for Active; 'I' for Inactive)
REMARK    1  A    between atoms: C_1  and  C_2
REMARK    2  A    between atoms: N_5  and  C_8
REMARK    3  A    between atoms: C_8  and  C_9
REMARK    4  A    between atoms: C_12  and  N_15
REMARK    5  A    between atoms: C_22  and  C_24
REMARK    6  A    between atoms: C_24  and  S_25
REMARK    7  A    between atoms: S_25  and  C_26
REMARK    8  A    between atoms: C_26  and  C_27
REMARK    9  A    between atoms: C_26  and  C_28
REMARK                            x       y       z     vdW  Elec       q    Type
REMARK                         _______ _______ _______ _____ _____    ______ ____
ROOT
ATOM      1  C   UNL     1      -0.539  -4.918   2.799  0.00  0.00    -0.064 A 
ATOM      2  C   UNL     1       0.842  -4.987   2.790  0.00  0.00    +0.003 A 
ATOM      3  C   UNL     1       1.533  -5.201   3.966  0.00  0.00    +0.023 A 
ATOM      4  C   UNL     1       0.839  -5.347   5.160  0.00  0.00    +0.034 A 
ATOM      5  C   UNL     1      -0.548  -5.278   5.167  0.00  0.00    +0.023 A 
ATOM      6  C   UNL     1      -1.233  -5.059   3.987  0.00  0.00    +0.003 A 
ENDROOT
BRANCH   4   7
ATOM      7  N   UNL     1       1.535  -5.565   6.353  0.00  0.00    -0.285 N 
ATOM      8  C   UNL     1       1.052  -5.057   7.531  0.00  0.00    +0.200 A 
ATOM      9  N   UNL     1       1.677  -5.367   8.700  0.00  0.00    -0.295 N 
ATOM     10  H   UNL     1       2.457  -5.944   8.696  0.00  0.00    +0.172 HD
ATOM     11  C   UNL     1       1.208  -4.870   9.864  0.00  0.00    +0.253 A 
ATOM     12  O   UNL     1       1.756  -5.138  10.920  0.00  0.00    -0.268 OA
ATOM     13  C   UNL     1       0.075  -4.037   9.835  0.00  0.00    +0.094 A 
ATOM     14  C   UNL     1      -0.510  -3.761   8.633  0.00  0.00    +0.060 A 
ATOM     15  N   UNL     1      -0.006  -4.271   7.512  0.00  0.00    -0.220 NA
ATOM     16  H   UNL     1       2.360  -6.075   6.348  0.00  0.00    +0.155 HD
BRANCH  14  17
ATOM     17  C   UNL     1      -1.725  -2.871   8.575  0.00  0.00    +0.125 C 
BRANCH  17  18
ATOM     18  S   UNL     1      -1.250  -1.239   7.941  0.00  0.00    -0.152 S 
BRANCH  18  19
ATOM     19  C   UNL     1      -2.804  -0.302   7.933  0.00  0.00    +0.041 C 
ATOM     20  C   UNL     1      -3.297  -0.121   9.370  0.00  0.00    +0.018 C 
ATOM     21  C   UNL     1      -2.568   1.069   7.298  0.00  0.00    +0.018 C 
ENDBRANCH  18  19
ENDBRANCH  17  18
ENDBRANCH  14  17
ENDBRANCH   4   7
BRANCH   1  22
ATOM     22  C   UNL     1      -1.289  -4.684   1.514  0.00  0.00    -0.043 C 
BRANCH  22  27
ATOM     23  C   UNL     1      -1.428   0.707  -0.341  0.00  0.00    +0.007 C 
ATOM     24  C   UNL     1      -1.195  -0.802  -0.240  0.00  0.00    -0.018 C 
ATOM     25  C   UNL     1      -2.538  -1.517  -0.066  0.00  0.00    -0.016 C 
ATOM     26  C   UNL     1      -2.291  -3.017   0.113  0.00  0.00    -0.078 C 
ATOM     27  N   UNL     1      -1.458  -3.241   1.301  0.00  0.00    +0.382 N 
ATOM     28  C   UNL     1      -0.143  -2.618   1.111  0.00  0.00    -0.078 C 
ATOM     29  C   UNL     1      -0.306  -1.103   0.970  0.00  0.00    -0.016 C 
ATOM     30  H   UNL     1      -1.908  -2.834   2.108  0.00  0.00    -0.081 HD
ENDBRANCH  22  27
ENDBRANCH   1  22
TORSDOF 6
