REMARK  Name = ZINC43548579
REMARK  13 active torsions:
REMARK  status: ('A' for Active; 'I' for Inactive)
REMARK    1  A    between atoms: C_1  and  C_2
REMARK    2  A    between atoms: C_2  and  C_3
REMARK    3  A    between atoms: C_3  and  C_4
REMARK    4  A    between atoms: C_4  and  N_5
REMARK    5  A    between atoms: C_12  and  C_35
REMARK    6  A    between atoms: C_15  and  C_25
REMARK    7  A    between atoms: C_17  and  O_24
REMARK    8  A    between atoms: C_21  and  C_23
REMARK    9  A    between atoms: C_25  and  C_27
REMARK   10  A    between atoms: C_25  and  C_28
REMARK   11  A    between atoms: N_30  and  C_31
REMARK   12  A    between atoms: N_30  and  C_32
REMARK   13  A    between atoms: C_32  and  C_33
REMARK                            x       y       z     vdW  Elec       q    Type
REMARK                         _______ _______ _______ _____ _____    ______ ____
ROOT
ATOM      1  N   UNL     1       0.971  -1.344  -1.614  0.00  0.00    -0.325 N 
ATOM      2  C   UNL     1       1.071  -2.725  -1.690  0.00  0.00    +0.136 A 
ATOM      3  N   UNL     1       1.847  -3.446  -2.469  0.00  0.00    -0.340 N 
ATOM      4  C   UNL     1       1.837  -4.777  -2.433  0.00  0.00    +0.031 A 
ATOM      5  C   UNL     1       0.971  -5.318  -1.540  0.00  0.00    +0.013 A 
ATOM      6  S   UNL     1       0.233  -3.886  -0.803  0.00  0.00    -0.059 S 
ATOM      7  C   UNL     1       0.727  -6.761  -1.266  0.00  0.00    +0.051 C 
ATOM      8  C   UNL     1       1.879  -7.580  -1.878  0.00  0.00    -0.022 C 
ATOM      9  C   UNL     1       1.427  -9.046  -1.956  0.00  0.00    +0.008 C 
ATOM     10  C   UNL     1       0.120  -9.121  -2.748  0.00  0.00    +0.007 C 
ATOM     11  C   UNL     1       0.339  -8.584  -4.163  0.00  0.00    +0.029 C 
ATOM     12  C   UNL     1       0.827  -7.135  -4.097  0.00  0.00    +0.123 C 
ATOM     13  C   UNL     1       2.133  -7.084  -3.305  0.00  0.00    +0.033 C 
ATOM     14  C   UNL     1       2.709  -5.672  -3.301  0.00  0.00    +0.039 C 
ATOM     15  C   UNL     1       4.131  -5.702  -2.737  0.00  0.00    +0.014 C 
ATOM     16  C   UNL     1       3.144  -7.442  -1.029  0.00  0.00    +0.012 C 
ATOM     17  H   UNL     1       1.518  -0.786  -2.189  0.00  0.00    +0.148 HD
ATOM     18  H   UNL     1       2.444  -2.997  -3.087  0.00  0.00    +0.167 HD
ENDROOT
BRANCH  12  19
ATOM     19  O   UNL     1       1.050  -6.644  -5.421  0.00  0.00    -0.391 OA
ATOM     20  H   UNL     1       0.247  -6.577  -5.955  0.00  0.00    +0.210 HD
ENDBRANCH  12  19
BRANCH  11  21
ATOM     21  C   UNL     1      -0.980  -8.641  -4.938  0.00  0.00    +0.078 C 
ATOM     22  C   UNL     1      -2.022  -7.768  -4.236  0.00  0.00    +0.017 C 
BRANCH  21  23
ATOM     23  C   UNL     1      -1.470 -10.065  -4.991  0.00  0.00    +0.219 C 
ATOM     24  O   UNL     1      -2.284 -10.456  -4.182  0.00  0.00    -0.275 OA
ATOM     25  N   UNL     1      -1.004 -10.903  -5.938  0.00  0.00    -0.301 N 
ATOM     26  C   UNL     1       0.047 -10.459  -6.857  0.00  0.00    +0.132 C 
BRANCH  25  27
ATOM     27  C   UNL     1      -1.550 -12.259  -6.049  0.00  0.00    +0.134 C 
BRANCH  27  28
ATOM     28  C   UNL     1      -2.726 -12.252  -6.991  0.00  0.00    -0.016 C 
ATOM     29  C   UNL     1      -2.744 -13.059  -8.023  0.00  0.00    +0.005 C 
ENDBRANCH  27  28
ENDBRANCH  25  27
ENDBRANCH  21  23
ENDBRANCH  11  21
BRANCH   1  30
ATOM     30  C   UNL     1       0.040  -0.728  -0.666  0.00  0.00    +0.103 C 
BRANCH  30  31
ATOM     31  C   UNL     1       0.125   0.795  -0.783  0.00  0.00    +0.018 C 
BRANCH  31  33
ATOM     32  C   UNL     1      -0.762   2.961   0.089  0.00  0.00    +0.004 C 
ATOM     33  C   UNL     1      -0.848   1.438   0.207  0.00  0.00    -0.002 C 
ENDBRANCH  31  33
ENDBRANCH  30  31
ENDBRANCH   1  30
TORSDOF 8
