REMARK  Name = ZINC06821937
REMARK  16 active torsions:
REMARK  status: ('A' for Active; 'I' for Inactive)
REMARK    1  A    between atoms: C_1  and  C_2
REMARK    2  A    between atoms: C_2  and  C_3
REMARK    3  A    between atoms: C_6  and  N_9
REMARK    4  A    between atoms: N_9  and  C_10
REMARK    5  A    between atoms: C_10  and  C_12
REMARK    6  A    between atoms: C_10  and  C_16
REMARK    7  A    between atoms: C_12  and  C_13
REMARK    8  A    between atoms: C_13  and  C_14
REMARK    9  A    between atoms: C_13  and  C_15
REMARK   10  A    between atoms: N_18  and  C_19
REMARK   11  A    between atoms: C_19  and  C_20
REMARK   12  A    between atoms: C_19  and  C_21
REMARK   13  A    between atoms: C_19  and  C_22
REMARK   14  A    between atoms: C_23  and  C_25
REMARK   15  A    between atoms: C_26  and  N_33
REMARK   16  A    between atoms: C_27  and  C_30
REMARK                            x       y       z     vdW  Elec       q    Type
REMARK                         _______ _______ _______ _____ _____    ______ ____
ROOT
ATOM      1  N   UNL     1      -2.303   3.151   5.162  0.00  0.00    -0.255 N 
ATOM      2  C   UNL     1      -3.157   2.109   5.161  0.00  0.00    +0.261 C 
ATOM      3  O   UNL     1      -3.254   1.401   4.175  0.00  0.00    -0.269 OA
ENDROOT
BRANCH   1   7
ATOM      4  C   UNL     1      -0.302   4.205   1.664  0.00  0.00    -0.048 A 
ATOM      5  C   UNL     1      -0.172   4.988   2.796  0.00  0.00    +0.005 A 
ATOM      6  C   UNL     1      -0.838   4.644   3.956  0.00  0.00    +0.024 A 
ATOM      7  C   UNL     1      -1.631   3.505   3.987  0.00  0.00    +0.037 A 
ATOM      8  C   UNL     1      -1.756   2.718   2.850  0.00  0.00    +0.024 A 
ATOM      9  C   UNL     1      -1.092   3.070   1.692  0.00  0.00    +0.005 A 
BRANCH   4  11
ATOM     10  C   UNL     1      -0.471   5.497  -0.446  0.00  0.00    +0.009 C 
ATOM     11  C   UNL     1       0.422   4.586   0.398  0.00  0.00    +0.032 C 
ENDBRANCH   4  11
ENDBRANCH   1   7
BRANCH   2  12
ATOM     12  C   UNL     1      -3.969   1.827   6.347  0.00  0.00    +0.116 A 
ATOM     13  C   UNL     1      -4.617   0.647   6.716  0.00  0.00    +0.076 A 
ATOM     14  C   UNL     1      -5.298   0.767   7.927  0.00  0.00    +0.155 A 
ATOM     15  N   UNL     1      -5.268   1.913   8.570  0.00  0.00    -0.203 NA
ATOM     16  S   UNL     1      -4.387   2.896   7.708  0.00  0.00    +0.019 S 
BRANCH  14  17
ATOM     17  C   UNL     1      -6.044  -0.378   8.479  0.00  0.00    +0.262 C 
ATOM     18  O   UNL     1      -6.068  -1.435   7.879  0.00  0.00    -0.269 OA
ATOM     19  N   UNL     1      -6.700  -0.253   9.650  0.00  0.00    -0.324 N 
ATOM     20  H   UNL     1      -6.681   0.590  10.129  0.00  0.00    +0.145 HD
ATOM     21  H   UNL     1      -7.191  -1.007  10.014  0.00  0.00    +0.145 HD
ENDBRANCH  14  17
BRANCH  13  22
ATOM     22  N   UNL     1      -4.586  -0.518   5.961  0.00  0.00    -0.355 N 
ATOM     23  H   UNL     1      -4.095  -0.542   5.125  0.00  0.00    +0.142 HD
ATOM     24  H   UNL     1      -5.057  -1.309   6.269  0.00  0.00    +0.142 HD
ENDBRANCH  13  22
ENDBRANCH   2  12
BRANCH   1  25
ATOM     25  C   UNL     1      -2.077   3.913   6.393  0.00  0.00    +0.168 C 
BRANCH  25  26
ATOM     26  C   UNL     1      -2.587   5.320   6.213  0.00  0.00    +0.234 C 
ATOM     27  O   UNL     1      -2.902   5.714   5.110  0.00  0.00    -0.274 OA
ATOM     28  N   UNL     1      -2.693   6.139   7.278  0.00  0.00    -0.309 N 
ATOM     29  H   UNL     1      -2.441   5.823   8.159  0.00  0.00    +0.149 HD
BRANCH  28  30
ATOM     30  C   UNL     1      -3.188   7.507   7.103  0.00  0.00    +0.026 C 
ATOM     31  C   UNL     1      -4.604   7.466   6.526  0.00  0.00    +0.031 C 
ATOM     32  C   UNL     1      -3.209   8.218   8.457  0.00  0.00    +0.031 C 
ATOM     33  C   UNL     1      -2.268   8.264   6.144  0.00  0.00    +0.031 C 
ENDBRANCH  28  30
ENDBRANCH  25  26
BRANCH  25  34
ATOM     34  C   UNL     1      -0.580   3.949   6.703  0.00  0.00    +0.035 C 
BRANCH  34  35
ATOM     35  C   UNL     1      -0.101   2.543   7.071  0.00  0.00    -0.015 C 
ATOM     36  C   UNL     1       1.422   2.542   7.210  0.00  0.00    +0.007 C 
ATOM     37  C   UNL     1      -0.735   2.119   8.398  0.00  0.00    +0.007 C 
ENDBRANCH  34  35
ENDBRANCH  25  34
ENDBRANCH   1  25
TORSDOF 10
