REMARK  Name = ZINC50004170
REMARK  7 active torsions:
REMARK  status: ('A' for Active; 'I' for Inactive)
REMARK    1  A    between atoms: C_1  and  C_2
REMARK    2  A    between atoms: C_2  and  N_3
REMARK    3  A    between atoms: C_9  and  C_15
REMARK    4  A    between atoms: N_17  and  C_18
REMARK    5  A    between atoms: C_18  and  C_19
REMARK    6  A    between atoms: C_24  and  C_25
REMARK    7  A    between atoms: C_25  and  O_26
REMARK                            x       y       z     vdW  Elec       q    Type
REMARK                         _______ _______ _______ _____ _____    ______ ____
ROOT
ATOM      1  N   UNL     1      -1.372  -0.511   0.012  0.00  0.00    -0.287 N 
ATOM      2  C   UNL     1      -1.988  -0.743   1.192  0.00  0.00    +0.262 A 
ATOM      3  O   UNL     1      -1.356  -0.513   2.356  0.00  0.00    -0.267 OA
ATOM      4  C   UNL     1      -3.312  -1.231   1.172  0.00  0.00    +0.065 A 
ATOM      5  C   UNL     1      -4.016  -1.495   2.355  0.00  0.00    +0.016 A 
ATOM      6  C   UNL     1      -5.292  -1.965   2.295  0.00  0.00    +0.014 A 
ATOM      7  C   UNL     1      -5.917  -2.191   1.059  0.00  0.00    +0.039 A 
ATOM      8  C   UNL     1      -5.247  -1.940  -0.127  0.00  0.00    +0.041 A 
ATOM      9  C   UNL     1      -3.931  -1.455  -0.086  0.00  0.00    +0.080 A 
ATOM     10  N   UNL     1      -3.244  -1.197  -1.208  0.00  0.00    -0.222 NA
ATOM     11  C   UNL     1      -2.005  -0.734  -1.151  0.00  0.00    +0.183 A 
ATOM     12  S   UNL     1      -1.176  -0.415  -2.615  0.00  0.00    -0.011 S 
ENDROOT
BRANCH   7  13
ATOM     13  C   UNL     1      -7.306  -2.703   1.022  0.00  0.00    +0.244 C 
ATOM     14  O   UNL     1      -7.853  -2.901  -0.046  0.00  0.00    -0.270 OA
ATOM     15  N   UNL     1      -7.964  -2.951   2.171  0.00  0.00    -0.307 N 
ATOM     16  H   UNL     1      -7.528  -2.793   3.023  0.00  0.00    +0.149 HD
BRANCH  15  17
ATOM     17  C   UNL     1      -9.338  -3.458   2.135  0.00  0.00    +0.140 C 
BRANCH  17  18
ATOM     18  C   UNL     1      -9.841  -3.648   3.543  0.00  0.00    -0.025 A 
ATOM     19  C   UNL     1      -9.841  -4.908   4.112  0.00  0.00    +0.005 A 
ATOM     20  C   UNL     1     -10.302  -5.083   5.403  0.00  0.00    +0.000 A 
ATOM     21  C   UNL     1     -10.763  -3.998   6.125  0.00  0.00    +0.000 A 
ATOM     22  C   UNL     1     -10.763  -2.739   5.557  0.00  0.00    +0.006 A 
ATOM     23  C   UNL     1     -10.297  -2.563   4.267  0.00  0.00    -0.018 A 
BRANCH  23  24
ATOM     24  C   UNL     1     -10.292  -1.189   3.648  0.00  0.00    +0.191 C 
BRANCH  24  25
ATOM     25  O   UNL     1     -10.807  -0.242   4.587  0.00  0.00    -0.390 OA
ATOM     26  H   UNL     1     -10.833   0.666   4.255  0.00  0.00    +0.210 HD
ENDBRANCH  24  25
ENDBRANCH  23  24
ENDBRANCH  17  18
ENDBRANCH  15  17
ENDBRANCH   7  13
BRANCH   1  28
ATOM     27  C   UNL     1      -0.019   1.526   0.010  0.00  0.00    +0.027 C 
ATOM     28  C   UNL     1       0.002  -0.004   0.002  0.00  0.00    +0.124 C 
ENDBRANCH   1  28
TORSDOF 6
