REMARK  Name = ZINC64697202
REMARK  10 active torsions:
REMARK  status: ('A' for Active; 'I' for Inactive)
REMARK    1  A    between atoms: C_1  and  C_2
REMARK    2  A    between atoms: C_2  and  O_3
REMARK    3  A    between atoms: O_3  and  C_4
REMARK    4  A    between atoms: C_5  and  O_28
REMARK    5  A    between atoms: C_7  and  C_12
REMARK    6  A    between atoms: C_9  and  O_10
REMARK    7  A    between atoms: O_10  and  C_11
REMARK    8  A    between atoms: C_12  and  N_13
REMARK    9  A    between atoms: N_16  and  C_17
REMARK   10  A    between atoms: O_28  and  C_29
REMARK                            x       y       z     vdW  Elec       q    Type
REMARK                         _______ _______ _______ _____ _____    ______ ____
ROOT
ATOM      1  N   UNL     1      -0.689  -6.748  -0.027  0.00  0.00    -0.295 N 
ATOM      2  C   UNL     1      -0.600  -8.092  -0.026  0.00  0.00    +0.304 C 
ATOM      3  O   UNL     1      -1.611  -8.768  -0.015  0.00  0.00    -0.252 OA
ATOM      4  N   UNL     1       0.608  -8.689  -0.036  0.00  0.00    -0.269 N 
ATOM      5  H   UNL     1       0.118  -6.209  -0.035  0.00  0.00    +0.151 HD
ATOM      6  H   UNL     1       1.413  -8.152  -0.112  0.00  0.00    +0.156 HD
ENDROOT
BRANCH   4   7
ATOM      7  C   UNL     1       0.703 -10.083   0.063  0.00  0.00    +0.035 A 
ATOM      8  C   UNL     1       1.758 -10.660   0.757  0.00  0.00    +0.025 A 
ATOM      9  C   UNL     1       1.851 -12.034   0.855  0.00  0.00    +0.025 A 
ATOM     10  C   UNL     1       0.889 -12.839   0.259  0.00  0.00    +0.037 A 
ATOM     11  C   UNL     1      -0.166 -12.262  -0.435  0.00  0.00    -0.024 A 
ATOM     12  C   UNL     1      -0.262 -10.888  -0.528  0.00  0.00    +0.028 A 
ATOM     13  C   UNL     1      -1.209 -13.138  -1.079  0.00  0.00    +0.046 C 
ATOM     14  C   UNL     1      -0.555 -14.426  -1.580  0.00  0.00    +0.101 C 
ATOM     15  C   UNL     1       0.301 -15.022  -0.495  0.00  0.00    +0.218 C 
ATOM     16  O   UNL     1       0.379 -16.228  -0.387  0.00  0.00    -0.275 OA
ATOM     17  N   UNL     1       0.980 -14.233   0.357  0.00  0.00    -0.285 N 
ATOM     18  H   UNL     1       1.537 -14.632   1.044  0.00  0.00    +0.155 HD
ENDBRANCH   4   7
BRANCH   1  19
ATOM     19  C   UNL     1      -2.002  -6.100  -0.015  0.00  0.00    +0.141 C 
BRANCH  19  23
ATOM     20  C   UNL     1      -1.498  -1.850  -0.026  0.00  0.00    +0.204 A 
ATOM     21  C   UNL     1      -1.591  -2.543  -1.226  0.00  0.00    +0.165 A 
ATOM     22  C   UNL     1      -1.754  -3.920  -1.219  0.00  0.00    +0.054 A 
ATOM     23  C   UNL     1      -1.825  -4.603  -0.019  0.00  0.00    -0.023 A 
ATOM     24  C   UNL     1      -1.733  -3.917   1.177  0.00  0.00    +0.054 A 
ATOM     25  C   UNL     1      -1.563  -2.541   1.179  0.00  0.00    +0.165 A 
BRANCH  25  26
ATOM     26  O   UNL     1      -1.467  -1.868   2.356  0.00  0.00    -0.491 OA
ATOM     27  C   UNL     1      -1.542  -2.642   3.554  0.00  0.00    +0.277 C 
ENDBRANCH  25  26
BRANCH  21  28
ATOM     28  O   UNL     1      -1.523  -1.872  -2.407  0.00  0.00    -0.491 OA
ATOM     29  C   UNL     1      -1.626  -2.649  -3.602  0.00  0.00    +0.277 C 
ENDBRANCH  21  28
BRANCH  20  30
ATOM     30  O   UNL     1      -1.338  -0.498  -0.029  0.00  0.00    -0.485 OA
BRANCH  30  32
ATOM     31  C   UNL     1      -0.018   1.526  -0.049  0.00  0.00    +0.048 C 
ATOM     32  C   UNL     1       0.003  -0.004  -0.048  0.00  0.00    +0.226 C 
ENDBRANCH  30  32
ENDBRANCH  20  30
ENDBRANCH  19  23
ENDBRANCH   1  19
TORSDOF 7
