REMARK  Name = ZINC35356159
REMARK  4 active torsions:
REMARK  status: ('A' for Active; 'I' for Inactive)
REMARK    1  A    between atoms: C_5  and  O_8
REMARK    2  A    between atoms: C_6  and  N_7
REMARK    3  A    between atoms: O_8  and  C_9
REMARK    4  A    between atoms: C_9  and  C_10
REMARK                            x       y       z     vdW  Elec       q    Type
REMARK                         _______ _______ _______ _____ _____    ______ ____
ROOT
ATOM      1  C   UNL     1      -0.017   1.383   0.010  0.00  0.00    +0.032 A 
ATOM      2  C   UNL     1       1.170   2.091   0.002  0.00  0.00    -0.024 A 
ATOM      3  C   UNL     1       2.383   1.416  -0.013  0.00  0.00    +0.040 A 
ATOM      4  C   UNL     1       2.406   0.028  -0.021  0.00  0.00    +0.071 A 
ATOM      5  C   UNL     1       1.219  -0.683  -0.013  0.00  0.00    +0.143 A 
ATOM      6  C   UNL     1       0.002  -0.004   0.002  0.00  0.00    +0.067 A 
ATOM      7  N   UNL     1       3.584   2.138  -0.021  0.00  0.00    -0.285 N 
ATOM      8  C   UNL     1       3.604   3.430   0.356  0.00  0.00    +0.218 C 
ATOM      9  O   UNL     1       4.650   4.045   0.331  0.00  0.00    -0.275 OA
ATOM     10  C   UNL     1       2.346   4.120   0.808  0.00  0.00    +0.101 C 
ATOM     11  C   UNL     1       1.151   3.597   0.010  0.00  0.00    +0.046 C 
ATOM     12  H   UNL     1       4.405   1.704  -0.299  0.00  0.00    +0.155 HD
ENDROOT
BRANCH   6  13
ATOM     13  N   UNL     1      -1.202  -0.722   0.010  0.00  0.00    -0.355 N 
ATOM     14  H   UNL     1      -2.049  -0.249   0.020  0.00  0.00    +0.142 HD
ATOM     15  H   UNL     1      -1.188  -1.692   0.004  0.00  0.00    +0.142 HD
ENDBRANCH   6  13
BRANCH   5  16
ATOM     16  O   UNL     1       1.239  -2.043  -0.021  0.00  0.00    -0.488 OA
BRANCH  16  17
ATOM     17  C   UNL     1       2.522  -2.673  -0.037  0.00  0.00    +0.260 C 
BRANCH  17  18
ATOM     18  C   UNL     1       2.344  -4.192  -0.044  0.00  0.00    +0.156 C 
ATOM     19  C   UNL     1       3.722  -4.881   0.060  0.00  0.00    +0.037 C 
ATOM     20  C   UNL     1       3.562  -6.086  -0.907  0.00  0.00    +0.031 C 
ATOM     21  C   UNL     1       2.642  -5.472  -1.992  0.00  0.00    +0.160 C 
ATOM     22  O   UNL     1       1.743  -4.606  -1.276  0.00  0.00    -0.373 OA
ENDBRANCH  17  18
ENDBRANCH  16  17
ENDBRANCH   5  16
TORSDOF 4
