REMARK  Name = ZINC09937258
REMARK  9 active torsions:
REMARK  status: ('A' for Active; 'I' for Inactive)
REMARK    1  A    between atoms: C_1  and  C_2
REMARK    2  A    between atoms: C_5  and  N_9
REMARK    3  A    between atoms: C_6  and  C_8
REMARK    4  A    between atoms: C_10  and  C_12
REMARK    5  A    between atoms: C_13  and  C_36
REMARK    6  A    between atoms: C_17  and  C_18
REMARK    7  A    between atoms: C_23  and  N_35
REMARK    8  A    between atoms: C_24  and  C_26
REMARK    9  A    between atoms: N_28  and  C_29
REMARK                            x       y       z     vdW  Elec       q    Type
REMARK                         _______ _______ _______ _____ _____    ______ ____
ROOT
ATOM      1  C   UNL     1      -3.023   0.708   1.108  0.00  0.00    +0.069 A 
ATOM      2  C   UNL     1      -4.355   0.284   1.080  0.00  0.00    +0.052 A 
ATOM      3  N   UNL     1      -5.118   0.552   0.042  0.00  0.00    -0.244 NA
ATOM      4  C   UNL     1      -4.670   1.222  -1.003  0.00  0.00    +0.112 A 
ATOM      5  C   UNL     1      -3.347   1.708  -1.092  0.00  0.00    +0.040 A 
ATOM      6  C   UNL     1      -2.494   1.427   0.019  0.00  0.00    +0.043 A 
ATOM      7  C   UNL     1      -3.033   2.430  -2.312  0.00  0.00    +0.054 A 
ATOM      8  C   UNL     1      -4.027   2.582  -3.256  0.00  0.00    +0.097 A 
ATOM      9  S   UNL     1      -5.418   1.740  -2.529  0.00  0.00    -0.062 S 
ATOM     10  C   UNL     1      -4.921  -0.486   2.245  0.00  0.00    +0.066 C 
ENDROOT
BRANCH   6  11
ATOM     11  C   UNL     1      -1.097   1.882   0.028  0.00  0.00    +0.136 A 
ATOM     12  C   UNL     1       0.007   1.081   0.024  0.00  0.00    +0.050 A 
ATOM     13  C   UNL     1       1.125   1.933   0.029  0.00  0.00    +0.042 A 
ATOM     14  C   UNL     1       0.658   3.200   0.041  0.00  0.00    +0.196 A 
ATOM     15  O   UNL     1      -0.683   3.165   0.044  0.00  0.00    -0.463 OA
ENDBRANCH   6  11
BRANCH   1  17
ATOM     16  N   UNL     1      -1.459  -0.736   2.306  0.00  0.00    -0.281 N 
ATOM     17  C   UNL     1      -2.176   0.405   2.273  0.00  0.00    +0.251 C 
ATOM     18  O   UNL     1      -2.124   1.183   3.206  0.00  0.00    -0.270 OA
ATOM     19  H   UNL     1      -1.561  -1.393   1.600  0.00  0.00    +0.155 HD
BRANCH  16  24
ATOM     20  C   UNL     1       2.157  -1.689   6.571  0.00  0.00    +0.044 C 
ATOM     21  C   UNL     1       1.197  -1.435   5.438  0.00  0.00    -0.050 A 
ATOM     22  C   UNL     1       0.857  -0.139   5.098  0.00  0.00    +0.005 A 
ATOM     23  C   UNL     1      -0.023   0.097   4.060  0.00  0.00    +0.024 A 
ATOM     24  C   UNL     1      -0.567  -0.971   3.357  0.00  0.00    +0.037 A 
ATOM     25  C   UNL     1      -0.227  -2.272   3.703  0.00  0.00    -0.029 A 
ATOM     26  C   UNL     1       0.657  -2.500   4.740  0.00  0.00    +0.008 A 
ATOM     27  C   UNL     1      -0.819  -3.433   2.947  0.00  0.00    +0.045 C 
ENDBRANCH  16  24
ENDBRANCH   1  17
BRANCH   8  28
ATOM     28  C   UNL     1      -3.955   3.241  -4.508  0.00  0.00    +0.253 C 
ATOM     29  O   UNL     1      -2.914   3.764  -4.862  0.00  0.00    -0.270 OA
ATOM     30  N   UNL     1      -5.039   3.289  -5.307  0.00  0.00    -0.308 N 
ATOM     31  H   UNL     1      -5.869   2.873  -5.025  0.00  0.00    +0.149 HD
BRANCH  30  32
ATOM     32  C   UNL     1      -4.965   3.971  -6.602  0.00  0.00    +0.073 C 
ATOM     33  C   UNL     1      -5.224   5.466  -6.407  0.00  0.00    +0.022 C 
ATOM     34  C   UNL     1      -5.146   6.178  -7.759  0.00  0.00    +0.002 C 
ATOM     35  C   UNL     1      -6.201   5.596  -8.703  0.00  0.00    +0.000 C 
ATOM     36  C   UNL     1      -5.942   4.101  -8.898  0.00  0.00    +0.002 C 
ATOM     37  C   UNL     1      -6.020   3.389  -7.545  0.00  0.00    +0.022 C 
ENDBRANCH  30  32
ENDBRANCH   8  28
BRANCH   7  38
ATOM     38  N   UNL     1      -1.765   2.955  -2.522  0.00  0.00    -0.356 N 
ATOM     39  H   UNL     1      -1.076   2.841  -1.849  0.00  0.00    +0.142 HD
ATOM     40  H   UNL     1      -1.569   3.435  -3.341  0.00  0.00    +0.142 HD
ENDBRANCH   7  38
TORSDOF 6
