REMARK  Name = ZINC13020982
REMARK  7 active torsions:
REMARK  status: ('A' for Active; 'I' for Inactive)
REMARK    1  A    between atoms: C_1  and  C_2
REMARK    2  A    between atoms: C_8  and  N_10
REMARK    3  A    between atoms: N_13  and  C_14
REMARK    4  A    between atoms: C_14  and  C_15
REMARK    5  A    between atoms: N_17  and  C_18
REMARK    6  A    between atoms: C_18  and  C_19
REMARK    7  A    between atoms: N_21  and  C_22
REMARK                            x       y       z     vdW  Elec       q    Type
REMARK                         _______ _______ _______ _____ _____    ______ ____
ROOT
ATOM      1  C   UNL     1      -0.747   1.578  -1.213  0.00  0.00    +0.231 C 
ATOM      2  O   UNL     1      -1.747   2.253  -1.089  0.00  0.00    -0.274 OA
ATOM      3  N   UNL     1      -0.290   1.270  -2.443  0.00  0.00    -0.305 N 
ATOM      4  H   UNL     1       0.509   0.730  -2.542  0.00  0.00    +0.149 HD
ENDROOT
BRANCH   1   5
ATOM      5  C   UNL     1      -0.016   1.082   0.008  0.00  0.00    +0.201 C 
BRANCH   5   9
ATOM      6  N   UNL     1      -0.865   1.651   3.540  0.00  0.00    -0.296 N 
ATOM      7  C   UNL     1      -0.229   1.223   2.431  0.00  0.00    +0.300 C 
ATOM      8  O   UNL     1       0.774   0.544   2.530  0.00  0.00    -0.253 OA
ATOM      9  N   UNL     1      -0.707   1.547   1.213  0.00  0.00    -0.291 N 
ATOM     10  H   UNL     1      -1.665   2.193   3.462  0.00  0.00    +0.151 HD
ATOM     11  H   UNL     1      -1.508   2.089   1.135  0.00  0.00    +0.151 HD
BRANCH   6  18
ATOM     12  C   UNL     1      -0.272   3.719   5.480  0.00  0.00    +0.009 C 
ATOM     13  C   UNL     1      -0.802   2.342   5.885  0.00  0.00    +0.006 C 
ATOM     14  C   UNL     1      -2.332   2.378   5.930  0.00  0.00    +0.005 C 
ATOM     15  C   UNL     1      -2.862   1.001   6.335  0.00  0.00    +0.000 C 
ATOM     16  C   UNL     1      -2.405  -0.043   5.314  0.00  0.00    +0.002 C 
ATOM     17  C   UNL     1      -0.876  -0.078   5.270  0.00  0.00    +0.022 C 
ATOM     18  C   UNL     1      -0.346   1.299   4.864  0.00  0.00    +0.077 C 
ENDBRANCH   6  18
ENDBRANCH   5   9
ENDBRANCH   1   5
BRANCH   3  19
ATOM     19  C   UNL     1      -1.001   1.752  -3.630  0.00  0.00    +0.200 C 
BRANCH  19  20
ATOM     20  C   UNL     1      -0.291   1.273  -4.870  0.00  0.00    +0.234 C 
ATOM     21  O   UNL     1       0.711   0.596  -4.771  0.00  0.00    -0.274 OA
ATOM     22  N   UNL     1      -0.768   1.597  -6.088  0.00  0.00    -0.284 N 
ATOM     23  H   UNL     1      -1.605   2.082  -6.168  0.00  0.00    +0.155 HD
BRANCH  22  24
ATOM     24  C   UNL     1      -0.056   1.235  -7.238  0.00  0.00    +0.034 A 
ATOM     25  C   UNL     1      -0.054   2.072  -8.346  0.00  0.00    +0.026 A 
ATOM     26  C   UNL     1       0.654   1.716  -9.477  0.00  0.00    +0.040 A 
ATOM     27  C   UNL     1       1.351   0.520  -9.511  0.00  0.00    +0.124 A 
ATOM     28  C   UNL     1       1.345  -0.318  -8.409  0.00  0.00    +0.040 A 
ATOM     29  C   UNL     1       0.644   0.037  -7.274  0.00  0.00    +0.026 A 
ATOM     30  F   UNL     1       2.038   0.171 -10.621  0.00  0.00    -0.205 F 
ENDBRANCH  22  24
ENDBRANCH  19  20
ENDBRANCH   3  19
TORSDOF 6
