REMARK  Name = ZINC20709564
REMARK  8 active torsions:
REMARK  status: ('A' for Active; 'I' for Inactive)
REMARK    1  A    between atoms: C_1  and  C_2
REMARK    2  A    between atoms: C_6  and  C_38
REMARK    3  A    between atoms: C_7  and  N_8
REMARK    4  A    between atoms: N_8  and  S_9
REMARK    5  A    between atoms: S_9  and  C_12
REMARK    6  A    between atoms: C_25  and  C_28
REMARK    7  A    between atoms: C_30  and  N_35
REMARK    8  A    between atoms: C_33  and  O_34
REMARK                            x       y       z     vdW  Elec       q    Type
REMARK                         _______ _______ _______ _____ _____    ______ ____
ROOT
ATOM      1  C   UNL     1      -0.517   4.418  -0.812  0.00  0.00    +0.109 A 
ATOM      2  C   UNL     1       0.517   3.724  -0.210  0.00  0.00    +0.030 A 
ATOM      3  C   UNL     1       1.062   4.195   0.968  0.00  0.00    +0.025 A 
ATOM      4  C   UNL     1       0.572   5.360   1.544  0.00  0.00    +0.031 A 
ATOM      5  C   UNL     1      -0.463   6.060   0.943  0.00  0.00    -0.018 A 
ATOM      6  C   UNL     1      -1.000   5.579  -0.243  0.00  0.00    +0.034 A 
ATOM      7  C   UNL     1      -1.020   7.321   1.523  0.00  0.00    +0.049 C 
ATOM      8  C   UNL     1      -2.364   7.085   2.169  0.00  0.00    -0.023 C 
ATOM      9  C   UNL     1      -2.489   7.829   3.241  0.00  0.00    -0.030 C 
ATOM     10  C   UNL     1      -1.243   8.667   3.454  0.00  0.00    +0.033 C 
ATOM     11  C   UNL     1      -0.149   7.897   2.657  0.00  0.00    +0.029 C 
ATOM     12  C   UNL     1       0.355   6.763   3.554  0.00  0.00    +0.108 C 
ATOM     13  N   UNL     1       1.131   5.822   2.740  0.00  0.00    -0.336 N 
ATOM     14  H   UNL     1       2.127   5.496   3.075  0.00  0.00    +0.147 HD
ENDROOT
BRANCH  12  15
ATOM     15  C   UNL     1      -0.819   6.049   4.174  0.00  0.00    +0.017 A 
ATOM     16  C   UNL     1      -1.505   5.092   3.452  0.00  0.00    +0.041 A 
ATOM     17  C   UNL     1      -2.579   4.433   4.022  0.00  0.00    +0.127 A 
ATOM     18  C   UNL     1      -2.976   4.739   5.311  0.00  0.00    +0.036 A 
ATOM     19  C   UNL     1      -2.296   5.699   6.035  0.00  0.00    +0.048 A 
ATOM     20  C   UNL     1      -1.215   6.357   5.467  0.00  0.00    +0.122 A 
BRANCH  17  21
ATOM     21  N   UNL     1      -3.308   3.403   3.249  0.00  0.00    +0.056 N 
ATOM     22  O   UNL     1      -4.241   2.808   3.757  0.00  0.00    -0.126 OA
ATOM     23  O   UNL     1      -2.976   3.152   2.104  0.00  0.00    -0.126 OA
ENDBRANCH  17  21
BRANCH  20  24
ATOM     24  O   UNL     1      -0.545   7.303   6.177  0.00  0.00    -0.506 OA
ATOM     25  H   UNL     1      -0.860   7.547   7.203  0.00  0.00    +0.292 HD
ENDBRANCH  20  24
ENDBRANCH  12  15
BRANCH   1  26
ATOM     26  S   UNL     1      -1.217   3.820  -2.314  0.00  0.00    +0.072 S 
ATOM     27  O   UNL     1      -0.158   3.761  -3.260  0.00  0.00    -0.150 OA
ATOM     28  O   UNL     1      -2.399   4.574  -2.540  0.00  0.00    -0.150 OA
BRANCH  26  29
ATOM     29  N   UNL     1      -1.696   2.258  -2.044  0.00  0.00    -0.216 N 
ATOM     30  H   UNL     1      -1.245   1.437  -2.620  0.00  0.00    +0.174 HD
BRANCH  29  37
ATOM     31  C   UNL     1      -0.860   1.180   0.452  0.00  0.00    +0.046 C 
ATOM     32  C   UNL     1      -2.310   1.457   0.148  0.00  0.00    -0.028 A 
ATOM     33  C   UNL     1      -3.278   1.191   1.097  0.00  0.00    +0.005 A 
ATOM     34  C   UNL     1      -4.609   1.440   0.817  0.00  0.00    +0.001 A 
ATOM     35  C   UNL     1      -4.975   1.960  -0.412  0.00  0.00    +0.005 A 
ATOM     36  C   UNL     1      -4.011   2.232  -1.363  0.00  0.00    -0.028 A 
ATOM     37  C   UNL     1      -2.673   1.984  -1.084  0.00  0.00    +0.054 A 
ATOM     38  C   UNL     1      -4.411   2.799  -2.700  0.00  0.00    +0.046 C 
ENDBRANCH  29  37
ENDBRANCH  26  29
ENDBRANCH   1  26
TORSDOF 6
