REMARK  Name = ZINC12633036
REMARK  8 active torsions:
REMARK  status: ('A' for Active; 'I' for Inactive)
REMARK    1  A    between atoms: C_4  and  N_7
REMARK    2  A    between atoms: C_8  and  C_27
REMARK    3  A    between atoms: C_11  and  S_12
REMARK    4  A    between atoms: S_12  and  C_13
REMARK    5  A    between atoms: C_13  and  C_14
REMARK    6  A    between atoms: N_16  and  N_17
REMARK    7  A    between atoms: C_18  and  C_20
REMARK    8  A    between atoms: C_27  and  C_28
REMARK                            x       y       z     vdW  Elec       q    Type
REMARK                         _______ _______ _______ _____ _____    ______ ____
ROOT
ATOM      1  N   UNL     1      -0.017   1.398   0.010  0.00  0.00    -0.274 N 
ATOM      2  C   UNL     1       1.063   2.241   0.004  0.00  0.00    +0.143 A 
ATOM      3  N   UNL     1       0.603   3.460   0.015  0.00  0.00    -0.133 NA
ATOM      4  N   UNL     1      -0.682   3.448   0.027  0.00  0.00    -0.122 NA
ATOM      5  C   UNL     1      -1.118   2.210   0.019  0.00  0.00    +0.197 A 
ENDROOT
BRANCH   1   9
ATOM      6  C   UNL     1       0.039  -2.771  -0.014  0.00  0.00    +0.000 A 
ATOM      7  C   UNL     1      -0.466  -2.093   1.081  0.00  0.00    +0.002 A 
ATOM      8  C   UNL     1      -0.486  -0.712   1.092  0.00  0.00    +0.026 A 
ATOM      9  C   UNL     1       0.002  -0.004   0.002  0.00  0.00    +0.050 A 
ATOM     10  C   UNL     1       0.503  -0.687  -1.098  0.00  0.00    +0.026 A 
ATOM     11  C   UNL     1       0.525  -2.068  -1.101  0.00  0.00    +0.002 A 
ENDBRANCH   1   9
BRANCH   5  12
ATOM     12  S   UNL     1      -2.802   1.692   0.022  0.00  0.00    -0.076 S 
BRANCH  12  13
ATOM     13  C   UNL     1      -3.627   3.303   0.034  0.00  0.00    +0.174 C 
BRANCH  13  14
ATOM     14  C   UNL     1      -5.120   3.103   0.038  0.00  0.00    +0.239 C 
ATOM     15  O   UNL     1      -5.582   1.982   0.034  0.00  0.00    -0.273 OA
ATOM     16  N   UNL     1      -5.943   4.171   0.048  0.00  0.00    -0.233 N 
ATOM     17  H   UNL     1      -5.574   5.068   0.052  0.00  0.00    +0.173 HD
BRANCH  16  18
ATOM     18  N   UNL     1      -7.332   3.985   0.052  0.00  0.00    -0.230 N 
ATOM     19  C   UNL     1      -8.154   5.052   0.061  0.00  0.00    +0.260 C 
ATOM     20  O   UNL     1      -7.692   6.176   0.066  0.00  0.00    -0.269 OA
ATOM     21  H   UNL     1      -7.701   3.088   0.048  0.00  0.00    +0.173 HD
BRANCH  19  22
ATOM     22  C   UNL     1      -9.619   4.856   0.065  0.00  0.00    +0.038 A 
ATOM     23  C   UNL     1     -10.154   3.566   0.054  0.00  0.00    +0.014 A 
ATOM     24  C   UNL     1     -11.521   3.389   0.064  0.00  0.00    +0.021 A 
ATOM     25  C   UNL     1     -12.364   4.488   0.073  0.00  0.00    +0.041 A 
ATOM     26  C   UNL     1     -11.840   5.770   0.079  0.00  0.00    +0.021 A 
ATOM     27  C   UNL     1     -10.474   5.960   0.075  0.00  0.00    +0.014 A 
ATOM     28 CL   UNL     1     -14.085   4.258   0.078  0.00  0.00    -0.084 Cl
ENDBRANCH  19  22
ENDBRANCH  16  18
ENDBRANCH  13  14
ENDBRANCH  12  13
ENDBRANCH   5  12
BRANCH   2  29
ATOM     29  C   UNL     1       2.514   1.833  -0.013  0.00  0.00    +0.119 C 
BRANCH  29  30
ATOM     30  C   UNL     1       2.983   1.706  -1.439  0.00  0.00    -0.003 A 
ATOM     31  C   UNL     1       3.534   2.647  -2.244  0.00  0.00    +0.011 A 
ATOM     32  C   UNL     1       3.894   2.300  -3.532  0.00  0.00    +0.008 A 
ATOM     33  C   UNL     1       3.686   1.028  -3.953  0.00  0.00    +0.045 A 
ATOM     34  S   UNL     1       2.966   0.273  -2.504  0.00  0.00    -0.101 S 
ENDBRANCH  29  30
ENDBRANCH   2  29
TORSDOF 8
