REMARK  Name = ZINC01380972
REMARK  13 active torsions:
REMARK  status: ('A' for Active; 'I' for Inactive)
REMARK    1  A    between atoms: C_1  and  C_2
REMARK    2  A    between atoms: C_9  and  C_11
REMARK    3  A    between atoms: N_13  and  C_14
REMARK    4  A    between atoms: C_14  and  C_15
REMARK    5  A    between atoms: C_18  and  O_21
REMARK    6  A    between atoms: O_21  and  C_22
REMARK    7  A    between atoms: N_25  and  C_35
REMARK    8  A    between atoms: C_26  and  C_28
REMARK    9  A    between atoms: N_30  and  C_31
REMARK   10  A    between atoms: C_31  and  C_32
REMARK   11  A    between atoms: C_31  and  C_33
REMARK   12  A    between atoms: C_31  and  C_34
REMARK   13  A    between atoms: C_38  and  C_41
REMARK                            x       y       z     vdW  Elec       q    Type
REMARK                         _______ _______ _______ _____ _____    ______ ____
ROOT
ATOM      1  C   UNL     1      -0.360   1.072   0.420  0.00  0.00    +0.047 C 
ATOM      2  C   UNL     1      -0.038  -0.394   0.124  0.00  0.00    +0.098 C 
ATOM      3  C   UNL     1      -1.234  -1.354   0.087  0.00  0.00    +0.007 C 
ATOM      4  C   UNL     1      -0.713  -2.559   0.265  0.00  0.00    +0.009 C 
ATOM      5  C   UNL     1       0.775  -2.337   0.471  0.00  0.00    +0.128 C 
ATOM      6  O   UNL     1       0.855  -1.079   1.098  0.00  0.00    -0.355 OA
ATOM      7  C   UNL     1       1.427  -1.964  -0.920  0.00  0.00    +0.128 C 
ATOM      8  C   UNL     1       0.687  -0.681  -1.248  0.00  0.00    +0.125 C 
ATOM      9  C   UNL     1       1.329  -3.261  -1.613  0.00  0.00    +0.228 C 
ATOM     10  O   UNL     1       1.140  -3.435  -2.798  0.00  0.00    -0.275 OA
ATOM     11  N   UNL     1       1.494  -4.237  -0.660  0.00  0.00    -0.256 N 
ATOM     12  C   UNL     1       1.526  -3.612   0.700  0.00  0.00    +0.203 C 
ENDROOT
BRANCH  11  13
ATOM     13  C   UNL     1       1.614  -5.607  -0.920  0.00  0.00    +0.037 A 
ATOM     14  C   UNL     1       1.771  -6.504   0.128  0.00  0.00    +0.024 A 
ATOM     15  C   UNL     1       1.889  -7.855  -0.132  0.00  0.00    +0.006 A 
ATOM     16  C   UNL     1       1.850  -8.315  -1.436  0.00  0.00    -0.044 A 
ATOM     17  C   UNL     1       1.694  -7.425  -2.482  0.00  0.00    +0.006 A 
ATOM     18  C   UNL     1       1.570  -6.073  -2.228  0.00  0.00    +0.024 A 
BRANCH  16  19
ATOM     19  C   UNL     1       1.979  -9.790  -1.716  0.00  0.00    +0.019 C 
ATOM     20  C   UNL     1       3.204 -10.036  -2.599  0.00  0.00    +0.008 C 
ATOM     21  C   UNL     1       3.335 -11.534  -2.884  0.00  0.00    +0.001 C 
ATOM     22  C   UNL     1       2.079 -12.027  -3.605  0.00  0.00    +0.000 C 
ATOM     23  C   UNL     1       0.854 -11.781  -2.723  0.00  0.00    +0.001 C 
ATOM     24  C   UNL     1       0.723 -10.284  -2.438  0.00  0.00    +0.008 C 
ENDBRANCH  16  19
ENDBRANCH  11  13
BRANCH   8  25
ATOM     25  C   UNL     1      -0.314  -0.921  -2.349  0.00  0.00    +0.220 C 
ATOM     26  O   UNL     1      -0.860  -2.000  -2.447  0.00  0.00    -0.275 OA
ATOM     27  N   UNL     1      -0.601   0.062  -3.225  0.00  0.00    -0.311 N 
ATOM     28  H   UNL     1      -0.164   0.924  -3.146  0.00  0.00    +0.149 HD
BRANCH  27  29
ATOM     29  C   UNL     1      -1.574  -0.172  -4.295  0.00  0.00    +0.139 C 
BRANCH  29  30
ATOM     30  C   UNL     1      -1.712   1.076  -5.129  0.00  0.00    -0.030 A 
ATOM     31  C   UNL     1      -2.653   2.032  -4.790  0.00  0.00    +0.009 A 
ATOM     32  C   UNL     1      -2.782   3.176  -5.553  0.00  0.00    +0.046 A 
ATOM     33  C   UNL     1      -1.967   3.366  -6.659  0.00  0.00    +0.120 A 
ATOM     34  C   UNL     1      -1.024   2.407  -6.997  0.00  0.00    +0.046 A 
ATOM     35  C   UNL     1      -0.895   1.266  -6.228  0.00  0.00    +0.009 A 
BRANCH  33  36
ATOM     36  O   UNL     1      -2.093   4.491  -7.412  0.00  0.00    -0.495 OA
ATOM     37  C   UNL     1      -1.221   4.620  -8.536  0.00  0.00    +0.277 C 
ENDBRANCH  33  36
ENDBRANCH  29  30
ENDBRANCH  27  29
ENDBRANCH   8  25
BRANCH  12  38
ATOM     38  C   UNL     1       2.943  -3.333   1.131  0.00  0.00    +0.238 C 
ATOM     39  O   UNL     1       3.846  -3.399   0.325  0.00  0.00    -0.274 OA
ATOM     40  N   UNL     1       3.205  -3.008   2.413  0.00  0.00    -0.309 N 
ATOM     41  H   UNL     1       2.483  -2.955   3.057  0.00  0.00    +0.149 HD
BRANCH  40  42
ATOM     42  C   UNL     1       4.582  -2.736   2.832  0.00  0.00    +0.026 C 
ATOM     43  C   UNL     1       5.136  -1.556   2.031  0.00  0.00    +0.031 C 
ATOM     44  C   UNL     1       4.604  -2.396   4.323  0.00  0.00    +0.031 C 
ATOM     45  C   UNL     1       5.446  -3.974   2.579  0.00  0.00    +0.031 C 
ENDBRANCH  40  42
ENDBRANCH  12  38
TORSDOF 8
