REMARK  Name = ZINC39694700
REMARK  10 active torsions:
REMARK  status: ('A' for Active; 'I' for Inactive)
REMARK    1  A    between atoms: C_1  and  C_2
REMARK    2  A    between atoms: C_4  and  C_35
REMARK    3  A    between atoms: C_6  and  C_8
REMARK    4  A    between atoms: C_8  and  N_9
REMARK    5  A    between atoms: C_10  and  C_12
REMARK    6  A    between atoms: C_23  and  C_25
REMARK    7  A    between atoms: C_27  and  O_33
REMARK    8  A    between atoms: C_29  and  O_31
REMARK    9  A    between atoms: O_31  and  C_32
REMARK   10  A    between atoms: O_33  and  C_34
REMARK                            x       y       z     vdW  Elec       q    Type
REMARK                         _______ _______ _______ _____ _____    ______ ____
ROOT
ATOM      1  C   UNL     1       2.760  -4.495   4.189  0.00  0.00    +0.100 C 
ATOM      2  C   UNL     1       3.742  -5.260   3.274  0.00  0.00    +0.121 C 
ATOM      3  N   UNL     1       4.612  -6.015   4.207  0.00  0.00    -0.296 N 
ATOM      4  C   UNL     1       3.692  -6.484   5.271  0.00  0.00    +0.115 C 
ATOM      5  C   UNL     1       2.729  -5.301   5.498  0.00  0.00    -0.004 C 
ATOM      6  C   UNL     1       3.215  -4.441   6.661  0.00  0.00    -0.010 C 
ATOM      7  C   UNL     1       3.122  -5.247   7.960  0.00  0.00    -0.082 C 
ATOM      8  N   UNL     1       1.732  -5.663   8.181  0.00  0.00    +0.379 N 
ATOM      9  C   UNL     1       1.302  -6.565   7.105  0.00  0.00    -0.082 C 
ATOM     10  C   UNL     1       1.319  -5.815   5.770  0.00  0.00    -0.010 C 
ATOM     11  C   UNL     1       5.939  -6.227   4.110  0.00  0.00    +0.247 C 
ATOM     12  O   UNL     1       6.582  -5.667   3.244  0.00  0.00    -0.270 OA
ATOM     13  H   UNL     1       1.662  -6.141   9.066  0.00  0.00    -0.086 HD
ATOM     14  H   UNL     1       1.136  -4.848   8.193  0.00  0.00    -0.086 HD
ENDROOT
BRANCH  11  15
ATOM     15  C   UNL     1       6.613  -7.139   5.058  0.00  0.00    +0.044 A 
ATOM     16  C   UNL     1       5.874  -8.097   5.753  0.00  0.00    +0.059 A 
ATOM     17  C   UNL     1       6.509  -8.951   6.640  0.00  0.00    +0.124 A 
ATOM     18  C   UNL     1       7.879  -8.854   6.838  0.00  0.00    +0.091 A 
ATOM     19  C   UNL     1       8.618  -7.903   6.149  0.00  0.00    +0.124 A 
ATOM     20  C   UNL     1       7.991  -7.049   5.256  0.00  0.00    +0.059 A 
BRANCH  19  21
ATOM     21  O   UNL     1       9.960  -7.812   6.347  0.00  0.00    -0.495 OA
ATOM     22  C   UNL     1      10.541  -8.727   7.278  0.00  0.00    +0.277 C 
ENDBRANCH  19  21
BRANCH  17  23
ATOM     23  O   UNL     1       5.790  -9.884   7.317  0.00  0.00    -0.495 OA
ATOM     24  C   UNL     1       6.509 -10.731   8.215  0.00  0.00    +0.277 C 
ENDBRANCH  17  23
ENDBRANCH  11  15
BRANCH   1  26
ATOM     25  N   UNL     1       0.568  -3.411   3.812  0.00  0.00    -0.311 N 
ATOM     26  C   UNL     1       1.388  -4.452   3.567  0.00  0.00    +0.218 C 
ATOM     27  O   UNL     1       1.021  -5.355   2.845  0.00  0.00    -0.275 OA
ATOM     28  H   UNL     1       0.861  -2.689   4.390  0.00  0.00    +0.149 HD
BRANCH  25  29
ATOM     29  C   UNL     1      -0.765  -3.370   3.208  0.00  0.00    +0.139 C 
BRANCH  29  35
ATOM     30  C   UNL     1      -3.741  -0.955   6.426  0.00  0.00    +0.044 C 
ATOM     31  C   UNL     1      -2.898  -0.956   5.177  0.00  0.00    -0.050 A 
ATOM     32  C   UNL     1      -2.774   0.198   4.426  0.00  0.00    +0.006 A 
ATOM     33  C   UNL     1      -2.000   0.197   3.281  0.00  0.00    -0.050 A 
ATOM     34  C   UNL     1      -1.350  -0.957   2.886  0.00  0.00    +0.008 A 
ATOM     35  C   UNL     1      -1.474  -2.111   3.638  0.00  0.00    -0.030 A 
ATOM     36  C   UNL     1      -2.244  -2.109   4.786  0.00  0.00    +0.008 A 
ATOM     37  C   UNL     1      -1.866   1.455   2.462  0.00  0.00    +0.044 C 
ENDBRANCH  29  35
ENDBRANCH  25  29
ENDBRANCH   1  26
TORSDOF 6
