REMARK  Name = ZINC14158096
REMARK  9 active torsions:
REMARK  status: ('A' for Active; 'I' for Inactive)
REMARK    1  A    between atoms: C_1  and  C_2
REMARK    2  A    between atoms: C_5  and  N_9
REMARK    3  A    between atoms: N_9  and  C_10
REMARK    4  A    between atoms: C_10  and  N_12
REMARK    5  A    between atoms: N_14  and  C_15
REMARK    6  A    between atoms: C_15  and  C_16
REMARK    7  A    between atoms: C_16  and  C_17
REMARK    8  A    between atoms: C_30  and  C_35
REMARK    9  A    between atoms: C_32  and  C_34
REMARK                            x       y       z     vdW  Elec       q    Type
REMARK                         _______ _______ _______ _____ _____    ______ ____
ROOT
ATOM      1  N   UNL     1       3.678  -0.734  -0.025  0.00  0.00    -0.159 NA
ATOM      2  C   UNL     1       3.791  -2.051   0.018  0.00  0.00    +0.195 C 
ATOM      3  N   UNL     1       2.672  -2.831   0.055  0.00  0.00    -0.357 N 
ATOM      4  N   UNL     1       5.031  -2.631   0.027  0.00  0.00    -0.297 N 
ATOM      5  C   UNL     1       6.169  -1.837  -0.011  0.00  0.00    +0.231 A 
ATOM      6  N   UNL     1       6.037  -0.520  -0.059  0.00  0.00    -0.217 NA
ATOM      7  C   UNL     1       7.101   0.266  -0.090  0.00  0.00    +0.044 A 
ATOM      8  C   UNL     1       8.364  -0.306  -0.082  0.00  0.00    +0.046 A 
ATOM      9  C   UNL     1       8.465  -1.688  -0.036  0.00  0.00    +0.044 A 
ATOM     10  N   UNL     1       7.361  -2.415  -0.002  0.00  0.00    -0.217 NA
ATOM     11  C   UNL     1       9.817  -2.353  -0.026  0.00  0.00    +0.066 C 
ATOM     12  C   UNL     1       6.942   1.763  -0.139  0.00  0.00    +0.066 C 
ATOM     13  H   UNL     1       1.675  -2.366   0.030  0.00  0.00    +0.162 HD
ATOM     14  H   UNL     1       5.125  -3.726   0.063  0.00  0.00    +0.171 HD
ENDROOT
BRANCH   1  15
ATOM     15  C   UNL     1       2.470  -0.162   0.080  0.00  0.00    +0.162 C 
ATOM     16  S   UNL     1       1.572  -0.319   1.530  0.00  0.00    -0.016 S 
BRANCH  15  17
ATOM     17  N   UNL     1       1.963   0.538  -0.954  0.00  0.00    -0.294 N 
ATOM     18  H   UNL     1       2.503   0.573  -1.911  0.00  0.00    +0.154 HD
BRANCH  17  23
ATOM     19  C   UNL     1      -2.960   3.297  -0.372  0.00  0.00    +0.044 C 
ATOM     20  C   UNL     1      -1.652   2.565  -0.526  0.00  0.00    -0.049 A 
ATOM     21  C   UNL     1      -1.541   1.254  -0.101  0.00  0.00    +0.005 A 
ATOM     22  C   UNL     1      -0.343   0.581  -0.236  0.00  0.00    +0.025 A 
ATOM     23  C   UNL     1       0.749   1.219  -0.810  0.00  0.00    +0.051 A 
ATOM     24  C   UNL     1       0.633   2.534  -1.242  0.00  0.00    +0.062 A 
ATOM     25  C   UNL     1      -0.568   3.204  -1.098  0.00  0.00    +0.025 A 
ATOM     26 CL   UNL     1       1.995   3.336  -1.961  0.00  0.00    -0.082 Cl
ENDBRANCH  17  23
ENDBRANCH  15  17
ENDBRANCH   1  15
BRANCH   3  27
ATOM     27  C   UNL     1       2.798  -4.289   0.126  0.00  0.00    +0.120 C 
BRANCH  27  28
ATOM     28  C   UNL     1       1.404  -4.920   0.155  0.00  0.00    +0.058 C 
BRANCH  28  29
ATOM     29  C   UNL     1       1.534  -6.420   0.229  0.00  0.00    -0.021 A 
ATOM     30  C   UNL     1       1.504  -7.276  -0.805  0.00  0.00    +0.087 A 
ATOM     31  N   UNL     1       1.655  -8.559  -0.353  0.00  0.00    -0.360 N 
ATOM     32  H   UNL     1       1.661  -9.396  -1.067  0.00  0.00    +0.165 HD
ATOM     33  C   UNL     1       1.780  -8.560   1.018  0.00  0.00    +0.047 A 
ATOM     34  C   UNL     1       1.709  -7.221   1.443  0.00  0.00    +0.003 A 
ATOM     35  C   UNL     1       1.808  -6.915   2.801  0.00  0.00    +0.010 A 
ATOM     36  C   UNL     1       1.973  -7.920   3.713  0.00  0.00    +0.001 A 
ATOM     37  C   UNL     1       2.043  -9.243   3.299  0.00  0.00    +0.002 A 
ATOM     38  C   UNL     1       1.948  -9.567   1.963  0.00  0.00    +0.026 A 
ENDBRANCH  28  29
ENDBRANCH  27  28
ENDBRANCH   3  27
TORSDOF 6
