REMARK  Name = ZINC09885531
REMARK  11 active torsions:
REMARK  status: ('A' for Active; 'I' for Inactive)
REMARK    1  A    between atoms: C_1  and  C_2
REMARK    2  A    between atoms: C_2  and  O_3
REMARK    3  A    between atoms: O_3  and  C_4
REMARK    4  A    between atoms: C_7  and  S_10
REMARK    5  A    between atoms: S_10  and  N_13
REMARK    6  A    between atoms: N_13  and  C_14
REMARK    7  A    between atoms: C_17  and  C_20
REMARK    8  A    between atoms: N_22  and  N_23
REMARK    9  A    between atoms: C_24  and  C_26
REMARK   10  A    between atoms: C_26  and  N_27
REMARK   11  A    between atoms: C_28  and  C_30
REMARK                            x       y       z     vdW  Elec       q    Type
REMARK                         _______ _______ _______ _____ _____    ______ ____
ROOT
ATOM      1  C   UNL     1       1.236  -0.689   0.010  0.00  0.00    +0.048 A 
ATOM      2  C   UNL     1       0.036   0.011   0.098  0.00  0.00    +0.025 A 
ATOM      3  C   UNL     1       0.040   1.387   0.129  0.00  0.00    +0.015 A 
ATOM      4  C   UNL     1       1.251   2.082   0.071  0.00  0.00    +0.038 A 
ATOM      5  C   UNL     1       2.455   1.377  -0.017  0.00  0.00    +0.015 A 
ATOM      6  C   UNL     1       2.445   0.001  -0.048  0.00  0.00    +0.025 A 
ENDROOT
BRANCH   4   7
ATOM      7  C   UNL     1       1.259   3.557   0.103  0.00  0.00    +0.260 C 
ATOM      8  O   UNL     1       0.211   4.169   0.180  0.00  0.00    -0.269 OA
ATOM      9  N   UNL     1       2.428   4.226   0.048  0.00  0.00    -0.230 N 
ATOM     10  H   UNL     1       3.264   3.737  -0.014  0.00  0.00    +0.173 HD
BRANCH   9  11
ATOM     11  N   UNL     1       2.435   5.626   0.078  0.00  0.00    -0.233 N 
ATOM     12  C   UNL     1       3.604   6.295   0.022  0.00  0.00    +0.246 C 
ATOM     13  O   UNL     1       4.649   5.685  -0.054  0.00  0.00    -0.273 OA
ATOM     14  H   UNL     1       1.599   6.115   0.139  0.00  0.00    +0.173 HD
BRANCH  12  15
ATOM     15  C   UNL     1       3.612   7.802   0.055  0.00  0.00    +0.202 C 
BRANCH  15  16
ATOM     16  N   UNL     1       4.993   8.285  -0.017  0.00  0.00    -0.303 N 
ATOM     17  C   UNL     1       5.246   9.608  -0.003  0.00  0.00    +0.244 C 
ATOM     18  O   UNL     1       4.328  10.402   0.070  0.00  0.00    -0.270 OA
ATOM     19  H   UNL     1       5.726   7.652  -0.076  0.00  0.00    +0.150 HD
BRANCH  17  20
ATOM     20  C   UNL     1       6.640  10.096  -0.077  0.00  0.00    +0.037 A 
ATOM     21  C   UNL     1       7.697   9.187  -0.155  0.00  0.00    +0.013 A 
ATOM     22  C   UNL     1       8.995   9.648  -0.228  0.00  0.00    +0.001 A 
ATOM     23  C   UNL     1       9.251  11.008  -0.214  0.00  0.00    +0.000 A 
ATOM     24  C   UNL     1       8.209  11.914  -0.131  0.00  0.00    +0.001 A 
ATOM     25  C   UNL     1       6.905  11.466  -0.062  0.00  0.00    +0.013 A 
ENDBRANCH  17  20
ENDBRANCH  15  16
ENDBRANCH  12  15
ENDBRANCH   9  11
ENDBRANCH   4   7
BRANCH   1  26
ATOM     26  N   UNL     1       1.229  -2.079  -0.021  0.00  0.00    -0.216 N 
ATOM     27  H   UNL     1       0.683  -2.575   0.608  0.00  0.00    +0.174 HD
BRANCH  26  28
ATOM     28  S   UNL     1       2.152  -2.887  -1.133  0.00  0.00    +0.072 S 
ATOM     29  O   UNL     1       3.473  -2.377  -1.012  0.00  0.00    -0.150 OA
ATOM     30  O   UNL     1       1.852  -4.268  -0.984  0.00  0.00    -0.150 OA
BRANCH  28  34
ATOM     31  C   UNL     1       0.671  -1.676  -5.238  0.00  0.00    +0.121 A 
ATOM     32  C   UNL     1       1.751  -1.018  -4.667  0.00  0.00    +0.047 A 
ATOM     33  C   UNL     1       2.201  -1.389  -3.414  0.00  0.00    +0.032 A 
ATOM     34  C   UNL     1       1.576  -2.416  -2.730  0.00  0.00    +0.109 A 
ATOM     35  C   UNL     1       0.503  -3.077  -3.300  0.00  0.00    +0.032 A 
ATOM     36  C   UNL     1       0.046  -2.705  -4.549  0.00  0.00    +0.047 A 
BRANCH  31  37
ATOM     37  O   UNL     1       0.226  -1.312  -6.469  0.00  0.00    -0.492 OA
BRANCH  37  39
ATOM     38  C   UNL     1      -1.244  -1.486  -8.379  0.00  0.00    +0.048 C 
ATOM     39  C   UNL     1      -0.890  -2.033  -6.995  0.00  0.00    +0.225 C 
ENDBRANCH  37  39
ENDBRANCH  31  37
ENDBRANCH  28  34
ENDBRANCH  26  28
ENDBRANCH   1  26
TORSDOF 10
