REMARK  Name = ZINC34685758
REMARK  10 active torsions:
REMARK  status: ('A' for Active; 'I' for Inactive)
REMARK    1  A    between atoms: C_1  and  C_2
REMARK    2  A    between atoms: C_2  and  C_3
REMARK    3  A    between atoms: C_11  and  O_23
REMARK    4  A    between atoms: C_14  and  C_16
REMARK    5  A    between atoms: C_19  and  C_22
REMARK    6  A    between atoms: O_23  and  C_24
REMARK    7  A    between atoms: C_24  and  C_25
REMARK    8  A    between atoms: C_28  and  C_30
REMARK    9  A    between atoms: N_35  and  C_38
REMARK   10  A    between atoms: C_38  and  C_39
REMARK                            x       y       z     vdW  Elec       q    Type
REMARK                         _______ _______ _______ _____ _____    ______ ____
ROOT
ATOM      1  C   UNL     1       0.952  -0.487  -0.825  0.00  0.00    +0.216 C 
ATOM      2  O   UNL     1       1.357   0.265  -1.686  0.00  0.00    -0.276 OA
ATOM      3  N   UNL     1       0.824  -1.803  -1.086  0.00  0.00    -0.290 N 
ATOM      4  C   UNL     1       0.415  -2.754  -0.039  0.00  0.00    +0.113 C 
ATOM      5  C   UNL     1      -0.934  -3.346  -0.443  0.00  0.00    +0.054 C 
ATOM      6  C   UNL     1      -0.915  -3.792  -1.882  0.00  0.00    -0.040 A 
ATOM      7  C   UNL     1      -1.875  -4.715  -2.282  0.00  0.00    +0.007 A 
ATOM      8  C   UNL     1      -1.922  -5.159  -3.586  0.00  0.00    +0.046 A 
ATOM      9  C   UNL     1      -1.004  -4.681  -4.510  0.00  0.00    +0.121 A 
ATOM     10  C   UNL     1      -0.046  -3.764  -4.112  0.00  0.00    +0.051 A 
ATOM     11  C   UNL     1       0.002  -3.324  -2.797  0.00  0.00    -0.016 A 
ATOM     12  C   UNL     1       1.081  -2.344  -2.425  0.00  0.00    +0.137 C 
ENDROOT
BRANCH  12  13
ATOM     13  C   UNL     1       1.100  -1.217  -3.425  0.00  0.00    -0.023 A 
ATOM     14  C   UNL     1       0.052  -0.317  -3.474  0.00  0.00    +0.006 A 
ATOM     15  C   UNL     1       0.070   0.717  -4.391  0.00  0.00    +0.004 A 
ATOM     16  C   UNL     1       1.137   0.850  -5.261  0.00  0.00    -0.050 A 
ATOM     17  C   UNL     1       2.186  -0.049  -5.212  0.00  0.00    +0.004 A 
ATOM     18  C   UNL     1       2.169  -1.080  -4.291  0.00  0.00    +0.006 A 
ATOM     19  C   UNL     1       1.156   1.976  -6.262  0.00  0.00    +0.044 C 
ENDBRANCH  12  13
BRANCH   1  21
ATOM     20  C   UNL     1       0.828   1.562   0.567  0.00  0.00    +0.013 C 
ATOM     21  C   UNL     1       0.593   0.050   0.536  0.00  0.00    +0.092 C 
ENDBRANCH   1  21
BRANCH   9  22
ATOM     22  O   UNL     1      -1.046  -5.110  -5.799  0.00  0.00    -0.484 OA
BRANCH  22  23
ATOM     23  C   UNL     1      -2.062  -6.056  -6.136  0.00  0.00    +0.303 C 
BRANCH  23  24
ATOM     24  C   UNL     1      -1.953  -6.413  -7.596  0.00  0.00    +0.143 A 
ATOM     25  C   UNL     1      -1.217  -7.425  -8.106  0.00  0.00    +0.049 A 
ATOM     26  C   UNL     1      -1.397  -7.405  -9.498  0.00  0.00    +0.055 A 
ATOM     27  C   UNL     1      -2.243  -6.369  -9.770  0.00  0.00    +0.190 A 
ATOM     28  O   UNL     1      -2.574  -5.782  -8.601  0.00  0.00    -0.452 OA
BRANCH  27  29
ATOM     29  C   UNL     1      -2.714  -5.968 -11.100  0.00  0.00    +0.282 C 
ATOM     30  O   UNL     1      -2.454  -6.654 -12.070  0.00  0.00    -0.267 OA
ATOM     31  N   UNL     1      -3.436  -4.839 -11.246  0.00  0.00    -0.299 N 
ATOM     32  C   UNL     1      -3.824  -4.032 -10.079  0.00  0.00    +0.089 C 
ATOM     33  C   UNL     1      -3.437  -2.574 -10.346  0.00  0.00    -0.059 C 
ATOM     34  N   UNL     1      -4.036  -2.134 -11.613  0.00  0.00    +0.384 N 
ATOM     35  C   UNL     1      -3.469  -2.904 -12.728  0.00  0.00    -0.059 C 
ATOM     36  C   UNL     1      -3.852  -4.375 -12.579  0.00  0.00    +0.089 C 
ATOM     37  H   UNL     1      -5.034  -2.278 -11.580  0.00  0.00    -0.081 HD
BRANCH  34  38
ATOM     38  C   UNL     1      -3.757  -0.706 -11.815  0.00  0.00    -0.052 C 
BRANCH  38  39
ATOM     39  C   UNL     1      -4.472  -0.224 -13.050  0.00  0.00    -0.053 C 
ATOM     40  C   UNL     1      -5.285   0.801 -12.978  0.00  0.00    +0.002 C 
ENDBRANCH  38  39
ENDBRANCH  34  38
ENDBRANCH  27  29
ENDBRANCH  23  24
ENDBRANCH  22  23
ENDBRANCH   9  22
TORSDOF 8
