REMARK  Name = ZINC00849978
REMARK  8 active torsions:
REMARK  status: ('A' for Active; 'I' for Inactive)
REMARK    1  A    between atoms: C_1  and  C_2
REMARK    2  A    between atoms: C_2  and  C_25
REMARK    3  A    between atoms: C_4  and  N_18
REMARK    4  A    between atoms: C_6  and  N_11
REMARK    5  A    between atoms: C_8  and  C_9
REMARK    6  A    between atoms: C_8  and  C_10
REMARK    7  A    between atoms: C_12  and  C_14
REMARK    8  A    between atoms: C_19  and  C_21
REMARK                            x       y       z     vdW  Elec       q    Type
REMARK                         _______ _______ _______ _____ _____    ______ ____
ROOT
ATOM      1  C   UNL     1      -4.629   0.010   2.983  0.00  0.00    -0.010 C 
ATOM      2  C   UNL     1      -4.169   0.038   1.507  0.00  0.00    -0.072 C 
ATOM      3  C   UNL     1      -2.832   0.773   1.460  0.00  0.00    +0.011 C 
ATOM      4  C   UNL     1      -2.452   1.115   0.020  0.00  0.00    +0.091 C 
ATOM      5  C   UNL     1      -3.556   1.987  -0.581  0.00  0.00    +0.082 C 
ATOM      6  C   UNL     1      -4.878   1.216  -0.586  0.00  0.00    -0.053 C 
ATOM      7  C   UNL     1      -5.989   2.208  -0.997  0.00  0.00    -0.009 C 
ATOM      8  C   UNL     1      -4.836   0.111  -1.642  0.00  0.00    -0.009 C 
ATOM      9  C   UNL     1      -3.977  -1.416   1.067  0.00  0.00    -0.010 C 
ATOM     10  N   UNL     1      -5.266   0.707   0.757  0.00  0.00    +0.387 N 
ATOM     11  H   UNL     1      -5.599   1.500   1.317  0.00  0.00    -0.084 HD
ATOM     12  H   UNL     1      -6.029   0.030   0.635  0.00  0.00    -0.084 HD
ENDROOT
BRANCH   5  13
ATOM     13  N   UNL     1      -3.198   2.351  -1.955  0.00  0.00    -0.305 N 
ATOM     14  C   UNL     1      -2.408   3.418  -2.186  0.00  0.00    +0.318 C 
ATOM     15  O   UNL     1      -1.993   4.077  -1.256  0.00  0.00    -0.266 OA
ATOM     16  H   UNL     1      -3.530   1.823  -2.699  0.00  0.00    +0.149 HD
BRANCH  14  17
ATOM     17  C   UNL     1      -2.040   3.792  -3.599  0.00  0.00    +0.469 C 
ATOM     18  F   UNL     1      -1.219   4.925  -3.583  0.00  0.00    -0.162 F 
ATOM     19  F   UNL     1      -1.357   2.729  -4.199  0.00  0.00    -0.162 F 
ATOM     20  F   UNL     1      -3.203   4.069  -4.326  0.00  0.00    -0.162 F 
ENDBRANCH  14  17
ENDBRANCH   5  13
BRANCH   4  21
ATOM     21  N   UNL     1      -1.191   1.867   0.018  0.00  0.00    -0.303 N 
ATOM     22  C   UNL     1      -0.014   1.209   0.009  0.00  0.00    +0.318 C 
ATOM     23  O   UNL     1       0.002  -0.004   0.002  0.00  0.00    -0.266 OA
ATOM     24  H   UNL     1      -1.204   2.837   0.023  0.00  0.00    +0.149 HD
BRANCH  22  25
ATOM     25  C   UNL     1       1.280   1.980   0.001  0.00  0.00    +0.469 C 
ATOM     26  F   UNL     1       2.356   1.085  -0.015  0.00  0.00    -0.162 F 
ATOM     27  F   UNL     1       1.333   2.791  -1.138  0.00  0.00    -0.162 F 
ATOM     28  F   UNL     1       1.354   2.779   1.146  0.00  0.00    -0.162 F 
ENDBRANCH  22  25
ENDBRANCH   4  21
TORSDOF 4
