REMARK  Name = ZINC03316635
REMARK  7 active torsions:
REMARK  status: ('A' for Active; 'I' for Inactive)
REMARK    1  A    between atoms: C_1  and  C_2
REMARK    2  A    between atoms: C_3  and  C_28
REMARK    3  A    between atoms: C_7  and  S_11
REMARK    4  A    between atoms: S_11  and  C_12
REMARK    5  A    between atoms: C_12  and  C_13
REMARK    6  A    between atoms: N_15  and  C_16
REMARK    7  A    between atoms: C_17  and  C_25
REMARK                            x       y       z     vdW  Elec       q    Type
REMARK                         _______ _______ _______ _____ _____    ______ ____
ROOT
ATOM      1  C   UNL     1       1.893   3.560   1.039  0.00  0.00    +0.228 C 
ATOM      2  O   UNL     1       0.960   4.322   0.898  0.00  0.00    -0.275 OA
ATOM      3  N   UNL     1       3.125   4.043   1.292  0.00  0.00    -0.279 N 
ATOM      4  H   UNL     1       3.871   3.433   1.405  0.00  0.00    +0.155 HD
ENDROOT
BRANCH   3   5
ATOM      5  C   UNL     1       3.326   5.411   1.391  0.00  0.00    +0.084 A 
ATOM      6  C   UNL     1       4.508   6.092   1.650  0.00  0.00    +0.068 A 
ATOM      7  C   UNL     1       4.449   7.543   1.699  0.00  0.00    -0.023 A 
ATOM      8  C   UNL     1       3.225   8.077   1.494  0.00  0.00    -0.004 A 
ATOM      9  S   UNL     1       2.163   6.685   1.231  0.00  0.00    -0.077 S 
ATOM     10  C   UNL     1       2.862   9.530   1.493  0.00  0.00    +0.043 C 
ATOM     11  C   UNL     1       4.015  10.317   2.131  0.00  0.00    +0.005 C 
ATOM     12  C   UNL     1       5.334   9.854   1.505  0.00  0.00    +0.005 C 
ATOM     13  C   UNL     1       5.657   8.432   1.966  0.00  0.00    +0.037 C 
BRANCH   6  14
ATOM     14  C   UNL     1       5.769   5.375   1.861  0.00  0.00    +0.244 C 
ATOM     15  O   UNL     1       6.492   5.124   0.915  0.00  0.00    -0.270 OA
ATOM     16  N   UNL     1       6.127   4.993   3.103  0.00  0.00    -0.325 N 
ATOM     17  H   UNL     1       5.551   5.194   3.857  0.00  0.00    +0.145 HD
ATOM     18  H   UNL     1       6.961   4.519   3.243  0.00  0.00    +0.145 HD
ENDBRANCH   6  14
ENDBRANCH   3   5
BRANCH   1  19
ATOM     19  C   UNL     1       1.674   2.073   0.931  0.00  0.00    +0.172 C 
BRANCH  19  20
ATOM     20  S   UNL     1      -0.073   1.743   0.588  0.00  0.00    -0.096 S 
BRANCH  20  27
ATOM     21  C   UNL     1      -2.884   1.210   0.036  0.00  0.00    +0.045 C 
ATOM     22  C   UNL     1      -2.588  -0.267   0.025  0.00  0.00    -0.029 A 
ATOM     23  C   UNL     1      -3.568  -1.154  -0.200  0.00  0.00    -0.008 A 
ATOM     24  S   UNL     1      -2.734  -2.728  -0.115  0.00  0.00    -0.074 S 
ATOM     25  C   UNL     1      -1.091  -2.151   0.221  0.00  0.00    +0.113 A 
ATOM     26  C   UNL     1      -1.238  -0.748   0.263  0.00  0.00    +0.043 A 
ATOM     27  C   UNL     1      -0.043  -0.017   0.514  0.00  0.00    +0.109 A 
ATOM     28  N   UNL     1       1.090  -0.677   0.698  0.00  0.00    -0.229 NA
ATOM     29  C   UNL     1       1.152  -1.995   0.650  0.00  0.00    +0.223 A 
ATOM     30  N   UNL     1       0.079  -2.726   0.415  0.00  0.00    -0.228 NA
ATOM     31  C   UNL     1      -5.027  -0.885  -0.463  0.00  0.00    +0.052 C 
ENDBRANCH  20  27
ENDBRANCH  19  20
ENDBRANCH   1  19
TORSDOF 5
