REMARK  Name = ZINC38684073
REMARK  14 active torsions:
REMARK  status: ('A' for Active; 'I' for Inactive)
REMARK    1  A    between atoms: C_1  and  C_2
REMARK    2  A    between atoms: C_2  and  C_3
REMARK    3  A    between atoms: C_3  and  C_4
REMARK    4  A    between atoms: C_4  and  O_5
REMARK    5  A    between atoms: O_5  and  C_6
REMARK    6  A    between atoms: C_9  and  C_15
REMARK    7  A    between atoms: C_11  and  O_12
REMARK    8  A    between atoms: O_12  and  C_13
REMARK    9  A    between atoms: C_13  and  C_14
REMARK   10  A    between atoms: C_20  and  O_29
REMARK   11  A    between atoms: C_24  and  N_28
REMARK   12  A    between atoms: C_25  and  C_26
REMARK   13  A    between atoms: O_29  and  C_30
REMARK   14  A    between atoms: C_30  and  C_32
REMARK                            x       y       z     vdW  Elec       q    Type
REMARK                         _______ _______ _______ _____ _____    ______ ____
ROOT
ATOM      1  C   UNL     1       1.827  -8.023  -3.156  0.00  0.00    +0.098 C 
ATOM      2  C   UNL     1       0.454  -8.639  -3.209  0.00  0.00    +0.008 A 
ATOM      3  C   UNL     1      -0.335  -8.447  -4.330  0.00  0.00    +0.012 A 
ATOM      4  C   UNL     1      -1.597  -9.004  -4.397  0.00  0.00    +0.047 A 
ATOM      5  C   UNL     1      -2.079  -9.759  -3.337  0.00  0.00    +0.135 A 
ATOM      6  C   UNL     1      -1.292  -9.953  -2.213  0.00  0.00    +0.093 A 
ATOM      7  C   UNL     1      -0.022  -9.392  -2.148  0.00  0.00    +0.138 A 
ATOM      8  O   UNL     1       0.735  -9.592  -1.041  0.00  0.00    -0.441 OA
ATOM      9  C   UNL     1       2.065  -9.406  -1.097  0.00  0.00    +0.199 C 
ATOM     10  C   UNL     1       2.642  -8.673  -2.074  0.00  0.00    +0.098 C 
ENDROOT
BRANCH   1  14
ATOM     11  C   UNL     1       1.471  -3.841  -2.338  0.00  0.00    +0.162 A 
ATOM     12  C   UNL     1       0.986  -4.770  -1.433  0.00  0.00    +0.050 A 
ATOM     13  C   UNL     1       1.102  -6.122  -1.700  0.00  0.00    +0.008 A 
ATOM     14  C   UNL     1       1.702  -6.549  -2.870  0.00  0.00    -0.031 A 
ATOM     15  C   UNL     1       2.189  -5.627  -3.777  0.00  0.00    +0.054 A 
ATOM     16  C   UNL     1       2.071  -4.271  -3.518  0.00  0.00    +0.162 A 
BRANCH  11  17
ATOM     17  O   UNL     1       1.357  -2.511  -2.077  0.00  0.00    -0.488 OA
BRANCH  17  18
ATOM     18  C   UNL     1       0.731  -2.143  -0.846  0.00  0.00    +0.229 C 
BRANCH  18  19
ATOM     19  C   UNL     1       0.694  -0.618  -0.729  0.00  0.00    +0.041 C 
BRANCH  19  21
ATOM     20  C   UNL     1      -0.013   1.301   0.706  0.00  0.00    +0.004 C 
ATOM     21  C   UNL     1       0.024  -0.224   0.589  0.00  0.00    -0.000 C 
ENDBRANCH  19  21
ENDBRANCH  18  19
ENDBRANCH  17  18
ENDBRANCH  11  17
BRANCH  16  22
ATOM     22  O   UNL     1       2.544  -3.362  -4.413  0.00  0.00    -0.489 OA
BRANCH  22  23
ATOM     23  C   UNL     1       3.146  -3.876  -5.602  0.00  0.00    +0.226 C 
ATOM     24  C   UNL     1       3.615  -2.713  -6.480  0.00  0.00    +0.048 C 
ENDBRANCH  22  23
ENDBRANCH  16  22
ENDBRANCH   1  14
BRANCH   9  25
ATOM     25  N   UNL     1       2.858  -9.978  -0.134  0.00  0.00    -0.328 N 
ATOM     26  H   UNL     1       2.457 -10.507   0.573  0.00  0.00    +0.145 HD
ATOM     27  H   UNL     1       3.820  -9.854  -0.161  0.00  0.00    +0.145 HD
ENDBRANCH   9  25
BRANCH  10  28
ATOM     28  C   UNL     1       4.065  -8.514  -2.076  0.00  0.00    +0.101 C 
ATOM     29  N   UNL     1       5.194  -8.388  -2.078  0.00  0.00    -0.191 NA
ENDBRANCH  10  28
BRANCH   5  30
ATOM     30  O   UNL     1      -3.321 -10.307  -3.401  0.00  0.00    -0.422 OA
BRANCH  30  31
ATOM     31  C   UNL     1      -3.523 -11.314  -4.272  0.00  0.00    +0.344 C 
ATOM     32  O   UNL     1      -2.588 -11.776  -4.895  0.00  0.00    -0.245 OA
BRANCH  31  33
ATOM     33  C   UNL     1      -4.883 -11.857  -4.470  0.00  0.00    +0.061 A 
ATOM     34  C   UNL     1      -5.961 -11.325  -3.760  0.00  0.00    +0.015 A 
ATOM     35  C   UNL     1      -7.228 -11.836  -3.949  0.00  0.00    +0.002 A 
ATOM     36  C   UNL     1      -7.433 -12.875  -4.840  0.00  0.00    +0.020 A 
ATOM     37  C   UNL     1      -6.369 -13.408  -5.548  0.00  0.00    +0.042 A 
ATOM     38  C   UNL     1      -5.096 -12.901  -5.373  0.00  0.00    +0.035 A 
ATOM     39 CL   UNL     1      -6.636 -14.710  -6.664  0.00  0.00    -0.084 Cl
ENDBRANCH  31  33
ENDBRANCH  30  31
ENDBRANCH   5  30
TORSDOF 12
