REMARK  Name = ZINC09128174
REMARK  7 active torsions:
REMARK  status: ('A' for Active; 'I' for Inactive)
REMARK    1  A    between atoms: C_1  and  C_2
REMARK    2  A    between atoms: C_3  and  C_29
REMARK    3  A    between atoms: C_11  and  S_13
REMARK    4  A    between atoms: S_13  and  C_14
REMARK    5  A    between atoms: C_14  and  C_15
REMARK    6  A    between atoms: N_17  and  C_18
REMARK    7  A    between atoms: C_19  and  C_26
REMARK                            x       y       z     vdW  Elec       q    Type
REMARK                         _______ _______ _______ _____ _____    ______ ____
ROOT
ATOM      1  C   UNL     1      -4.098  -0.051   0.039  0.00  0.00    +0.228 C 
ATOM      2  O   UNL     1      -4.291  -1.249   0.035  0.00  0.00    -0.275 OA
ATOM      3  N   UNL     1      -5.144   0.799   0.053  0.00  0.00    -0.279 N 
ATOM      4  H   UNL     1      -4.990   1.757   0.057  0.00  0.00    +0.155 HD
ENDROOT
BRANCH   3   5
ATOM      5  C   UNL     1      -6.439   0.305   0.063  0.00  0.00    +0.084 A 
ATOM      6  C   UNL     1      -7.629   1.012   0.083  0.00  0.00    +0.068 A 
ATOM      7  C   UNL     1      -8.873   0.244   0.085  0.00  0.00    -0.023 A 
ATOM      8  C   UNL     1      -8.719  -1.093   0.076  0.00  0.00    -0.004 A 
ATOM      9  S   UNL     1      -6.961  -1.345   0.059  0.00  0.00    -0.077 S 
ATOM     10  C   UNL     1     -10.041  -1.813   0.081  0.00  0.00    +0.043 C 
ATOM     11  C   UNL     1     -11.070  -0.741  -0.342  0.00  0.00    +0.010 C 
ATOM     12  C   UNL     1     -10.370   0.559   0.102  0.00  0.00    +0.037 C 
BRANCH   6  13
ATOM     13  C   UNL     1      -7.642   2.478   0.098  0.00  0.00    +0.244 C 
ATOM     14  O   UNL     1      -7.659   3.098  -0.950  0.00  0.00    -0.270 OA
ATOM     15  N   UNL     1      -7.634   3.140   1.272  0.00  0.00    -0.325 N 
ATOM     16  H   UNL     1      -7.620   2.647   2.107  0.00  0.00    +0.145 HD
ATOM     17  H   UNL     1      -7.643   4.110   1.282  0.00  0.00    +0.145 HD
ENDBRANCH   6  13
ENDBRANCH   3   5
BRANCH   1  18
ATOM     18  C   UNL     1      -2.690   0.486   0.029  0.00  0.00    +0.173 C 
BRANCH  18  19
ATOM     19  S   UNL     1      -1.519  -0.894   0.011  0.00  0.00    -0.078 S 
BRANCH  19  30
ATOM     20  C   UNL     1       4.917   1.761  -0.034  0.00  0.00    +0.045 C 
ATOM     21  C   UNL     1       3.509   2.297  -0.019  0.00  0.00    -0.026 A 
ATOM     22  C   UNL     1       3.286   3.619  -0.011  0.00  0.00    -0.008 A 
ATOM     23  S   UNL     1       1.508   3.740   0.007  0.00  0.00    -0.073 S 
ATOM     24  C   UNL     1       1.114   2.010   0.002  0.00  0.00    +0.117 A 
ATOM     25  C   UNL     1       2.376   1.387  -0.013  0.00  0.00    +0.075 A 
ATOM     26  C   UNL     1       2.364  -0.043  -0.021  0.00  0.00    +0.261 A 
ATOM     27  O   UNL     1       3.409  -0.670  -0.034  0.00  0.00    -0.267 OA
ATOM     28  N   UNL     1       1.183  -0.689  -0.013  0.00  0.00    -0.301 N 
ATOM     29  H   UNL     1       1.170  -1.659  -0.018  0.00  0.00    +0.171 HD
ATOM     30  C   UNL     1       0.002  -0.004   0.002  0.00  0.00    +0.170 A 
ATOM     31  N   UNL     1      -0.016   1.313   0.009  0.00  0.00    -0.216 NA
ATOM     32  C   UNL     1       4.298   4.736  -0.015  0.00  0.00    +0.052 C 
ENDBRANCH  19  30
ENDBRANCH  18  19
ENDBRANCH   1  18
TORSDOF 5
