REMARK  Name = ZINC20411925
REMARK  8 active torsions:
REMARK  status: ('A' for Active; 'I' for Inactive)
REMARK    1  A    between atoms: C_1  and  C_2
REMARK    2  A    between atoms: C_8  and  C_37
REMARK    3  A    between atoms: C_9  and  O_36
REMARK    4  A    between atoms: C_19  and  C_21
REMARK    5  A    between atoms: C_21  and  N_22
REMARK    6  A    between atoms: N_22  and  C_23
REMARK    7  A    between atoms: N_26  and  C_29
REMARK    8  A    between atoms: C_29  and  C_30
REMARK                            x       y       z     vdW  Elec       q    Type
REMARK                         _______ _______ _______ _____ _____    ______ ____
ROOT
ATOM      1  C   UNL     1       3.679   4.225   4.962  0.00  0.00    +0.008 C 
ATOM      2  C   UNL     1       4.792   3.345   4.387  0.00  0.00    -0.001 C 
ATOM      3  C   UNL     1       5.667   2.858   5.540  0.00  0.00    +0.008 C 
ATOM      4  C   UNL     1       6.824   2.035   4.966  0.00  0.00    +0.027 C 
ATOM      5  C   UNL     1       6.249   0.919   4.140  0.00  0.00    -0.027 C 
ATOM      6  C   UNL     1       5.091   0.996   3.555  0.00  0.00    -0.061 C 
ATOM      7  C   UNL     1       4.168   2.178   3.627  0.00  0.00    +0.018 C 
ATOM      8  C   UNL     1       3.818   2.626   2.212  0.00  0.00    +0.132 C 
ATOM      9  C   UNL     1       3.565   1.549   1.204  0.00  0.00    +0.074 C 
ATOM     10  C   UNL     1       4.451   0.299   1.269  0.00  0.00    +0.187 C 
ATOM     11  C   UNL     1       4.638  -0.180   2.713  0.00  0.00    +0.076 C 
ATOM     12  O   UNL     1       3.613  -0.723   0.611  0.00  0.00    -0.460 OA
ATOM     13  C   UNL     1       2.341  -0.514   1.008  0.00  0.00    +0.312 C 
ATOM     14  O   UNL     1       1.505  -1.366   1.189  0.00  0.00    -0.250 OA
ATOM     15  C   UNL     1       2.139   0.983   1.187  0.00  0.00    +0.120 C 
ATOM     16  C   UNL     1       2.891   1.773   4.369  0.00  0.00    +0.018 C 
ENDROOT
BRANCH   8  17
ATOM     17  O   UNL     1       2.661   3.473   2.263  0.00  0.00    -0.391 OA
ATOM     18  H   UNL     1       2.251   3.900   1.336  0.00  0.00    +0.210 HD
ENDBRANCH   8  17
BRANCH  15  19
ATOM     19  C   UNL     1       1.353   1.550  -0.003  0.00  0.00    +0.096 C 
BRANCH  19  20
ATOM     20  N   UNL     1      -0.012   1.005   0.008  0.00  0.00    -0.313 NA
ATOM     21  H   UNL     1       0.031  -0.092  -0.070  0.00  0.00    +0.122 HD
BRANCH  20  22
ATOM     22  C   UNL     1      -0.795   1.527  -1.120  0.00  0.00    +0.050 C 
ATOM     23  C   UNL     1      -1.407   2.877  -0.736  0.00  0.00    -0.000 C 
ATOM     24  C   UNL     1      -2.272   3.386  -1.891  0.00  0.00    -0.077 C 
ATOM     25  N   UNL     1      -3.333   2.412  -2.178  0.00  0.00    +0.382 N 
ATOM     26  C   UNL     1      -2.769   1.121  -2.595  0.00  0.00    -0.077 C 
ATOM     27  C   UNL     1      -1.919   0.544  -1.460  0.00  0.00    -0.000 C 
ATOM     28  H   UNL     1      -3.897   2.247  -1.248  0.00  0.00    -0.081 HD
BRANCH  25  29
ATOM     29  C   UNL     1      -4.265   2.930  -3.188  0.00  0.00    -0.043 C 
BRANCH  29  30
ATOM     30  C   UNL     1      -5.004   4.117  -2.627  0.00  0.00    -0.064 A 
ATOM     31  C   UNL     1      -6.201   3.934  -1.959  0.00  0.00    +0.002 A 
ATOM     32  C   UNL     1      -6.877   5.022  -1.441  0.00  0.00    +0.000 A 
ATOM     33  C   UNL     1      -6.361   6.295  -1.599  0.00  0.00    +0.000 A 
ATOM     34  C   UNL     1      -5.167   6.479  -2.270  0.00  0.00    +0.000 A 
ATOM     35  C   UNL     1      -4.489   5.390  -2.785  0.00  0.00    +0.002 A 
ENDBRANCH  29  30
ENDBRANCH  25  29
ENDBRANCH  20  22
ENDBRANCH  19  20
ENDBRANCH  15  19
TORSDOF 6
