REMARK  Name = ZINC19850532
REMARK  7 active torsions:
REMARK  status: ('A' for Active; 'I' for Inactive)
REMARK    1  A    between atoms: C_4  and  C_7
REMARK    2  A    between atoms: C_8  and  C_9
REMARK    3  A    between atoms: N_10  and  N_11
REMARK    4  A    between atoms: C_12  and  C_14
REMARK    5  A    between atoms: C_14  and  N_15
REMARK    6  A    between atoms: N_18  and  S_21
REMARK    7  A    between atoms: S_21  and  C_24
REMARK                            x       y       z     vdW  Elec       q    Type
REMARK                         _______ _______ _______ _____ _____    ______ ____
ROOT
ATOM      1  N   UNL     1      -1.007   3.270  -1.025  0.00  0.00    +0.387 N 
ATOM      2  C   UNL     1      -0.898   1.815  -0.852  0.00  0.00    -0.061 C 
ATOM      3  C   UNL     1      -0.242   1.513   0.499  0.00  0.00    +0.091 C 
ATOM      4  N   UNL     1      -0.993   2.209   1.554  0.00  0.00    -0.180 NA
ATOM      5  C   UNL     1      -1.266   3.645   1.381  0.00  0.00    +0.091 C 
ATOM      6  C   UNL     1      -1.882   3.863  -0.005  0.00  0.00    -0.061 C 
ATOM      7  H   UNL     1      -0.002   3.699  -0.895  0.00  0.00    -0.081 HD
ENDROOT
BRANCH   4   8
ATOM      8  S   UNL     1      -1.523   1.398   2.897  0.00  0.00    +0.061 S 
ATOM      9  O   UNL     1      -2.628   2.132   3.406  0.00  0.00    -0.153 OA
ATOM     10  O   UNL     1      -1.622   0.028   2.532  0.00  0.00    -0.153 OA
BRANCH   8  11
ATOM     11  C   UNL     1      -0.247   1.505   4.108  0.00  0.00    +0.106 A 
ATOM     12  C   UNL     1       0.734   0.533   4.166  0.00  0.00    +0.029 A 
ATOM     13  C   UNL     1       1.738   0.620   5.113  0.00  0.00    +0.017 A 
ATOM     14  C   UNL     1       1.754   1.674   6.008  0.00  0.00    +0.018 A 
ATOM     15  C   UNL     1       0.769   2.644   5.953  0.00  0.00    +0.017 A 
ATOM     16  C   UNL     1      -0.231   2.559   5.003  0.00  0.00    +0.029 A 
ATOM     17 BR   UNL     1       3.123   1.789   7.307  0.00  0.00    -0.050 Br
ENDBRANCH   8  11
ENDBRANCH   4   8
BRANCH   1  18
ATOM     18  C   UNL     1      -1.472   3.606  -2.377  0.00  0.00    +0.020 C 
BRANCH  18  20
ATOM     19  N   UNL     1      -3.552   3.382  -3.697  0.00  0.00    -0.209 N 
ATOM     20  C   UNL     1      -2.874   3.090  -2.569  0.00  0.00    +0.216 C 
ATOM     21  O   UNL     1      -3.394   2.410  -1.709  0.00  0.00    -0.276 OA
ATOM     22  H   UNL     1      -3.081   3.998  -4.477  0.00  0.00    +0.177 HD
BRANCH  19  24
ATOM     23  C   UNL     1      -5.510   3.184  -4.965  0.00  0.00    +0.130 C 
ATOM     24  N   UNL     1      -4.856   2.902  -3.876  0.00  0.00    -0.188 NA
BRANCH  23  26
ATOM     25  C   UNL     1      -5.581   4.271  -7.100  0.00  0.00    +0.009 C 
ATOM     26  C   UNL     1      -4.903   3.978  -5.971  0.00  0.00    +0.022 C 
BRANCH  25  30
ATOM     27  C   UNL     1      -3.765   6.648 -10.108  0.00  0.00    +0.000 A 
ATOM     28  C   UNL     1      -5.053   6.174 -10.289  0.00  0.00    +0.001 A 
ATOM     29  C   UNL     1      -5.650   5.401  -9.316  0.00  0.00    +0.008 A 
ATOM     30  C   UNL     1      -4.951   5.095  -8.144  0.00  0.00    -0.025 A 
ATOM     31  C   UNL     1      -3.652   5.582  -7.967  0.00  0.00    +0.008 A 
ATOM     32  C   UNL     1      -3.067   6.349  -8.952  0.00  0.00    +0.001 A 
ENDBRANCH  25  30
ENDBRANCH  23  26
ENDBRANCH  19  24
ENDBRANCH  18  20
ENDBRANCH   1  18
TORSDOF 7
