REMARK  Name = ZINC59170475
REMARK  7 active torsions:
REMARK  status: ('A' for Active; 'I' for Inactive)
REMARK    1  A    between atoms: C_1  and  C_2
REMARK    2  A    between atoms: C_5  and  N_9
REMARK    3  A    between atoms: C_7  and  C_8
REMARK    4  A    between atoms: C_10  and  C_12
REMARK    5  A    between atoms: N_22  and  C_23
REMARK    6  A    between atoms: C_26  and  S_29
REMARK    7  A    between atoms: S_29  and  N_32
REMARK                            x       y       z     vdW  Elec       q    Type
REMARK                         _______ _______ _______ _____ _____    ______ ____
ROOT
ATOM      1  C   UNL     1      -0.182  -6.284  -1.175  0.00  0.00    +0.098 A 
ATOM      2  C   UNL     1      -0.169  -6.991  -2.371  0.00  0.00    +0.030 A 
ATOM      3  C   UNL     1      -0.208  -8.453  -2.289  0.00  0.00    +0.020 A 
ATOM      4  C   UNL     1       0.070  -9.241  -3.413  0.00  0.00    +0.031 A 
ATOM      5  C   UNL     1       0.029 -10.613  -3.308  0.00  0.00    +0.042 A 
ATOM      6  C   UNL     1      -0.284 -11.216  -2.097  0.00  0.00    +0.023 A 
ATOM      7  C   UNL     1      -0.561 -10.452  -0.982  0.00  0.00    +0.048 A 
ATOM      8  C   UNL     1      -0.528  -9.068  -1.064  0.00  0.00    +0.138 A 
ATOM      9  O   UNL     1      -0.805  -8.305   0.021  0.00  0.00    -0.439 OA
ATOM     10  C   UNL     1      -0.230  -7.074   0.071  0.00  0.00    +0.212 A 
ATOM     11  N   UNL     1       0.264  -6.598   1.194  0.00  0.00    -0.325 N 
ATOM     12 CL   UNL     1       0.371 -11.596  -4.698  0.00  0.00    -0.084 Cl
ATOM     13  H   UNL     1       0.763  -5.766   1.190  0.00  0.00    +0.169 HD
ENDROOT
BRANCH  11  14
ATOM     14  C   UNL     1       0.074  -7.276   2.366  0.00  0.00    +0.042 A 
ATOM     15  C   UNL     1      -1.184  -7.796   2.680  0.00  0.00    +0.027 A 
ATOM     16  C   UNL     1      -1.368  -8.480   3.864  0.00  0.00    +0.030 A 
ATOM     17  C   UNL     1      -0.311  -8.650   4.740  0.00  0.00    +0.105 A 
ATOM     18  C   UNL     1       0.938  -8.137   4.436  0.00  0.00    +0.030 A 
ATOM     19  C   UNL     1       1.139  -7.458   3.252  0.00  0.00    +0.027 A 
BRANCH  17  20
ATOM     20  S   UNL     1      -0.555  -9.523   6.251  0.00  0.00    +0.056 S 
ATOM     21  O   UNL     1       0.452  -9.075   7.147  0.00  0.00    -0.153 OA
ATOM     22  O   UNL     1      -1.940  -9.430   6.554  0.00  0.00    -0.153 OA
BRANCH  20  23
ATOM     23  N   UNL     1      -0.243 -11.121   5.948  0.00  0.00    -0.204 NA
ATOM     24  H   UNL     1       0.103 -11.690   6.654  0.00  0.00    +0.144 HD
ATOM     25  H   UNL     1      -0.407 -11.489   5.066  0.00  0.00    +0.144 HD
ENDBRANCH  20  23
ENDBRANCH  17  20
ENDBRANCH  11  14
BRANCH   1  27
ATOM     26  N   UNL     1      -0.298  -4.153   0.013  0.00  0.00    -0.281 N 
ATOM     27  C   UNL     1      -0.145  -4.812  -1.152  0.00  0.00    +0.253 C 
ATOM     28  O   UNL     1       0.023  -4.192  -2.185  0.00  0.00    -0.270 OA
ATOM     29  H   UNL     1      -0.379  -4.648   0.844  0.00  0.00    +0.155 HD
BRANCH  26  34
ATOM     30  C   UNL     1      -0.467   1.517   0.061  0.00  0.00    +0.044 C 
ATOM     31  C   UNL     1      -0.422   0.011   0.049  0.00  0.00    -0.047 A 
ATOM     32  C   UNL     1       0.394  -0.648  -0.854  0.00  0.00    +0.005 A 
ATOM     33  C   UNL     1       0.438  -2.028  -0.868  0.00  0.00    +0.023 A 
ATOM     34  C   UNL     1      -0.339  -2.755   0.025  0.00  0.00    +0.034 A 
ATOM     35  C   UNL     1      -1.157  -2.091   0.930  0.00  0.00    +0.027 A 
ATOM     36  C   UNL     1      -1.192  -0.710   0.943  0.00  0.00    -0.046 A 
ATOM     37  C   UNL     1      -2.074   0.012   1.928  0.00  0.00    +0.044 C 
ENDBRANCH  26  34
ENDBRANCH   1  27
TORSDOF 5
