REMARK  Name = ZINC42854036
REMARK  11 active torsions:
REMARK  status: ('A' for Active; 'I' for Inactive)
REMARK    1  A    between atoms: N_7  and  C_10
REMARK    2  A    between atoms: C_12  and  O_25
REMARK    3  A    between atoms: P_21  and  O_24
REMARK    4  A    between atoms: O_25  and  C_26
REMARK    5  A    between atoms: N_28  and  C_29
REMARK    6  A    between atoms: C_29  and  C_30
REMARK    7  A    between atoms: C_30  and  C_31
REMARK    8  A    between atoms: C_31  and  C_32
REMARK    9  A    between atoms: C_32  and  C_33
REMARK   10  A    between atoms: C_33  and  C_34
REMARK   11  A    between atoms: C_34  and  N_35
REMARK                            x       y       z     vdW  Elec       q    Type
REMARK                         _______ _______ _______ _____ _____    ______ ____
ROOT
ATOM      1  C   UNL     1       0.596  -3.135  -0.019  0.00  0.00    +0.266 C 
ATOM      2  C   UNL     1       0.160  -3.466  -1.469  0.00  0.00    +0.259 C 
ATOM      3  C   UNL     1       0.688  -4.891  -1.679  0.00  0.00    +0.204 C 
ATOM      4  C   UNL     1       0.725  -5.410  -0.216  0.00  0.00    +0.180 C 
ATOM      5  O   UNL     1       1.270  -4.305   0.505  0.00  0.00    -0.344 OA
ATOM      6  C   UNL     1       1.527  -6.695  -0.167  0.00  0.00    +0.204 C 
ATOM      7  O   UNL     1       0.767  -7.689  -0.896  0.00  0.00    -0.308 OA
ATOM      8  P   UNL     1       0.195  -7.355  -2.379  0.00  0.00    +0.306 P 
ATOM      9  S   UNL     1      -1.322  -8.381  -2.722  0.00  0.00    +0.022 S 
ATOM     10  O   UNL     1      -0.195  -5.753  -2.404  0.00  0.00    -0.301 OA
ENDROOT
BRANCH   1  17
ATOM     11  C   UNL     1      -0.016   1.312   0.009  0.00  0.00    +0.225 A 
ATOM     12  N   UNL     1       1.089   2.036   0.003  0.00  0.00    -0.219 NA
ATOM     13  C   UNL     1       2.288   1.462  -0.012  0.00  0.00    +0.147 A 
ATOM     14  C   UNL     1       2.358   0.059  -0.020  0.00  0.00    +0.147 A 
ATOM     15  C   UNL     1       1.155  -0.666  -0.013  0.00  0.00    +0.167 A 
ATOM     16  N   UNL     1       0.002  -0.004   0.002  0.00  0.00    -0.216 NA
ATOM     17  N   UNL     1       1.511  -1.991  -0.023  0.00  0.00    -0.285 N 
ATOM     18  C   UNL     1       2.873  -2.048  -0.036  0.00  0.00    +0.203 A 
ATOM     19  N   UNL     1       3.368  -0.844  -0.034  0.00  0.00    -0.231 NA
ATOM     20  N   UNL     1       3.439   2.229  -0.019  0.00  0.00    -0.341 N 
ATOM     21  H   UNL     1       3.377   3.197  -0.014  0.00  0.00    +0.144 HD
ATOM     22  H   UNL     1       4.309   1.799  -0.030  0.00  0.00    +0.144 HD
ENDBRANCH   1  17
BRANCH   8  23
ATOM     23  O   UNL     1       1.325  -7.657  -3.485  0.00  0.00    -0.327 OA
ATOM     24  H   UNL     1       1.625  -8.576  -3.500  0.00  0.00    +0.219 HD
ENDBRANCH   8  23
BRANCH   2  25
ATOM     25  O   UNL     1      -1.263  -3.429  -1.589  0.00  0.00    -0.440 OA
BRANCH  25  26
ATOM     26  C   UNL     1      -1.816  -2.256  -1.951  0.00  0.00    +0.401 C 
ATOM     27  O   UNL     1      -1.109  -1.290  -2.161  0.00  0.00    -0.226 OA
ATOM     28  N   UNL     1      -3.154  -2.154  -2.082  0.00  0.00    -0.281 N 
ATOM     29  H   UNL     1      -3.718  -2.925  -1.915  0.00  0.00    +0.152 HD
BRANCH  28  30
ATOM     30  C   UNL     1      -3.755  -0.878  -2.477  0.00  0.00    +0.107 C 
BRANCH  30  31
ATOM     31  C   UNL     1      -5.276  -1.032  -2.552  0.00  0.00    +0.019 C 
BRANCH  31  32
ATOM     32  C   UNL     1      -5.904   0.301  -2.964  0.00  0.00    +0.001 C 
BRANCH  32  33
ATOM     33  C   UNL     1      -7.424   0.146  -3.039  0.00  0.00    -0.002 C 
BRANCH  33  34
ATOM     34  C   UNL     1      -8.053   1.479  -3.451  0.00  0.00    -0.020 C 
BRANCH  34  35
ATOM     35  C   UNL     1      -9.573   1.325  -3.526  0.00  0.00    -0.086 C 
BRANCH  35  36
ATOM     36  N   UNL     1     -10.176   2.604  -3.921  0.00  0.00    +0.378 N 
ATOM     37  H   UNL     1      -9.943   3.311  -3.240  0.00  0.00    -0.090 HD
ATOM     38  H   UNL     1      -9.821   2.878  -4.825  0.00  0.00    -0.090 HD
ATOM     39  H   UNL     1     -11.179   2.502  -3.971  0.00  0.00    -0.090 HD
ENDBRANCH  35  36
ENDBRANCH  34  35
ENDBRANCH  33  34
ENDBRANCH  32  33
ENDBRANCH  31  32
ENDBRANCH  30  31
ENDBRANCH  28  30
ENDBRANCH  25  26
ENDBRANCH   2  25
TORSDOF 11
