REMARK  Name = ZINC22876949
REMARK  11 active torsions:
REMARK  status: ('A' for Active; 'I' for Inactive)
REMARK    1  A    between atoms: C_1  and  C_2
REMARK    2  A    between atoms: C_3  and  C_33
REMARK    3  A    between atoms: C_11  and  C_13
REMARK    4  A    between atoms: C_13  and  S_14
REMARK    5  A    between atoms: S_14  and  C_15
REMARK    6  A    between atoms: C_18  and  C_27
REMARK    7  A    between atoms: N_19  and  C_20
REMARK    8  A    between atoms: C_27  and  C_29
REMARK    9  A    between atoms: C_27  and  N_30
REMARK   10  A    between atoms: N_30  and  C_31
REMARK   11  A    between atoms: N_30  and  C_32
REMARK                            x       y       z     vdW  Elec       q    Type
REMARK                         _______ _______ _______ _____ _____    ______ ____
ROOT
ATOM      1  C   UNL     1       0.134  -6.118   5.400  0.00  0.00    +0.196 A 
ATOM      2  N   UNL     1       0.133  -5.674   6.636  0.00  0.00    -0.122 NA
ATOM      3  N   UNL     1       0.156  -6.663   7.456  0.00  0.00    -0.135 NA
ATOM      4  C   UNL     1       0.172  -7.789   6.801  0.00  0.00    +0.125 A 
ATOM      5  N   UNL     1       0.153  -7.484   5.466  0.00  0.00    -0.275 N 
ENDROOT
BRANCH   5   6
ATOM      6  C   UNL     1       0.155  -8.385   4.390  0.00  0.00    +0.050 A 
ATOM      7  C   UNL     1      -0.927  -9.230   4.190  0.00  0.00    +0.028 A 
ATOM      8  C   UNL     1      -0.922 -10.116   3.130  0.00  0.00    +0.022 A 
ATOM      9  C   UNL     1       0.160 -10.161   2.268  0.00  0.00    +0.041 A 
ATOM     10  C   UNL     1       1.240  -9.318   2.466  0.00  0.00    +0.022 A 
ATOM     11  C   UNL     1       1.237  -8.427   3.522  0.00  0.00    +0.028 A 
ATOM     12 CL   UNL     1       0.163 -11.276   0.938  0.00  0.00    -0.084 Cl
ENDBRANCH   5   6
BRANCH   4  13
ATOM     13  C   UNL     1       0.201  -9.171   7.401  0.00  0.00    -0.003 C 
ATOM     14  C   UNL     1      -1.183  -9.516   7.955  0.00  0.00    -0.005 C 
BRANCH  13  15
ATOM     15  N   UNL     1       1.188  -9.212   8.489  0.00  0.00    +0.382 N 
ATOM     16  C   UNL     1       1.216 -10.559   9.074  0.00  0.00    -0.096 C 
ATOM     17  C   UNL     1       2.517  -8.881   7.957  0.00  0.00    -0.096 C 
ATOM     18  H   UNL     1       0.933  -8.542   9.199  0.00  0.00    -0.082 HD
ENDBRANCH  13  15
ENDBRANCH   4  13
BRANCH   1  19
ATOM     19  S   UNL     1       0.108  -5.139   3.935  0.00  0.00    -0.078 S 
BRANCH  19  20
ATOM     20  C   UNL     1       0.090  -3.432   4.547  0.00  0.00    +0.151 C 
BRANCH  20  31
ATOM     21  C   UNL     1      -0.018   1.503   0.010  0.00  0.00    +0.045 C 
ATOM     22  C   UNL     1       0.002  -0.004   0.002  0.00  0.00    -0.026 A 
ATOM     23  C   UNL     1       0.006  -0.677  -1.160  0.00  0.00    -0.008 A 
ATOM     24  S   UNL     1       0.032  -2.385  -0.648  0.00  0.00    -0.073 S 
ATOM     25  C   UNL     1       0.037  -2.144   1.110  0.00  0.00    +0.116 A 
ATOM     26  C   UNL     1       0.024  -0.745   1.250  0.00  0.00    +0.075 A 
ATOM     27  C   UNL     1       0.029  -0.257   2.597  0.00  0.00    +0.260 A 
ATOM     28  O   UNL     1       0.014   0.942   2.821  0.00  0.00    -0.267 OA
ATOM     29  N   UNL     1       0.051  -1.142   3.611  0.00  0.00    -0.310 N 
ATOM     30  H   UNL     1       0.054  -0.817   4.525  0.00  0.00    +0.170 HD
ATOM     31  C   UNL     1       0.067  -2.480   3.380  0.00  0.00    +0.121 A 
ATOM     32  N   UNL     1       0.053  -2.956   2.163  0.00  0.00    -0.226 NA
ATOM     33  C   UNL     1      -0.009  -0.122  -2.561  0.00  0.00    +0.052 C 
ENDBRANCH  20  31
ENDBRANCH  19  20
ENDBRANCH   1  19
TORSDOF 6
