REMARK  Name = ZINC12930941
REMARK  9 active torsions:
REMARK  status: ('A' for Active; 'I' for Inactive)
REMARK    1  A    between atoms: C_1  and  C_2
REMARK    2  A    between atoms: C_2  and  C_3
REMARK    3  A    between atoms: C_3  and  C_4
REMARK    4  A    between atoms: C_4  and  N_5
REMARK    5  A    between atoms: N_5  and  C_6
REMARK    6  A    between atoms: C_7  and  N_22
REMARK    7  A    between atoms: N_8  and  C_15
REMARK    8  A    between atoms: C_15  and  C_16
REMARK    9  A    between atoms: C_23  and  C_25
REMARK                            x       y       z     vdW  Elec       q    Type
REMARK                         _______ _______ _______ _____ _____    ______ ____
ROOT
ATOM      1  C   UNL     1       2.836  -1.270  -2.673  0.00  0.00    +0.140 A 
ATOM      2  C   UNL     1       3.811  -2.058  -2.096  0.00  0.00    +0.128 A 
ATOM      3  N   UNL     1       5.073  -2.073  -2.643  0.00  0.00    -0.276 N 
ATOM      4  C   UNL     1       5.354  -1.328  -3.728  0.00  0.00    +0.331 A 
ATOM      5  O   UNL     1       6.476  -1.356  -4.196  0.00  0.00    -0.246 OA
ATOM      6  N   UNL     1       4.417  -0.554  -4.303  0.00  0.00    -0.273 N 
ATOM      7  H   UNL     1       4.644  -0.027  -5.085  0.00  0.00    +0.173 HD
ATOM      8  C   UNL     1       3.164  -0.508  -3.810  0.00  0.00    +0.277 A 
ATOM      9  O   UNL     1       2.320   0.193  -4.343  0.00  0.00    -0.266 OA
ENDROOT
BRANCH   1  10
ATOM     10  N   UNL     1       1.532  -1.234  -2.136  0.00  0.00    -0.258 N 
ATOM     11  C   UNL     1       0.478  -1.579  -2.901  0.00  0.00    +0.289 C 
ATOM     12  O   UNL     1      -0.651  -1.514  -2.449  0.00  0.00    -0.266 OA
BRANCH  11  13
ATOM     13  C   UNL     1       0.690  -2.033  -4.277  0.00  0.00    +0.217 C 
ATOM     14  C   UNL     1       1.803  -2.715  -4.577  0.00  0.00    +0.238 C 
ATOM     15  O   UNL     1       2.052  -3.151  -5.830  0.00  0.00    -0.492 OA
ATOM     16  C   UNL     1       0.939  -3.194  -6.731  0.00  0.00    +0.269 C 
ATOM     17  C   UNL     1       0.160  -1.879  -6.590  0.00  0.00    +0.270 C 
ATOM     18  O   UNL     1      -0.252  -1.756  -5.221  0.00  0.00    -0.481 OA
ENDBRANCH  11  13
BRANCH  10  19
ATOM     19  C   UNL     1       1.324  -0.820  -0.746  0.00  0.00    +0.114 C 
BRANCH  19  20
ATOM     20  C   UNL     1       1.264   0.707  -0.671  0.00  0.00    +0.019 C 
BRANCH  20  22
ATOM     21  C   UNL     1       0.988   2.666   0.855  0.00  0.00    +0.004 C 
ATOM     22  C   UNL     1       1.047   1.139   0.780  0.00  0.00    -0.002 C 
ENDBRANCH  20  22
ENDBRANCH  19  20
ENDBRANCH  10  19
ENDBRANCH   1  10
BRANCH   2  23
ATOM     23  N   UNL     1       3.524  -2.819  -0.988  0.00  0.00    -0.343 N 
ATOM     24  H   UNL     1       2.602  -3.011  -0.757  0.00  0.00    +0.144 HD
ATOM     25  H   UNL     1       4.244  -3.163  -0.436  0.00  0.00    +0.144 HD
ENDBRANCH   2  23
BRANCH   3  26
ATOM     26  C   UNL     1       6.118  -2.905  -2.041  0.00  0.00    +0.163 C 
BRANCH  26  27
ATOM     27  C   UNL     1       6.099  -4.272  -2.674  0.00  0.00    -0.028 A 
ATOM     28  C   UNL     1       5.310  -5.272  -2.137  0.00  0.00    +0.005 A 
ATOM     29  C   UNL     1       5.293  -6.526  -2.718  0.00  0.00    +0.000 A 
ATOM     30  C   UNL     1       6.065  -6.780  -3.836  0.00  0.00    +0.000 A 
ATOM     31  C   UNL     1       6.854  -5.780  -4.373  0.00  0.00    +0.000 A 
ATOM     32  C   UNL     1       6.868  -4.525  -3.795  0.00  0.00    +0.005 A 
ENDBRANCH  26  27
ENDBRANCH   3  26
TORSDOF 8
