REMARK  Name = ZINC34792119
REMARK  12 active torsions:
REMARK  status: ('A' for Active; 'I' for Inactive)
REMARK    1  A    between atoms: C_1  and  N_2
REMARK    2  A    between atoms: C_5  and  C_10
REMARK    3  A    between atoms: C_15  and  C_16
REMARK    4  A    between atoms: N_22  and  C_24
REMARK    5  A    between atoms: C_24  and  C_25
REMARK    6  A    between atoms: N_27  and  C_28
REMARK    7  A    between atoms: N_27  and  C_33
REMARK    8  A    between atoms: C_28  and  C_29
REMARK    9  A    between atoms: C_29  and  N_30
REMARK   10  A    between atoms: N_30  and  C_31
REMARK   11  A    between atoms: N_30  and  C_32
REMARK   12  A    between atoms: C_33  and  C_34
REMARK                            x       y       z     vdW  Elec       q    Type
REMARK                         _______ _______ _______ _____ _____    ______ ____
ROOT
ATOM      1  C   UNL     1      -0.159   1.450  -0.005  0.00  0.00    +0.139 C 
ATOM      2  N   UNL     1      -0.062  -0.012  -0.009  0.00  0.00    -0.260 N 
ATOM      3  C   UNL     1      -1.217  -0.735  -0.093  0.00  0.00    +0.042 C 
ATOM      4  C   UNL     1      -1.199  -2.084  -0.102  0.00  0.00    +0.058 C 
ATOM      5  C   UNL     1       0.149  -2.770  -0.016  0.00  0.00    +0.142 C 
ATOM      6  N   UNL     1       1.335  -1.902   0.072  0.00  0.00    -0.288 N 
ATOM      7  C   UNL     1       1.155  -0.566   0.065  0.00  0.00    +0.307 C 
ATOM      8  O   UNL     1       2.129   0.159   0.132  0.00  0.00    -0.252 OA
ATOM      9  C   UNL     1      -2.511  -2.592  -0.195  0.00  0.00    +0.247 C 
ATOM     10  O   UNL     1      -2.789  -3.776  -0.223  0.00  0.00    -0.270 OA
ATOM     11  N   UNL     1      -3.414  -1.597  -0.249  0.00  0.00    -0.283 N 
ATOM     12  C   UNL     1      -2.671  -0.329  -0.189  0.00  0.00    +0.160 C 
ATOM     13  H   UNL     1       2.226  -2.282   0.130  0.00  0.00    +0.151 HD
ENDROOT
BRANCH   5  14
ATOM     14  C   UNL     1       0.138  -3.664   1.198  0.00  0.00    -0.011 A 
ATOM     15  C   UNL     1       0.158  -3.111   2.464  0.00  0.00    +0.006 A 
ATOM     16  C   UNL     1       0.148  -3.930   3.577  0.00  0.00    +0.000 A 
ATOM     17  C   UNL     1       0.118  -5.304   3.424  0.00  0.00    +0.001 A 
ATOM     18  C   UNL     1       0.097  -5.857   2.157  0.00  0.00    +0.013 A 
ATOM     19  C   UNL     1       0.103  -5.037   1.044  0.00  0.00    +0.060 A 
BRANCH  19  20
ATOM     20  C   UNL     1       0.075  -5.641  -0.337  0.00  0.00    +0.418 C 
ATOM     21  F   UNL     1      -0.031  -7.032  -0.235  0.00  0.00    -0.166 F 
ATOM     22  F   UNL     1      -1.024  -5.139  -1.042  0.00  0.00    -0.166 F 
ATOM     23  F   UNL     1       1.254  -5.311  -1.014  0.00  0.00    -0.166 F 
ENDBRANCH  19  20
ENDBRANCH   5  14
BRANCH  11  24
ATOM     24  C   UNL     1      -4.868  -1.747  -0.349  0.00  0.00    +0.204 C 
BRANCH  24  25
ATOM     25  C   UNL     1      -5.463  -1.809   1.034  0.00  0.00    +0.233 C 
ATOM     26  O   UNL     1      -4.744  -1.735   2.007  0.00  0.00    -0.274 OA
ATOM     27  N   UNL     1      -6.795  -1.947   1.189  0.00  0.00    -0.298 N 
BRANCH  27  28
ATOM     28  C   UNL     1      -7.664  -2.037   0.013  0.00  0.00    +0.089 C 
BRANCH  28  29
ATOM     29  C   UNL     1      -7.817  -3.503  -0.397  0.00  0.00    -0.060 C 
BRANCH  29  30
ATOM     30  N   UNL     1      -8.689  -3.593  -1.577  0.00  0.00    +0.377 N 
ATOM     31  C   UNL     1      -8.037  -2.937  -2.718  0.00  0.00    -0.097 C 
ATOM     32  C   UNL     1      -8.933  -5.006  -1.898  0.00  0.00    -0.097 C 
ATOM     33  H   UNL     1      -9.567  -3.136  -1.382  0.00  0.00    -0.083 HD
ENDBRANCH  29  30
ENDBRANCH  28  29
ENDBRANCH  27  28
BRANCH  27  34
ATOM     34  C   UNL     1      -7.373  -2.008   2.533  0.00  0.00    +0.142 C 
BRANCH  34  35
ATOM     35  C   UNL     1      -7.718  -0.615   2.995  0.00  0.00    -0.030 A 
ATOM     36  C   UNL     1      -6.782   0.139   3.677  0.00  0.00    +0.005 A 
ATOM     37  C   UNL     1      -7.098   1.416   4.100  0.00  0.00    +0.000 A 
ATOM     38  C   UNL     1      -8.351   1.940   3.841  0.00  0.00    +0.000 A 
ATOM     39  C   UNL     1      -9.287   1.186   3.158  0.00  0.00    +0.000 A 
ATOM     40  C   UNL     1      -8.970  -0.090   2.731  0.00  0.00    +0.005 A 
ENDBRANCH  34  35
ENDBRANCH  27  34
ENDBRANCH  24  25
ENDBRANCH  11  24
TORSDOF 9
