REMARK  Name = ZINC00205339
REMARK  3 active torsions:
REMARK  status: ('A' for Active; 'I' for Inactive)
REMARK    1  A    between atoms: C_4  and  C_7
REMARK    2  A    between atoms: C_9  and  N_15
REMARK    3  A    between atoms: C_16  and  C_18
REMARK                            x       y       z     vdW  Elec       q    Type
REMARK                         _______ _______ _______ _____ _____    ______ ____
ROOT
ATOM      1  C   UNL     1       3.711  -0.707  -0.038  0.00  0.00    +0.132 C 
ATOM      2  C   UNL     1       4.050  -1.269   1.365  0.00  0.00    +0.183 C 
ATOM      3  C   UNL     1       3.504  -2.683   1.285  0.00  0.00    +0.249 C 
ATOM      4  O   UNL     1       3.312  -3.428   2.223  0.00  0.00    -0.272 OA
ATOM      5  N   UNL     1       3.271  -2.965  -0.011  0.00  0.00    -0.249 N 
ATOM      6  N   UNL     1       3.616  -1.944  -0.847  0.00  0.00    -0.231 NA
ATOM      7  H   UNL     1       2.897  -3.806  -0.317  0.00  0.00    +0.169 HD
ATOM      8  H   UNL     1       4.488  -2.138  -1.315  0.00  0.00    +0.145 HD
ENDROOT
BRANCH   1  12
ATOM      9  C   UNL     1      -0.017   1.378   0.010  0.00  0.00    +0.000 A 
ATOM     10  C   UNL     1       1.171   2.086   0.002  0.00  0.00    +0.000 A 
ATOM     11  C   UNL     1       2.377   1.411  -0.013  0.00  0.00    +0.005 A 
ATOM     12  C   UNL     1       2.396   0.029  -0.020  0.00  0.00    -0.027 A 
ATOM     13  C   UNL     1       1.208  -0.679  -0.012  0.00  0.00    +0.005 A 
ATOM     14  C   UNL     1       0.002  -0.004   0.002  0.00  0.00    +0.000 A 
ENDBRANCH   1  12
BRANCH   2  15
ATOM     15  N   UNL     1       5.498  -1.276   1.588  0.00  0.00    -0.298 N 
ATOM     16  C   UNL     1       5.986  -1.233   2.843  0.00  0.00    +0.245 C 
ATOM     17  O   UNL     1       5.225  -1.189   3.790  0.00  0.00    -0.270 OA
ATOM     18  H   UNL     1       6.105  -1.311   0.832  0.00  0.00    +0.150 HD
BRANCH  16  19
ATOM     19  C   UNL     1       7.447  -1.240   3.069  0.00  0.00    +0.037 A 
ATOM     20  C   UNL     1       8.324  -1.285   1.983  0.00  0.00    +0.013 A 
ATOM     21  C   UNL     1       9.686  -1.291   2.200  0.00  0.00    +0.001 A 
ATOM     22  C   UNL     1      10.184  -1.253   3.491  0.00  0.00    +0.000 A 
ATOM     23  C   UNL     1       9.321  -1.208   4.571  0.00  0.00    +0.001 A 
ATOM     24  C   UNL     1       7.956  -1.196   4.367  0.00  0.00    +0.013 A 
ENDBRANCH  16  19
ENDBRANCH   2  15
TORSDOF 3
