REMARK  Name = ZINC21239172
REMARK  13 active torsions:
REMARK  status: ('A' for Active; 'I' for Inactive)
REMARK    1  A    between atoms: C_1  and  C_2
REMARK    2  A    between atoms: C_2  and  C_3
REMARK    3  A    between atoms: C_2  and  O_4
REMARK    4  A    between atoms: O_4  and  C_5
REMARK    5  A    between atoms: C_8  and  C_13
REMARK    6  A    between atoms: C_10  and  O_11
REMARK    7  A    between atoms: O_11  and  C_12
REMARK    8  A    between atoms: C_18  and  C_28
REMARK    9  A    between atoms: C_30  and  O_37
REMARK   10  A    between atoms: C_31  and  O_36
REMARK   11  A    between atoms: C_32  and  O_34
REMARK   12  A    between atoms: O_34  and  C_35
REMARK   13  A    between atoms: O_37  and  C_38
REMARK                            x       y       z     vdW  Elec       q    Type
REMARK                         _______ _______ _______ _____ _____    ______ ____
ROOT
ATOM      1  C   UNL     1      -0.813   2.753  -0.299  0.00  0.00    +0.032 C 
ATOM      2  C   UNL     1      -1.210   4.189   0.037  0.00  0.00    +0.059 C 
ATOM      3  C   UNL     1      -1.962   4.224   1.357  0.00  0.00    +0.017 C 
ATOM      4  C   UNL     1      -1.669   3.344   2.330  0.00  0.00    +0.036 C 
ATOM      5  C   UNL     1      -2.332   3.270   3.685  0.00  0.00    +0.136 C 
ATOM      6  N   UNL     1      -3.173   4.403   4.006  0.00  0.00    -0.331 N 
ATOM      7  C   UNL     1      -4.327   4.673   3.273  0.00  0.00    +0.049 A 
ATOM      8  C   UNL     1      -5.587   4.540   3.834  0.00  0.00    +0.025 A 
ATOM      9  C   UNL     1      -6.707   4.708   3.037  0.00  0.00    +0.002 A 
ATOM     10  C   UNL     1      -6.572   5.006   1.694  0.00  0.00    +0.002 A 
ATOM     11  C   UNL     1      -5.314   5.160   1.135  0.00  0.00    +0.025 A 
ATOM     12  C   UNL     1      -4.194   5.010   1.934  0.00  0.00    +0.052 A 
ATOM     13  N   UNL     1      -2.904   5.196   1.450  0.00  0.00    -0.316 N 
ATOM     14  C   UNL     1      -0.665   2.365   2.130  0.00  0.00    +0.163 C 
ATOM     15  O   UNL     1      -0.400   1.599   3.036  0.00  0.00    -0.292 OA
ATOM     16  C   UNL     1       0.081   2.239   0.836  0.00  0.00    +0.088 C 
ATOM     17  H   UNL     1      -2.905   5.068   4.841  0.00  0.00    +0.147 HD
ATOM     18  H   UNL     1      -2.670   6.222   1.130  0.00  0.00    +0.152 HD
ENDROOT
BRANCH   1  22
ATOM     19  C   UNL     1       1.346   2.671  -3.990  0.00  0.00    +0.162 A 
ATOM     20  C   UNL     1       1.810   3.433  -2.930  0.00  0.00    +0.050 A 
ATOM     21  C   UNL     1       1.109   3.457  -1.738  0.00  0.00    +0.008 A 
ATOM     22  C   UNL     1      -0.054   2.723  -1.601  0.00  0.00    -0.040 A 
ATOM     23  C   UNL     1      -0.519   1.956  -2.653  0.00  0.00    +0.053 A 
ATOM     24  C   UNL     1       0.176   1.931  -3.852  0.00  0.00    +0.162 A 
BRANCH  24  25
ATOM     25  O   UNL     1      -0.283   1.181  -4.889  0.00  0.00    -0.491 OA
ATOM     26  C   UNL     1      -1.491   0.448  -4.676  0.00  0.00    +0.277 C 
ENDBRANCH  24  25
BRANCH  19  27
ATOM     27  O   UNL     1       2.034   2.645  -5.163  0.00  0.00    -0.486 OA
BRANCH  27  29
ATOM     28  C   UNL     1       4.189   2.692  -6.256  0.00  0.00    +0.051 C 
ATOM     29  C   UNL     1       3.290   3.327  -5.194  0.00  0.00    +0.167 C 
ATOM     30  C   UNL     1       3.062   4.801  -5.533  0.00  0.00    +0.051 C 
ENDBRANCH  27  29
ENDBRANCH  19  27
ENDBRANCH   1  22
BRANCH   5  31
ATOM     31  C   UNL     1      -3.174   2.021   3.736  0.00  0.00    -0.016 A 
ATOM     32  C   UNL     1      -2.901   1.044   4.674  0.00  0.00    +0.055 A 
ATOM     33  C   UNL     1      -3.677  -0.104   4.728  0.00  0.00    +0.165 A 
ATOM     34  C   UNL     1      -4.723  -0.277   3.830  0.00  0.00    +0.201 A 
ATOM     35  C   UNL     1      -4.991   0.706   2.884  0.00  0.00    +0.165 A 
ATOM     36  C   UNL     1      -4.214   1.854   2.841  0.00  0.00    +0.055 A 
BRANCH  35  37
ATOM     37  O   UNL     1      -6.014   0.542   2.003  0.00  0.00    -0.491 OA
ATOM     38  C   UNL     1      -6.232   1.593   1.060  0.00  0.00    +0.277 C 
ENDBRANCH  35  37
BRANCH  34  39
ATOM     39  O   UNL     1      -5.483  -1.405   3.875  0.00  0.00    -0.501 OA
ATOM     40  H   UNL     1      -6.310  -1.540   3.163  0.00  0.00    +0.292 HD
ENDBRANCH  34  39
BRANCH  33  41
ATOM     41  O   UNL     1      -3.410  -1.063   5.655  0.00  0.00    -0.491 OA
ATOM     42  C   UNL     1      -2.391  -0.773   6.614  0.00  0.00    +0.277 C 
ENDBRANCH  33  41
ENDBRANCH   5  31
TORSDOF 8
