REMARK  Name = ZINC02998796
REMARK  15 active torsions:
REMARK  status: ('A' for Active; 'I' for Inactive)
REMARK    1  A    between atoms: C_1  and  C_2
REMARK    2  A    between atoms: C_2  and  C_3
REMARK    3  A    between atoms: C_2  and  C_4
REMARK    4  A    between atoms: C_4  and  C_5
REMARK    5  A    between atoms: C_5  and  N_6
REMARK    6  A    between atoms: N_6  and  S_7
REMARK    7  A    between atoms: S_7  and  C_10
REMARK    8  A    between atoms: N_17  and  N_18
REMARK    9  A    between atoms: C_23  and  S_25
REMARK   10  A    between atoms: S_25  and  N_28
REMARK   11  A    between atoms: N_28  and  C_29
REMARK   12  A    between atoms: C_29  and  C_30
REMARK   13  A    between atoms: C_30  and  C_31
REMARK   14  A    between atoms: C_31  and  C_32
REMARK   15  A    between atoms: C_31  and  C_33
REMARK                            x       y       z     vdW  Elec       q    Type
REMARK                         _______ _______ _______ _____ _____    ______ ____
ROOT
ATOM      1  C   UNL     1      -1.026   1.968   1.339  0.00  0.00    +0.106 A 
ATOM      2  C   UNL     1      -1.972   1.106   1.873  0.00  0.00    +0.029 A 
ATOM      3  C   UNL     1      -2.685   1.460   2.999  0.00  0.00    +0.011 A 
ATOM      4  C   UNL     1      -2.457   2.693   3.610  0.00  0.00    -0.008 A 
ATOM      5  C   UNL     1      -1.497   3.566   3.066  0.00  0.00    +0.012 A 
ATOM      6  C   UNL     1      -0.782   3.189   1.931  0.00  0.00    +0.039 A 
ATOM      7  C   UNL     1      -1.466   4.782   3.905  0.00  0.00    +0.097 C 
ATOM      8  N   UNL     1      -0.702   5.831   3.727  0.00  0.00    -0.189 NA
ATOM      9  C   UNL     1      -2.460   4.592   4.982  0.00  0.00    +0.012 A 
ATOM     10  C   UNL     1      -3.055   3.332   4.800  0.00  0.00    -0.008 A 
ATOM     11  C   UNL     1      -4.038   2.903   5.693  0.00  0.00    +0.011 A 
ATOM     12  C   UNL     1      -4.417   3.714   6.742  0.00  0.00    +0.029 A 
ATOM     13  C   UNL     1      -3.829   4.957   6.919  0.00  0.00    +0.106 A 
ATOM     14  C   UNL     1      -2.856   5.399   6.047  0.00  0.00    +0.039 A 
ENDROOT
BRANCH   1  15
ATOM     15  S   UNL     1      -0.126   1.497  -0.101  0.00  0.00    +0.058 S 
ATOM     16  O   UNL     1      -0.145   0.076  -0.145  0.00  0.00    -0.153 OA
ATOM     17  O   UNL     1       1.083   2.242  -0.086  0.00  0.00    -0.153 OA
BRANCH  15  18
ATOM     18  N   UNL     1      -0.990   2.023  -1.412  0.00  0.00    -0.190 NA
ATOM     19  H   UNL     1      -1.372   1.381  -2.031  0.00  0.00    +0.148 HD
BRANCH  18  20
ATOM     20  C   UNL     1      -1.178   3.458  -1.638  0.00  0.00    +0.106 C 
BRANCH  20  21
ATOM     21  C   UNL     1      -1.666   3.690  -3.069  0.00  0.00    +0.020 C 
BRANCH  21  23
ATOM     22  C   UNL     1      -2.230   5.431  -4.770  0.00  0.00    +0.007 C 
ATOM     23  C   UNL     1      -1.863   5.189  -3.304  0.00  0.00    -0.016 C 
ATOM     24  C   UNL     1      -2.988   5.703  -2.405  0.00  0.00    +0.007 C 
ENDBRANCH  21  23
ENDBRANCH  20  21
ENDBRANCH  18  20
ENDBRANCH  15  18
ENDBRANCH   1  15
BRANCH   8  25
ATOM     25  N   UNL     1      -0.886   6.974   4.516  0.00  0.00    -0.282 N 
ATOM     26  H   UNL     1      -0.158   7.604   4.634  0.00  0.00    +0.164 HD
ATOM     27  H   UNL     1      -1.741   7.135   4.945  0.00  0.00    +0.164 HD
ENDBRANCH   8  25
BRANCH  13  28
ATOM     28  S   UNL     1      -4.328   5.978   8.266  0.00  0.00    +0.058 S 
ATOM     29  O   UNL     1      -4.866   5.111   9.255  0.00  0.00    -0.153 OA
ATOM     30  O   UNL     1      -3.244   6.857   8.532  0.00  0.00    -0.153 OA
BRANCH  28  31
ATOM     31  N   UNL     1      -5.580   6.919   7.730  0.00  0.00    -0.190 NA
ATOM     32  H   UNL     1      -5.473   7.881   7.671  0.00  0.00    +0.148 HD
BRANCH  31  33
ATOM     33  C   UNL     1      -6.850   6.298   7.343  0.00  0.00    +0.106 C 
BRANCH  33  34
ATOM     34  C   UNL     1      -7.935   7.373   7.250  0.00  0.00    +0.020 C 
BRANCH  34  35
ATOM     35  C   UNL     1      -9.261   6.725   6.847  0.00  0.00    -0.016 C 
ATOM     36  C   UNL     1     -10.372   7.776   6.875  0.00  0.00    +0.007 C 
ATOM     37  C   UNL     1      -9.139   6.149   5.435  0.00  0.00    +0.007 C 
ENDBRANCH  34  35
ENDBRANCH  33  34
ENDBRANCH  31  33
ENDBRANCH  28  31
ENDBRANCH  13  28
TORSDOF 11
