REMARK  Name = ZINC35953755
REMARK  7 active torsions:
REMARK  status: ('A' for Active; 'I' for Inactive)
REMARK    1  A    between atoms: C_1  and  C_2
REMARK    2  A    between atoms: C_2  and  C_3
REMARK    3  A    between atoms: C_2  and  C_4
REMARK    4  A    between atoms: C_2  and  C_5
REMARK    5  A    between atoms: C_9  and  C_33
REMARK    6  A    between atoms: C_11  and  C_14
REMARK    7  A    between atoms: C_19  and  N_22
REMARK                            x       y       z     vdW  Elec       q    Type
REMARK                         _______ _______ _______ _____ _____    ______ ____
ROOT
ATOM      1  C   UNL     1       0.708  -0.263  -1.307  0.00  0.00    +0.071 A 
ATOM      2  C   UNL     1       2.080  -0.383  -1.460  0.00  0.00    +0.073 A 
ATOM      3  C   UNL     1       2.317  -0.967  -2.701  0.00  0.00    +0.157 A 
ATOM      4  N   UNL     1       3.441  -1.304  -3.338  0.00  0.00    -0.228 NA
ATOM      5  C   UNL     1       3.405  -1.859  -4.535  0.00  0.00    +0.077 A 
ATOM      6  C   UNL     1       2.167  -2.108  -5.167  0.00  0.00    +0.061 A 
ATOM      7  C   UNL     1       1.011  -1.767  -4.524  0.00  0.00    +0.131 A 
ATOM      8  N   UNL     1       1.089  -1.190  -3.275  0.00  0.00    -0.209 N 
ATOM      9  N   UNL     1       0.114  -0.743  -2.377  0.00  0.00    -0.169 NA
ENDROOT
BRANCH   7  10
ATOM     10  C   UNL     1      -0.299  -2.013  -5.155  0.00  0.00    +0.265 C 
ATOM     11  O   UNL     1      -0.881  -1.107  -5.720  0.00  0.00    -0.268 OA
ATOM     12  N   UNL     1      -0.851  -3.242  -5.106  0.00  0.00    -0.296 N 
ATOM     13  C   UNL     1      -0.116  -4.370  -4.517  0.00  0.00    +0.110 C 
ATOM     14  C   UNL     1      -0.076  -5.516  -5.532  0.00  0.00    +0.044 C 
ATOM     15  C   UNL     1      -1.503  -5.856  -5.969  0.00  0.00    +0.095 C 
ATOM     16  C   UNL     1      -2.136  -4.636  -6.643  0.00  0.00    +0.044 C 
ATOM     17  C   UNL     1      -2.201  -3.478  -5.635  0.00  0.00    +0.110 C 
BRANCH  15  18
ATOM     18  N   UNL     1      -1.471  -6.974  -6.915  0.00  0.00    -0.289 N 
ATOM     19  C   UNL     1      -2.098  -8.206  -6.742  0.00  0.00    +0.070 A 
ATOM     20  C   UNL     1      -2.881  -8.741  -5.731  0.00  0.00    +0.028 A 
ATOM     21  C   UNL     1      -3.373 -10.026  -5.849  0.00  0.00    +0.002 A 
ATOM     22  C   UNL     1      -3.086 -10.782  -6.973  0.00  0.00    +0.002 A 
ATOM     23  C   UNL     1      -2.307 -10.258  -7.985  0.00  0.00    +0.028 A 
ATOM     24  C   UNL     1      -1.810  -8.968  -7.876  0.00  0.00    +0.067 A 
ATOM     25  N   UNL     1      -1.016  -8.176  -8.702  0.00  0.00    -0.306 N 
ATOM     26  H   UNL     1      -0.658  -8.436  -9.565  0.00  0.00    +0.170 HD
ATOM     27  C   UNL     1      -0.835  -6.984  -8.101  0.00  0.00    +0.328 A 
ATOM     28  O   UNL     1      -0.192  -6.059  -8.560  0.00  0.00    -0.247 OA
ENDBRANCH  15  18
ENDBRANCH   7  10
BRANCH   5  29
ATOM     29  C   UNL     1       4.669  -2.222  -5.219  0.00  0.00    +0.019 A 
ATOM     30  C   UNL     1       4.638  -2.803  -6.486  0.00  0.00    +0.011 A 
ATOM     31  C   UNL     1       5.817  -3.139  -7.117  0.00  0.00    +0.001 A 
ATOM     32  C   UNL     1       7.031  -2.900  -6.496  0.00  0.00    +0.001 A 
ATOM     33  C   UNL     1       7.069  -2.324  -5.240  0.00  0.00    +0.020 A 
ATOM     34  C   UNL     1       5.895  -1.978  -4.599  0.00  0.00    +0.050 A 
ATOM     35 CL   UNL     1       5.945  -1.248  -3.025  0.00  0.00    -0.083 Cl
ENDBRANCH   5  29
BRANCH   1  37
ATOM     36  C   UNL     1       0.163   1.842  -0.114  0.00  0.00    +0.017 C 
ATOM     37  C   UNL     1       0.010   0.319  -0.105  0.00  0.00    +0.006 C 
ATOM     38  C   UNL     1       0.633  -0.248   1.171  0.00  0.00    +0.017 C 
ATOM     39  C   UNL     1      -1.476  -0.044  -0.153  0.00  0.00    +0.017 C 
ENDBRANCH   1  37
TORSDOF 4
