REMARK  Name = ZINC35130155
REMARK  13 active torsions:
REMARK  status: ('A' for Active; 'I' for Inactive)
REMARK    1  A    between atoms: C_1  and  C_2
REMARK    2  A    between atoms: C_2  and  C_3
REMARK    3  A    between atoms: C_8  and  N_9
REMARK    4  A    between atoms: N_12  and  C_13
REMARK    5  A    between atoms: N_12  and  C_15
REMARK    6  A    between atoms: C_13  and  C_14
REMARK    7  A    between atoms: C_15  and  C_16
REMARK    8  A    between atoms: N_18  and  C_19
REMARK    9  A    between atoms: C_21  and  C_31
REMARK   10  A    between atoms: N_23  and  C_24
REMARK   11  A    between atoms: C_31  and  C_32
REMARK   12  A    between atoms: C_31  and  C_33
REMARK   13  A    between atoms: C_31  and  C_34
REMARK                            x       y       z     vdW  Elec       q    Type
REMARK                         _______ _______ _______ _____ _____    ______ ____
ROOT
ATOM      1  C   UNL     1      -4.511   0.741   5.599  0.00  0.00    +0.236 C 
ATOM      2  O   UNL     1      -3.925   1.728   5.209  0.00  0.00    -0.274 OA
ATOM      3  N   UNL     1      -5.029   0.712   6.844  0.00  0.00    -0.269 N 
ATOM      4  H   UNL     1      -5.497  -0.078   7.156  0.00  0.00    +0.156 HD
ENDROOT
BRANCH   3   5
ATOM      5  C   UNL     1      -4.890   1.817   7.682  0.00  0.00    +0.129 A 
ATOM      6  C   UNL     1      -4.361   3.025   7.342  0.00  0.00    +0.069 A 
ATOM      7  C   UNL     1      -4.410   3.848   8.471  0.00  0.00    +0.071 A 
ATOM      8  N   UNL     1      -4.947   3.171   9.455  0.00  0.00    -0.169 NA
ATOM      9  N   UNL     1      -5.265   1.889   8.988  0.00  0.00    -0.217 N 
BRANCH   9  10
ATOM     10  C   UNL     1      -5.861   0.863   9.735  0.00  0.00    +0.086 A 
ATOM     11  C   UNL     1      -5.320  -0.416   9.714  0.00  0.00    +0.029 A 
ATOM     12  C   UNL     1      -5.908  -1.425  10.451  0.00  0.00    +0.002 A 
ATOM     13  C   UNL     1      -7.035  -1.163  11.209  0.00  0.00    +0.002 A 
ATOM     14  C   UNL     1      -7.577   0.108  11.232  0.00  0.00    +0.022 A 
ATOM     15  C   UNL     1      -6.990   1.124  10.501  0.00  0.00    +0.066 A 
ATOM     16 CL   UNL     1      -7.666   2.723  10.535  0.00  0.00    -0.081 Cl
ENDBRANCH   9  10
BRANCH   7  17
ATOM     17  C   UNL     1      -3.928   5.273   8.543  0.00  0.00    +0.006 C 
ATOM     18  C   UNL     1      -4.925   6.186   7.827  0.00  0.00    +0.017 C 
ATOM     19  C   UNL     1      -3.808   5.698  10.008  0.00  0.00    +0.017 C 
ATOM     20  C   UNL     1      -2.559   5.383   7.867  0.00  0.00    +0.017 C 
ENDBRANCH   7  17
ENDBRANCH   3   5
BRANCH   1  21
ATOM     21  C   UNL     1      -4.661  -0.454   4.693  0.00  0.00    +0.205 C 
BRANCH  21  25
ATOM     22  N   UNL     1      -2.127  -0.224   2.039  0.00  0.00    -0.269 N 
ATOM     23  C   UNL     1      -2.719  -0.481   3.222  0.00  0.00    +0.307 C 
ATOM     24  O   UNL     1      -2.080  -0.989   4.123  0.00  0.00    -0.252 OA
ATOM     25  N   UNL     1      -4.018  -0.175   3.407  0.00  0.00    -0.277 N 
ATOM     26  H   UNL     1      -2.616   0.244   1.344  0.00  0.00    +0.156 HD
BRANCH  22  32
ATOM     27  C   UNL     1      -0.405  -1.007   0.537  0.00  0.00    -0.026 A 
ATOM     28  C   UNL     1       0.899  -1.404   0.316  0.00  0.00    +0.005 A 
ATOM     29  C   UNL     1       1.801  -1.435   1.363  0.00  0.00    +0.000 A 
ATOM     30  C   UNL     1       1.401  -1.069   2.635  0.00  0.00    +0.002 A 
ATOM     31  C   UNL     1       0.099  -0.671   2.863  0.00  0.00    +0.023 A 
ATOM     32  C   UNL     1      -0.808  -0.633   1.812  0.00  0.00    +0.038 A 
BRANCH  27  34
ATOM     33  C   UNL     1      -1.437   0.438  -1.194  0.00  0.00    +0.009 C 
ATOM     34  C   UNL     1      -1.387  -0.973  -0.605  0.00  0.00    +0.033 C 
ENDBRANCH  27  34
ENDBRANCH  22  32
BRANCH  25  35
ATOM     35  C   UNL     1      -4.788   0.437   2.321  0.00  0.00    +0.106 C 
ATOM     36  C   UNL     1      -5.431  -0.660   1.471  0.00  0.00    +0.024 C 
ENDBRANCH  25  35
ENDBRANCH  21  25
ENDBRANCH   1  21
TORSDOF 8
