REMARK  Name = ZINC11440594
REMARK  10 active torsions:
REMARK  status: ('A' for Active; 'I' for Inactive)
REMARK    1  A    between atoms: C_1  and  C_2
REMARK    2  A    between atoms: C_2  and  C_3
REMARK    3  A    between atoms: C_2  and  C_4
REMARK    4  A    between atoms: C_4  and  C_6
REMARK    5  A    between atoms: C_4  and  O_12
REMARK    6  A    between atoms: O_12  and  C_13
REMARK    7  A    between atoms: C_13  and  C_15
REMARK    8  A    between atoms: C_15  and  C_16
REMARK    9  A    between atoms: C_16  and  N_17
REMARK   10  A    between atoms: N_20  and  C_21
REMARK                            x       y       z     vdW  Elec       q    Type
REMARK                         _______ _______ _______ _____ _____    ______ ____
ROOT
ATOM      1  C   UNL     1       1.234  -2.593   1.930  0.00  0.00    +0.139 C 
ENDROOT
BRANCH   1   2
ATOM      2  C   UNL     1       1.109  -1.091   1.898  0.00  0.00    +0.309 C 
ATOM      3  O   UNL     1       1.836  -0.440   1.186  0.00  0.00    -0.251 OA
BRANCH   2   4
ATOM      4  O   UNL     1       0.190  -0.478   2.660  0.00  0.00    -0.452 OA
BRANCH   4   5
ATOM      5  C   UNL     1       0.126   0.970   2.578  0.00  0.00    +0.264 C 
BRANCH   5   6
ATOM      6  C   UNL     1      -0.342   1.528   3.897  0.00  0.00    +0.261 C 
ATOM      7  O   UNL     1      -0.280   2.720   4.108  0.00  0.00    -0.271 OA
ATOM      8  N   UNL     1      -0.830   0.701   4.843  0.00  0.00    -0.237 N 
ATOM      9  C   UNL     1      -1.156   1.185   6.058  0.00  0.00    +0.303 C 
ATOM     10  O   UNL     1      -1.010   2.367   6.301  0.00  0.00    -0.253 OA
ATOM     11  N   UNL     1      -1.643   0.358   7.004  0.00  0.00    -0.313 N 
ATOM     12  H   UNL     1      -0.946  -0.242   4.650  0.00  0.00    +0.159 HD
ATOM     13  H   UNL     1      -1.760  -0.585   6.811  0.00  0.00    +0.146 HD
ATOM     14  H   UNL     1      -1.878   0.706   7.879  0.00  0.00    +0.146 HD
ENDBRANCH   5   6
BRANCH   5  16
ATOM     15  C   UNL     1      -0.389   0.796   0.139  0.00  0.00    +0.011 C 
ATOM     16  C   UNL     1      -0.855   1.376   1.476  0.00  0.00    +0.033 C 
ATOM     17  C   UNL     1      -0.910   2.902   1.379  0.00  0.00    +0.011 C 
ENDBRANCH   5  16
ENDBRANCH   4   5
ENDBRANCH   2   4
ENDBRANCH   1   2
BRANCH   1  18
ATOM     18  C   UNL     1       2.348  -3.033   0.977  0.00  0.00    +0.117 C 
BRANCH  18  19
ATOM     19  N   UNL     1       2.470  -4.492   1.009  0.00  0.00    -0.299 N 
ATOM     20  C   UNL     1       3.392  -5.108   0.244  0.00  0.00    +0.300 C 
ATOM     21  O   UNL     1       4.124  -4.452  -0.473  0.00  0.00    -0.253 OA
ATOM     22  N   UNL     1       3.504  -6.451   0.273  0.00  0.00    -0.294 N 
ATOM     23  H   UNL     1       1.886  -5.015   1.580  0.00  0.00    +0.150 HD
ATOM     24  H   UNL     1       2.921  -6.974   0.844  0.00  0.00    +0.151 HD
BRANCH  22  25
ATOM     25  C   UNL     1       4.507  -7.120  -0.559  0.00  0.00    +0.037 C 
ATOM     26  C   UNL     1       4.242  -6.803  -2.032  0.00  0.00    +0.029 C 
ATOM     27  C   UNL     1       5.290  -7.502  -2.901  0.00  0.00    -0.008 C 
ATOM     28  C   UNL     1       5.207  -9.014  -2.682  0.00  0.00    +0.007 C 
ATOM     29  C   UNL     1       5.472  -9.332  -1.209  0.00  0.00    -0.008 C 
ATOM     30  C   UNL     1       4.425  -8.632  -0.340  0.00  0.00    +0.029 C 
ATOM     31  C   UNL     1       6.868  -8.836  -0.824  0.00  0.00    +0.007 C 
ATOM     32  C   UNL     1       6.950  -7.324  -1.043  0.00  0.00    -0.008 C 
ATOM     33  C   UNL     1       6.685  -7.007  -2.516  0.00  0.00    +0.007 C 
ATOM     34  C   UNL     1       5.903  -6.625  -0.174  0.00  0.00    +0.029 C 
ENDBRANCH  22  25
ENDBRANCH  18  19
ENDBRANCH   1  18
TORSDOF 8
