REMARK  Name = ZINC52859161
REMARK  5 active torsions:
REMARK  status: ('A' for Active; 'I' for Inactive)
REMARK    1  A    between atoms: C_3  and  N_11
REMARK    2  A    between atoms: C_4  and  C_8
REMARK    3  A    between atoms: C_8  and  N_10
REMARK    4  A    between atoms: N_11  and  C_12
REMARK    5  A    between atoms: C_18  and  O_20
REMARK                            x       y       z     vdW  Elec       q    Type
REMARK                         _______ _______ _______ _____ _____    ______ ____
ROOT
ATOM      1  C   UNL     1      -0.012   1.360  -0.207  0.00  0.00    +0.022 A 
ATOM      2  C   UNL     1       1.159   2.088  -0.162  0.00  0.00    +0.025 A 
ATOM      3  C   UNL     1       2.373   1.444   0.041  0.00  0.00    +0.037 A 
ATOM      4  C   UNL     1       2.401   0.049   0.199  0.00  0.00    +0.025 A 
ATOM      5  C   UNL     1       1.206  -0.675   0.150  0.00  0.00    +0.032 A 
ATOM      6  C   UNL     1       0.011  -0.018  -0.052  0.00  0.00    +0.042 A 
ATOM      7 CL   UNL     1      -1.471  -0.919  -0.112  0.00  0.00    -0.084 Cl
ENDROOT
BRANCH   4   8
ATOM      8  C   UNL     1       3.680  -0.647   0.414  0.00  0.00    +0.079 C 
ATOM      9  S   UNL     1       4.238  -0.941   2.006  0.00  0.00    -0.035 S 
BRANCH   8  10
ATOM     10  N   UNL     1       4.413  -1.052  -0.642  0.00  0.00    -0.352 N 
ATOM     11  H   UNL     1       4.098  -0.885  -1.544  0.00  0.00    +0.143 HD
ATOM     12  H   UNL     1       5.256  -1.510  -0.500  0.00  0.00    +0.143 HD
ENDBRANCH   8  10
ENDBRANCH   4   8
BRANCH   3  13
ATOM     13  N   UNL     1       3.554   2.176   0.087  0.00  0.00    -0.338 N 
ATOM     14  H   UNL     1       4.406   1.717   0.149  0.00  0.00    +0.146 HD
BRANCH  13  15
ATOM     15  C   UNL     1       3.510   3.639   0.041  0.00  0.00    +0.099 C 
ATOM     16  C   UNL     1       3.452   4.102  -1.416  0.00  0.00    +0.025 C 
ATOM     17  C   UNL     1       3.407   5.631  -1.464  0.00  0.00    +0.002 C 
ATOM     18  C   UNL     1       4.662   6.199  -0.798  0.00  0.00    +0.003 C 
ATOM     19  C   UNL     1       4.720   5.736   0.659  0.00  0.00    +0.033 C 
ATOM     20  C   UNL     1       4.765   4.208   0.707  0.00  0.00    +0.135 C 
BRANCH  20  21
ATOM     21  O   UNL     1       4.819   3.775   2.068  0.00  0.00    -0.390 OA
ATOM     22  H   UNL     1       5.591   4.099   2.553  0.00  0.00    +0.210 HD
ENDBRANCH  20  21
ENDBRANCH  13  15
ENDBRANCH   3  13
TORSDOF 5
