REMARK  Name = ZINC10784964
REMARK  9 active torsions:
REMARK  status: ('A' for Active; 'I' for Inactive)
REMARK    1  A    between atoms: C_1  and  C_2
REMARK    2  A    between atoms: C_5  and  C_8
REMARK    3  A    between atoms: C_11  and  S_14
REMARK    4  A    between atoms: N_12  and  N_13
REMARK    5  A    between atoms: S_14  and  C_15
REMARK    6  A    between atoms: C_15  and  C_16
REMARK    7  A    between atoms: C_19  and  C_31
REMARK    8  A    between atoms: C_22  and  C_24
REMARK    9  A    between atoms: C_27  and  C_30
REMARK                            x       y       z     vdW  Elec       q    Type
REMARK                         _______ _______ _______ _____ _____    ______ ____
ROOT
ATOM      1  C   UNL     1       5.565  -3.676  -0.070  0.00  0.00    +0.246 C 
ATOM      2  O   UNL     1       6.750  -3.936  -0.081  0.00  0.00    -0.273 OA
ATOM      3  N   UNL     1       5.157  -2.392  -0.059  0.00  0.00    -0.181 N 
ATOM      4  C   UNL     1       6.039  -1.214  -0.061  0.00  0.00    +0.173 C 
ATOM      5  C   UNL     1       5.055  -0.027  -0.052  0.00  0.00    +0.090 C 
ATOM      6  C   UNL     1       3.693  -0.682  -0.036  0.00  0.00    +0.069 C 
ATOM      7  N   UNL     1       3.832  -1.963  -0.044  0.00  0.00    -0.181 NA
ENDROOT
BRANCH   6   8
ATOM      8  C   UNL     1       2.404   0.034  -0.021  0.00  0.00    -0.002 A 
ATOM      9  C   UNL     1       1.204  -0.681  -0.013  0.00  0.00    +0.010 A 
ATOM     10  C   UNL     1       0.002  -0.004   0.002  0.00  0.00    +0.004 A 
ATOM     11  C   UNL     1      -0.017   1.379   0.010  0.00  0.00    -0.050 A 
ATOM     12  C   UNL     1       1.168   2.094   0.002  0.00  0.00    +0.004 A 
ATOM     13  C   UNL     1       2.377   1.431  -0.013  0.00  0.00    +0.010 A 
ATOM     14  C   UNL     1      -1.334   2.111   0.020  0.00  0.00    +0.044 C 
ENDBRANCH   6   8
BRANCH   4  15
ATOM     15  C   UNL     1       6.887  -1.188  -1.306  0.00  0.00    +0.128 A 
ATOM     16  C   UNL     1       8.176  -0.809  -1.372  0.00  0.00    +0.046 A 
ATOM     17  C   UNL     1       8.573  -0.940  -2.723  0.00  0.00    +0.041 A 
ATOM     18  C   UNL     1       7.503  -1.391  -3.401  0.00  0.00    +0.195 A 
ATOM     19  O   UNL     1       6.486  -1.545  -2.537  0.00  0.00    -0.466 OA
ENDBRANCH   4  15
BRANCH   1  20
ATOM     20  C   UNL     1       4.550  -4.790  -0.067  0.00  0.00    +0.175 C 
BRANCH  20  21
ATOM     21  S   UNL     1       5.403  -6.386  -0.083  0.00  0.00    -0.075 S 
BRANCH  21  25
ATOM     22  C   UNL     1       2.747  -9.251  -0.076  0.00  0.00    +0.182 A 
ATOM     23  N   UNL     1       2.004  -8.169  -0.064  0.00  0.00    -0.127 NA
ATOM     24  N   UNL     1       2.751  -7.124  -0.065  0.00  0.00    -0.121 NA
ATOM     25  C   UNL     1       4.018  -7.474  -0.077  0.00  0.00    +0.209 A 
ATOM     26  N   UNL     1       4.060  -8.839  -0.091  0.00  0.00    -0.224 N 
BRANCH  22  31
ATOM     27  C   UNL     1       0.870 -14.691  -0.089  0.00  0.00    +0.044 C 
ATOM     28  C   UNL     1       1.362 -13.266  -0.086  0.00  0.00    -0.050 A 
ATOM     29  C   UNL     1       0.488 -12.236  -0.383  0.00  0.00    +0.004 A 
ATOM     30  C   UNL     1       0.932 -10.929  -0.381  0.00  0.00    +0.012 A 
ATOM     31  C   UNL     1       2.265 -10.649  -0.079  0.00  0.00    +0.021 A 
ATOM     32  C   UNL     1       3.143 -11.694   0.214  0.00  0.00    +0.012 A 
ATOM     33  C   UNL     1       2.685 -12.995   0.215  0.00  0.00    +0.004 A 
ENDBRANCH  22  31
BRANCH  26  34
ATOM     34  N   UNL     1       5.173  -9.630  -0.112  0.00  0.00    -0.295 N 
ATOM     35  H   UNL     1       5.479  -9.849   0.824  0.00  0.00    +0.163 HD
ATOM     36  H   UNL     1       5.009 -10.471  -0.644  0.00  0.00    +0.163 HD
ENDBRANCH  26  34
ENDBRANCH  21  25
ENDBRANCH  20  21
ENDBRANCH   1  20
TORSDOF 7
