REMARK  Name = ZINC12879888
REMARK  5 active torsions:
REMARK  status: ('A' for Active; 'I' for Inactive)
REMARK    1  A    between atoms: C_1  and  C_2
REMARK    2  A    between atoms: C_16  and  C_18
REMARK    3  A    between atoms: C_18  and  C_19
REMARK    4  A    between atoms: N_24  and  C_27
REMARK    5  A    between atoms: C_30  and  C_33
REMARK                            x       y       z     vdW  Elec       q    Type
REMARK                         _______ _______ _______ _____ _____    ______ ____
ROOT
ATOM      1  C   UNL     1      -0.847  -7.352   2.633  0.00  0.00    +0.047 C 
ATOM      2  C   UNL     1      -1.917  -6.706   1.791  0.00  0.00    -0.011 A 
ATOM      3  C   UNL     1      -2.745  -7.488   1.010  0.00  0.00    +0.046 A 
ATOM      4  C   UNL     1      -3.729  -6.902   0.234  0.00  0.00    +0.020 A 
ATOM      5  C   UNL     1      -3.885  -5.527   0.240  0.00  0.00    +0.006 A 
ATOM      6  C   UNL     1      -3.061  -4.744   1.017  0.00  0.00    -0.027 A 
ATOM      7  C   UNL     1      -2.067  -5.322   1.802  0.00  0.00    +0.040 A 
ATOM      8  N   UNL     1      -1.364  -4.333   2.496  0.00  0.00    -0.286 N 
ATOM      9  C   UNL     1      -1.827  -3.098   2.227  0.00  0.00    +0.211 C 
ATOM     10  O   UNL     1      -1.411  -2.053   2.682  0.00  0.00    -0.277 OA
ATOM     11  C   UNL     1      -2.960  -3.264   1.251  0.00  0.00    +0.050 C 
ATOM     12  C   UNL     1      -2.692  -2.503  -0.053  0.00  0.00    +0.088 C 
ATOM     13  C   UNL     1      -3.482  -1.173   0.099  0.00  0.00    +0.074 C 
ATOM     14  C   UNL     1      -4.133  -1.258   1.496  0.00  0.00    -0.049 C 
ATOM     15  C   UNL     1      -2.393  -0.124   0.129  0.00  0.00    +0.228 C 
ATOM     16  O   UNL     1      -2.574   1.069   0.240  0.00  0.00    -0.275 OA
ATOM     17  N   UNL     1      -1.200  -0.718   0.010  0.00  0.00    -0.210 N 
ATOM     18  C   UNL     1      -1.251  -2.051  -0.095  0.00  0.00    +0.229 C 
ATOM     19  O   UNL     1      -0.290  -2.782  -0.205  0.00  0.00    -0.275 OA
ATOM     20 CL   UNL     1      -2.550  -9.213   1.002  0.00  0.00    -0.083 Cl
ATOM     21  H   UNL     1      -0.628  -4.516   3.101  0.00  0.00    +0.155 HD
ATOM     22  N   UNL     1      -4.191  -2.695   1.773  0.00  0.00    +0.394 N 
ATOM     23  H   UNL     1      -4.257  -2.860   2.784  0.00  0.00    -0.083 HD
ATOM     24  H   UNL     1      -5.003  -3.115   1.304  0.00  0.00    -0.083 HD
ENDROOT
BRANCH  17  25
ATOM     25  C   UNL     1       0.002  -0.004   0.002  0.00  0.00    +0.044 A 
ATOM     26  C   UNL     1       0.422   0.660   1.149  0.00  0.00    +0.025 A 
ATOM     27  C   UNL     1       1.606   1.363   1.145  0.00  0.00    +0.015 A 
ATOM     28  C   UNL     1       2.385   1.410  -0.014  0.00  0.00    +0.037 A 
ATOM     29  C   UNL     1       1.960   0.742  -1.165  0.00  0.00    +0.015 A 
ATOM     30  C   UNL     1       0.775   0.040  -1.153  0.00  0.00    +0.025 A 
BRANCH  28  31
ATOM     31  C   UNL     1       3.655   2.163  -0.022  0.00  0.00    +0.242 C 
ATOM     32  O   UNL     1       4.332   2.203  -1.031  0.00  0.00    -0.270 OA
ATOM     33  N   UNL     1       4.064   2.807   1.089  0.00  0.00    -0.325 N 
ATOM     34  H   UNL     1       3.524   2.776   1.894  0.00  0.00    +0.145 HD
ATOM     35  H   UNL     1       4.898   3.302   1.083  0.00  0.00    +0.145 HD
ENDBRANCH  28  31
ENDBRANCH  17  25
BRANCH  14  36
ATOM     36  C   UNL     1      -5.532  -0.638   1.470  0.00  0.00    +0.080 C 
BRANCH  36  37
ATOM     37  C   UNL     1      -6.100  -0.620   2.865  0.00  0.00    +0.209 C 
ATOM     38  O   UNL     1      -5.450  -1.060   3.790  0.00  0.00    -0.276 OA
ATOM     39  N   UNL     1      -7.330  -0.115   3.086  0.00  0.00    -0.329 N 
ATOM     40  H   UNL     1      -7.849   0.237   2.346  0.00  0.00    +0.145 HD
ATOM     41  H   UNL     1      -7.695  -0.104   3.984  0.00  0.00    +0.145 HD
ENDBRANCH  36  37
ENDBRANCH  14  36
TORSDOF 4
