REMARK  Name = ZINC39840893
REMARK  8 active torsions:
REMARK  status: ('A' for Active; 'I' for Inactive)
REMARK    1  A    between atoms: C_2  and  C_3
REMARK    2  A    between atoms: C_3  and  O_4
REMARK    3  A    between atoms: O_4  and  C_5
REMARK    4  A    between atoms: C_8  and  C_11
REMARK    5  A    between atoms: C_12  and  C_13
REMARK    6  A    between atoms: C_21  and  C_22
REMARK    7  A    between atoms: N_24  and  C_32
REMARK    8  A    between atoms: C_26  and  C_27
REMARK                            x       y       z     vdW  Elec       q    Type
REMARK                         _______ _______ _______ _____ _____    ______ ____
ROOT
ATOM      1  C   UNL     1       7.112  -6.833   2.381  0.00  0.00    +0.176 A 
ATOM      2  N   UNL     1       8.248  -6.663   1.683  0.00  0.00    -0.201 NA
ATOM      3  C   UNL     1       9.109  -7.572   2.038  0.00  0.00    +0.200 A 
ATOM      4  N   UNL     1       8.561  -8.382   2.995  0.00  0.00    -0.169 N 
ATOM      5  N   UNL     1       7.255  -7.857   3.191  0.00  0.00    -0.142 NA
ATOM      6  C   UNL     1       9.303  -9.382   3.486  0.00  0.00    +0.288 A 
ATOM      7  O   UNL     1       8.853 -10.126   4.338  0.00  0.00    -0.265 OA
ATOM      8  C   UNL     1      10.627  -9.564   2.996  0.00  0.00    +0.082 A 
ATOM      9  C   UNL     1      11.554 -10.499   3.340  0.00  0.00    +0.032 C 
ATOM     10  S   UNL     1      10.743  -8.235   1.807  0.00  0.00    -0.044 S 
ENDROOT
BRANCH   9  11
ATOM     11  C   UNL     1      12.871 -10.496   2.696  0.00  0.00    +0.025 A 
ATOM     12  C   UNL     1      13.321  -9.611   1.733  0.00  0.00    +0.123 A 
ATOM     13  N   UNL     1      14.581  -9.958   1.411  0.00  0.00    -0.239 N 
ATOM     14  N   UNL     1      14.969 -11.073   2.160  0.00  0.00    -0.163 NA
ATOM     15  C   UNL     1      13.978 -11.428   2.950  0.00  0.00    +0.135 A 
BRANCH  13  16
ATOM     16  C   UNL     1      15.382  -9.302   0.469  0.00  0.00    +0.065 A 
ATOM     17  C   UNL     1      14.890  -8.197  -0.214  0.00  0.00    +0.028 A 
ATOM     18  C   UNL     1      15.682  -7.553  -1.144  0.00  0.00    +0.002 A 
ATOM     19  C   UNL     1      16.964  -8.006  -1.395  0.00  0.00    +0.000 A 
ATOM     20  C   UNL     1      17.457  -9.106  -0.716  0.00  0.00    +0.002 A 
ATOM     21  C   UNL     1      16.672  -9.751   0.218  0.00  0.00    +0.028 A 
ENDBRANCH  13  16
BRANCH  15  22
ATOM     22  C   UNL     1      13.977 -12.552   3.907  0.00  0.00    +0.155 A 
ATOM     23  C   UNL     1      14.608 -13.746   3.737  0.00  0.00    +0.051 A 
ATOM     24  C   UNL     1      14.342 -14.513   4.888  0.00  0.00    +0.042 A 
ATOM     25  C   UNL     1      13.571 -13.758   5.696  0.00  0.00    +0.196 A 
ATOM     26  O   UNL     1      13.357 -12.572   5.103  0.00  0.00    -0.461 OA
ENDBRANCH  15  22
ENDBRANCH   9  11
BRANCH   1  28
ATOM     27  C   UNL     1       5.876  -4.976   1.392  0.00  0.00    +0.011 C 
ATOM     28  C   UNL     1       5.902  -6.000   2.260  0.00  0.00    +0.050 C 
BRANCH  27  32
ATOM     29  C   UNL     1       2.392  -2.577   1.044  0.00  0.00    +0.121 A 
ATOM     30  C   UNL     1       3.504  -2.300   0.259  0.00  0.00    +0.046 A 
ATOM     31  C   UNL     1       4.638  -3.076   0.368  0.00  0.00    +0.011 A 
ATOM     32  C   UNL     1       4.667  -4.143   1.271  0.00  0.00    -0.025 A 
ATOM     33  C   UNL     1       3.545  -4.417   2.059  0.00  0.00    +0.011 A 
ATOM     34  C   UNL     1       2.418  -3.632   1.946  0.00  0.00    +0.046 A 
BRANCH  29  35
ATOM     35  O   UNL     1       1.277  -1.809   0.933  0.00  0.00    -0.488 OA
BRANCH  35  36
ATOM     36  C   UNL     1       1.317  -0.740  -0.015  0.00  0.00    +0.256 C 
BRANCH  36  38
ATOM     37  C   UNL     1      -0.016   1.306   0.009  0.00  0.00    +0.007 C 
ATOM     38  C   UNL     1       0.002  -0.004   0.002  0.00  0.00    +0.006 C 
ENDBRANCH  36  38
ENDBRANCH  35  36
ENDBRANCH  29  35
ENDBRANCH  27  32
ENDBRANCH   1  28
TORSDOF 8
