REMARK  Name = ZINC03532433
REMARK  11 active torsions:
REMARK  status: ('A' for Active; 'I' for Inactive)
REMARK    1  A    between atoms: C_1  and  C_2
REMARK    2  A    between atoms: C_2  and  N_3
REMARK    3  A    between atoms: C_7  and  C_9
REMARK    4  A    between atoms: C_9  and  C_11
REMARK    5  A    between atoms: C_9  and  S_12
REMARK    6  A    between atoms: S_12  and  C_13
REMARK    7  A    between atoms: N_26  and  C_27
REMARK    8  A    between atoms: C_27  and  C_28
REMARK    9  A    between atoms: C_28  and  C_29
REMARK   10  A    between atoms: C_29  and  C_30
REMARK   11  A    between atoms: C_29  and  C_31
REMARK                            x       y       z     vdW  Elec       q    Type
REMARK                         _______ _______ _______ _____ _____    ______ ____
ROOT
ATOM      1  C   UNL     1       1.137   3.278   0.009  0.00  0.00    +0.173 A 
ATOM      2  N   UNL     1       0.006   3.954   0.022  0.00  0.00    -0.216 NA
ATOM      3  C   UNL     1      -1.163   3.325   0.030  0.00  0.00    +0.117 A 
ATOM      4  C   UNL     1      -1.258   1.923   0.018  0.00  0.00    +0.076 A 
ATOM      5  C   UNL     1      -2.615   1.374   0.033  0.00  0.00    -0.023 A 
ATOM      6  C   UNL     1      -3.633   2.258   0.046  0.00  0.00    -0.004 A 
ATOM      7  S   UNL     1      -2.858   3.852   0.047  0.00  0.00    -0.073 S 
ATOM      8  C   UNL     1      -5.100   1.953   0.058  0.00  0.00    +0.043 C 
ATOM      9  C   UNL     1      -5.291   0.477  -0.320  0.00  0.00    +0.005 C 
ATOM     10  C   UNL     1      -4.319  -0.372   0.505  0.00  0.00    +0.005 C 
ATOM     11  C   UNL     1      -2.885  -0.128   0.030  0.00  0.00    +0.037 C 
ATOM     12  C   UNL     1      -0.015   1.215   0.009  0.00  0.00    +0.263 A 
ATOM     13  O   UNL     1       0.002  -0.004   0.002  0.00  0.00    -0.267 OA
ATOM     14  N   UNL     1       1.136   1.913   0.002  0.00  0.00    -0.287 N 
ENDROOT
BRANCH   1  15
ATOM     15  S   UNL     1       2.669   4.146  -0.001  0.00  0.00    -0.075 S 
BRANCH  15  16
ATOM     16  C   UNL     1       2.064   5.852   0.013  0.00  0.00    +0.137 C 
ATOM     17  C   UNL     1       1.331   6.122   1.329  0.00  0.00    +0.029 C 
BRANCH  16  22
ATOM     18  N   UNL     1       3.861  10.180  -1.058  0.00  0.00    -0.299 N 
ATOM     19  C   UNL     1       4.066   8.914  -0.645  0.00  0.00    +0.306 C 
ATOM     20  O   UNL     1       5.190   8.536  -0.378  0.00  0.00    -0.252 OA
ATOM     21  N   UNL     1       3.024   8.066  -0.529  0.00  0.00    -0.239 N 
ATOM     22  C   UNL     1       3.229   6.800  -0.117  0.00  0.00    +0.233 C 
ATOM     23  O   UNL     1       4.350   6.423   0.150  0.00  0.00    -0.274 OA
ATOM     24  H   UNL     1       2.844  10.522  -1.300  0.00  0.00    +0.150 HD
ATOM     25  H   UNL     1       2.007   8.409  -0.771  0.00  0.00    +0.159 HD
BRANCH  18  27
ATOM     26  C   UNL     1       4.492  12.464  -1.666  0.00  0.00    +0.024 C 
ATOM     27  C   UNL     1       4.994  11.101  -1.184  0.00  0.00    +0.102 C 
ENDBRANCH  18  27
ENDBRANCH  16  22
ENDBRANCH  15  16
ENDBRANCH   1  15
BRANCH  14  28
ATOM     28  C   UNL     1       2.413   1.194  -0.014  0.00  0.00    +0.127 C 
BRANCH  28  29
ATOM     29  C   UNL     1       2.844   0.951  -1.462  0.00  0.00    +0.025 C 
BRANCH  29  30
ATOM     30  C   UNL     1       4.177   0.200  -1.478  0.00  0.00    -0.016 C 
ATOM     31  C   UNL     1       4.546  -0.153  -2.920  0.00  0.00    +0.007 C 
ATOM     32  C   UNL     1       5.268   1.086  -0.874  0.00  0.00    +0.007 C 
ENDBRANCH  29  30
ENDBRANCH  28  29
ENDBRANCH  14  28
TORSDOF 7
