REMARK  Name = ZINC09542723
REMARK  12 active torsions:
REMARK  status: ('A' for Active; 'I' for Inactive)
REMARK    1  A    between atoms: C_1  and  C_2
REMARK    2  A    between atoms: N_8  and  C_9
REMARK    3  A    between atoms: C_9  and  C_10
REMARK    4  A    between atoms: C_16  and  C_24
REMARK    5  A    between atoms: C_18  and  C_22
REMARK    6  A    between atoms: C_19  and  N_21
REMARK    7  A    between atoms: C_27  and  O_34
REMARK    8  A    between atoms: C_28  and  O_32
REMARK    9  A    between atoms: C_29  and  O_30
REMARK   10  A    between atoms: O_30  and  C_31
REMARK   11  A    between atoms: O_32  and  C_33
REMARK   12  A    between atoms: O_34  and  C_35
REMARK                            x       y       z     vdW  Elec       q    Type
REMARK                         _______ _______ _______ _____ _____    ______ ____
ROOT
ATOM      1  C   UNL     1      -2.725   5.832  -0.627  0.00  0.00    +0.064 C 
ATOM      2  C   UNL     1      -2.180   4.437  -0.454  0.00  0.00    +0.023 A 
ATOM      3  C   UNL     1      -0.854   4.258  -0.272  0.00  0.00    +0.068 A 
ATOM      4  C   UNL     1      -0.339   2.955  -0.109  0.00  0.00    +0.141 A 
ATOM      5  C   UNL     1      -1.208   1.885  -0.140  0.00  0.00    +0.072 A 
ATOM      6  C   UNL     1      -2.576   2.120  -0.326  0.00  0.00    +0.259 A 
ATOM      7  O   UNL     1      -3.358   1.182  -0.351  0.00  0.00    -0.267 OA
ATOM      8  N   UNL     1      -3.030   3.377  -0.482  0.00  0.00    -0.306 N 
ATOM      9  C   UNL     1      -0.702   0.479   0.028  0.00  0.00    +0.107 C 
ATOM     10  C   UNL     1       0.686   0.494   0.607  0.00  0.00    +0.098 C 
ATOM     11  C   UNL     1       1.438   1.620   0.597  0.00  0.00    +0.199 C 
ATOM     12  O   UNL     1       0.986   2.773   0.073  0.00  0.00    -0.441 OA
ENDROOT
BRANCH   9  13
ATOM     13  C   UNL     1      -0.676  -0.207  -1.313  0.00  0.00    +0.011 A 
ATOM     14  C   UNL     1       0.157   0.261  -2.312  0.00  0.00    +0.012 A 
ATOM     15  C   UNL     1       0.188  -0.368  -3.542  0.00  0.00    +0.050 A 
ATOM     16  C   UNL     1      -0.625  -1.466  -3.783  0.00  0.00    +0.165 A 
ATOM     17  C   UNL     1      -1.468  -1.936  -2.783  0.00  0.00    +0.204 A 
ATOM     18  C   UNL     1      -1.492  -1.304  -1.545  0.00  0.00    +0.169 A 
BRANCH  18  19
ATOM     19  O   UNL     1      -2.315  -1.760  -0.564  0.00  0.00    -0.491 OA
ATOM     20  C   UNL     1      -1.829  -2.837   0.242  0.00  0.00    +0.277 C 
ENDBRANCH  18  19
BRANCH  17  21
ATOM     21  O   UNL     1      -2.268  -3.012  -3.015  0.00  0.00    -0.488 OA
ATOM     22  C   UNL     1      -3.574  -2.751  -3.532  0.00  0.00    +0.277 C 
ENDBRANCH  17  21
BRANCH  16  23
ATOM     23  O   UNL     1      -0.598  -2.081  -4.995  0.00  0.00    -0.491 OA
ATOM     24  C   UNL     1       0.293  -1.543  -5.976  0.00  0.00    +0.277 C 
ENDBRANCH  16  23
ENDBRANCH   9  13
BRANCH  11  25
ATOM     25  N   UNL     1       2.700   1.584   1.137  0.00  0.00    -0.328 N 
ATOM     26  H   UNL     1       3.040   0.759   1.519  0.00  0.00    +0.145 HD
ATOM     27  H   UNL     1       3.251   2.382   1.137  0.00  0.00    +0.145 HD
ENDBRANCH  11  25
BRANCH  10  28
ATOM     28  C   UNL     1       1.222  -0.704   1.179  0.00  0.00    +0.101 C 
ATOM     29  N   UNL     1       1.647  -1.654   1.633  0.00  0.00    -0.191 NA
ENDBRANCH  10  28
BRANCH   8  30
ATOM     30  C   UNL     1      -4.463   3.607  -0.679  0.00  0.00    +0.180 C 
BRANCH  30  31
ATOM     31  C   UNL     1      -4.778   3.582  -2.153  0.00  0.00    +0.061 A 
ATOM     32  C   UNL     1      -5.214   2.408  -2.738  0.00  0.00    +0.025 A 
ATOM     33  C   UNL     1      -5.506   2.396  -4.093  0.00  0.00    +0.003 A 
ATOM     34  C   UNL     1      -5.337   3.568  -4.814  0.00  0.00    +0.020 A 
ATOM     35  C   UNL     1      -4.892   4.702  -4.162  0.00  0.00    +0.111 A 
ATOM     36  N   UNL     1      -4.629   4.678  -2.870  0.00  0.00    -0.258 NA
ENDBRANCH  30  31
ENDBRANCH   8  30
TORSDOF 8
