REMARK  Name = ZINC11101106
REMARK  13 active torsions:
REMARK  status: ('A' for Active; 'I' for Inactive)
REMARK    1  A    between atoms: C_1  and  C_2
REMARK    2  A    between atoms: C_3  and  N_15
REMARK    3  A    between atoms: N_6  and  C_9
REMARK    4  A    between atoms: N_7  and  C_8
REMARK    5  A    between atoms: C_16  and  C_18
REMARK    6  A    between atoms: C_18  and  C_20
REMARK    7  A    between atoms: C_18  and  N_75
REMARK    8  A    between atoms: C_21  and  C_23
REMARK    9  A    between atoms: C_21  and  C_35
REMARK   10  A    between atoms: C_21  and  N_75
REMARK   11  A    between atoms: C_26  and  C_29
REMARK   12  A    between atoms: C_35  and  C_36
REMARK   13  A    between atoms: C_35  and  C_37
REMARK                            x       y       z     vdW  Elec       q    Type
REMARK                         _______ _______ _______ _____ _____    ______ ____
ROOT
ATOM      1  C   UNL     1      -4.286  -1.152  -0.970  0.00  0.00    +0.014 C 
ATOM      2  C   UNL     1      -4.344  -2.196  -2.087  0.00  0.00    -0.004 C 
ENDROOT
BRANCH   1   4
ATOM      3  N   UNL     1      -3.352   0.614  -2.429  0.00  0.00    -0.281 N 
ATOM      4  C   UNL     1      -3.241  -0.118  -1.303  0.00  0.00    +0.203 C 
ATOM      5  O   UNL     1      -2.299   0.054  -0.558  0.00  0.00    -0.277 OA
ATOM      6  H   UNL     1      -4.066   0.430  -3.059  0.00  0.00    +0.155 HD
BRANCH   3   9
ATOM      7  C   UNL     1      -1.530   0.750  -4.894  0.00  0.00    +0.067 C 
ATOM      8  C   UNL     1      -1.615   1.743  -3.764  0.00  0.00    +0.059 A 
ATOM      9  C   UNL     1      -2.432   1.649  -2.691  0.00  0.00    +0.121 A 
ATOM     10  C   UNL     1      -2.185   2.824  -1.854  0.00  0.00    +0.293 A 
ATOM     11  O   UNL     1      -2.736   3.092  -0.801  0.00  0.00    -0.264 OA
ATOM     12  N   UNL     1      -1.228   3.549  -2.467  0.00  0.00    -0.216 N 
ATOM     13  N   UNL     1      -0.871   2.887  -3.648  0.00  0.00    -0.282 N 
ATOM     14  C   UNL     1       0.138   3.345  -4.606  0.00  0.00    +0.171 C 
BRANCH  12  15
ATOM     15  C   UNL     1      -0.686   4.753  -2.005  0.00  0.00    +0.067 A 
ATOM     16  C   UNL     1       0.680   4.983  -2.100  0.00  0.00    +0.028 A 
ATOM     17  C   UNL     1       1.211   6.175  -1.647  0.00  0.00    +0.002 A 
ATOM     18  C   UNL     1       0.385   7.133  -1.089  0.00  0.00    +0.000 A 
ATOM     19  C   UNL     1      -0.975   6.905  -0.988  0.00  0.00    +0.002 A 
ATOM     20  C   UNL     1      -1.513   5.718  -1.444  0.00  0.00    +0.028 A 
ENDBRANCH  12  15
ENDBRANCH   3   9
ENDBRANCH   1   4
BRANCH   1  21
ATOM     21  N   UNL     1      -3.928  -1.809   0.301  0.00  0.00    +0.391 N 
ATOM     22  H   UNL     1      -3.524  -1.114   0.940  0.00  0.00    -0.084 HD
ATOM     23  H   UNL     1      -3.239  -2.548   0.119  0.00  0.00    -0.084 HD
BRANCH  21  24
ATOM     24  C   UNL     1      -5.126  -2.404   0.924  0.00  0.00    -0.037 C 
BRANCH  24  25
ATOM     25  C   UNL     1      -5.273  -3.832   0.466  0.00  0.00    -0.061 A 
ATOM     26  C   UNL     1      -4.154  -4.633   0.330  0.00  0.00    +0.002 A 
ATOM     27  C   UNL     1      -4.290  -5.944  -0.086  0.00  0.00    +0.004 A 
ATOM     28  C   UNL     1      -5.543  -6.452  -0.375  0.00  0.00    -0.044 A 
ATOM     29  C   UNL     1      -6.661  -5.650  -0.243  0.00  0.00    +0.004 A 
ATOM     30  C   UNL     1      -6.526  -4.340   0.177  0.00  0.00    +0.002 A 
BRANCH  28  31
ATOM     31  C   UNL     1      -5.690  -7.880  -0.833  0.00  0.00    +0.019 C 
ATOM     32  C   UNL     1      -5.149  -8.820   0.247  0.00  0.00    +0.008 C 
ATOM     33  C   UNL     1      -5.299 -10.270  -0.218  0.00  0.00    +0.001 C 
ATOM     34  C   UNL     1      -4.510 -10.474  -1.513  0.00  0.00    +0.000 C 
ATOM     35  C   UNL     1      -5.050  -9.534  -2.593  0.00  0.00    +0.001 C 
ATOM     36  C   UNL     1      -4.901  -8.084  -2.128  0.00  0.00    +0.008 C 
ENDBRANCH  28  31
ENDBRANCH  24  25
BRANCH  24  37
ATOM     37  C   UNL     1      -4.970  -2.370   2.446  0.00  0.00    -0.027 C 
ATOM     38  C   UNL     1      -4.963  -0.917   2.925  0.00  0.00    +0.006 C 
ATOM     39  C   UNL     1      -6.138  -3.115   3.095  0.00  0.00    +0.006 C 
ENDBRANCH  24  37
ENDBRANCH  21  24
ENDBRANCH   1  21
TORSDOF 8
