REMARK  Name = ZINC63641799
REMARK  5 active torsions:
REMARK  status: ('A' for Active; 'I' for Inactive)
REMARK    1  A    between atoms: C_1  and  C_2
REMARK    2  A    between atoms: C_7  and  N_8
REMARK    3  A    between atoms: C_9  and  S_34
REMARK    4  A    between atoms: C_12  and  O_33
REMARK    5  A    between atoms: C_14  and  C_18
REMARK                            x       y       z     vdW  Elec       q    Type
REMARK                         _______ _______ _______ _____ _____    ______ ____
ROOT
ATOM      1  N   UNL     1      -0.005   0.014   2.422  0.00  0.00    -0.246 N 
ATOM      2  C   UNL     1      -1.277   0.326   3.064  0.00  0.00    +0.208 C 
ATOM      3  N   UNL     1      -1.080   0.608   4.490  0.00  0.00    -0.264 NA
ATOM      4  C   UNL     1      -0.039   1.633   4.673  0.00  0.00    +0.198 C 
ATOM      5  C   UNL     1       1.311   1.027   4.279  0.00  0.00    +0.138 C 
ATOM      6  C   UNL     1       1.182   0.334   2.950  0.00  0.00    +0.230 C 
ATOM      7  O   UNL     1       2.189   0.060   2.333  0.00  0.00    -0.275 OA
ATOM      8  H   UNL     1      -1.946   0.890   4.926  0.00  0.00    +0.127 HD
ENDROOT
BRANCH   5   9
ATOM      9  C   UNL     1       2.358   2.138   4.178  0.00  0.00    +0.096 C 
ATOM     10  C   UNL     1       2.453   2.880   5.514  0.00  0.00    +0.124 C 
ATOM     11  C   UNL     1       3.382   4.065   5.278  0.00  0.00    -0.036 C 
ATOM     12  C   UNL     1       4.333   3.985   6.197  0.00  0.00    -0.001 A 
ATOM     13  C   UNL     1       5.455   4.878   6.531  0.00  0.00    +0.010 A 
ATOM     14  C   UNL     1       6.264   4.473   7.545  0.00  0.00    +0.001 A 
ATOM     15  C   UNL     1       6.072   3.282   8.253  0.00  0.00    +0.002 A 
ATOM     16  C   UNL     1       5.064   2.404   8.019  0.00  0.00    +0.026 A 
ATOM     17  C   UNL     1       4.144   2.724   6.979  0.00  0.00    +0.043 A 
ATOM     18  N   UNL     1       3.075   2.073   6.563  0.00  0.00    -0.376 N 
ATOM     19  C   UNL     1       3.185   5.007   4.115  0.00  0.00    +0.048 C 
ATOM     20  C   UNL     1       2.982   4.119   2.873  0.00  0.00    +0.085 C 
ATOM     21  N   UNL     1       1.961   3.102   3.140  0.00  0.00    -0.310 NA
ATOM     22  H   UNL     1       1.691   2.628   2.291  0.00  0.00    +0.122 HD
ATOM     23  H   UNL     1       2.755   1.215   6.884  0.00  0.00    +0.160 HD
ENDBRANCH   5   9
BRANCH   1  30
ATOM     24  C   UNL     1      -0.082   1.566   0.038  0.00  0.00    +0.045 C 
ATOM     25  C   UNL     1      -0.064   0.059   0.008  0.00  0.00    -0.029 A 
ATOM     26  C   UNL     1      -0.080  -0.609  -1.201  0.00  0.00    +0.005 A 
ATOM     27  C   UNL     1      -0.063  -1.991  -1.230  0.00  0.00    +0.000 A 
ATOM     28  C   UNL     1      -0.030  -2.709  -0.048  0.00  0.00    +0.002 A 
ATOM     29  C   UNL     1      -0.014  -2.048   1.164  0.00  0.00    +0.024 A 
ATOM     30  C   UNL     1      -0.026  -0.659   1.196  0.00  0.00    +0.042 A 
ENDBRANCH   1  30
BRANCH   4  31
ATOM     31  O   UNL     1      -0.325   2.761   3.844  0.00  0.00    -0.377 OA
ATOM     32  H   UNL     1      -1.175   3.183   4.032  0.00  0.00    +0.211 HD
ENDBRANCH   4  31
BRANCH   2  33
ATOM     33  S   UNL     1      -2.400  -1.087   2.884  0.00  0.00    -0.140 S 
ATOM     34  H   UNL     1      -3.525  -0.690   3.505  0.00  0.00    +0.105 HD
ENDBRANCH   2  33
TORSDOF 4
