REMARK  Name = ZINC36698965
REMARK  12 active torsions:
REMARK  status: ('A' for Active; 'I' for Inactive)
REMARK    1  A    between atoms: C_1  and  C_2
REMARK    2  A    between atoms: C_7  and  C_8
REMARK    3  A    between atoms: N_12  and  C_13
REMARK    4  A    between atoms: C_13  and  C_14
REMARK    5  A    between atoms: C_14  and  C_15
REMARK    6  A    between atoms: C_15  and  N_16
REMARK    7  A    between atoms: N_16  and  C_17
REMARK    8  A    between atoms: N_16  and  C_18
REMARK    9  A    between atoms: C_19  and  C_21
REMARK   10  A    between atoms: C_24  and  S_27
REMARK   11  A    between atoms: S_27  and  N_30
REMARK   12  A    between atoms: C_35  and  C_37
REMARK                            x       y       z     vdW  Elec       q    Type
REMARK                         _______ _______ _______ _____ _____    ______ ____
ROOT
ATOM      1  C   UNL     1       0.613  -1.681   2.634  0.00  0.00    +0.044 C 
ATOM      2  C   UNL     1       0.414  -3.113   2.209  0.00  0.00    -0.045 A 
ATOM      3  C   UNL     1       0.266  -3.403   0.878  0.00  0.00    +0.032 A 
ATOM      4  C   UNL     1       0.077  -4.736   0.445  0.00  0.00    +0.081 A 
ATOM      5  C   UNL     1       0.053  -5.723   1.457  0.00  0.00    +0.041 A 
ATOM      6  C   UNL     1       0.202  -5.423   2.788  0.00  0.00    +0.021 A 
ATOM      7  C   UNL     1       0.391  -4.109   3.175  0.00  0.00    -0.046 A 
ATOM      8  C   UNL     1       0.562  -3.761   4.631  0.00  0.00    +0.044 C 
ATOM      9  S   UNL     1      -0.197  -7.215   0.525  0.00  0.00    -0.052 S 
ATOM     10  C   UNL     1      -0.252  -6.460  -1.095  0.00  0.00    +0.168 A 
ATOM     11  N   UNL     1      -0.083  -5.188  -0.817  0.00  0.00    -0.224 NA
ATOM     12  N   UNL     1      -0.426  -7.064  -2.328  0.00  0.00    -0.246 N 
ATOM     13  C   UNL     1      -0.584  -8.400  -2.408  0.00  0.00    +0.252 C 
ATOM     14  O   UNL     1      -0.636  -9.068  -1.394  0.00  0.00    -0.270 OA
ENDROOT
BRANCH  13  15
ATOM     15  C   UNL     1      -0.694  -9.053  -3.729  0.00  0.00    +0.037 A 
ATOM     16  C   UNL     1       0.119  -8.638  -4.786  0.00  0.00    +0.015 A 
ATOM     17  C   UNL     1       0.012  -9.252  -6.017  0.00  0.00    +0.029 A 
ATOM     18  C   UNL     1      -0.898 -10.278  -6.205  0.00  0.00    +0.106 A 
ATOM     19  C   UNL     1      -1.706 -10.694  -5.162  0.00  0.00    +0.029 A 
ATOM     20  C   UNL     1      -1.606 -10.092  -3.925  0.00  0.00    +0.015 A 
BRANCH  18  21
ATOM     21  S   UNL     1      -1.028 -11.057  -7.780  0.00  0.00    +0.061 S 
ATOM     22  O   UNL     1      -2.332 -11.618  -7.849  0.00  0.00    -0.153 OA
ATOM     23  O   UNL     1      -0.549 -10.122  -8.736  0.00  0.00    -0.153 OA
BRANCH  21  24
ATOM     24  N   UNL     1       0.035 -12.327  -7.787  0.00  0.00    -0.174 NA
ATOM     25  C   UNL     1       1.379 -12.175  -8.358  0.00  0.00    +0.110 C 
ATOM     26  C   UNL     1       1.601 -13.278  -9.399  0.00  0.00    +0.017 C 
ATOM     27  C   UNL     1       1.343 -14.641  -8.754  0.00  0.00    +0.003 C 
ATOM     28  C   UNL     1      -0.109 -14.714  -8.274  0.00  0.00    +0.020 C 
ATOM     29  C   UNL     1      -0.348 -13.626  -7.216  0.00  0.00    +0.077 C 
ATOM     30  C   UNL     1      -1.827 -13.601  -6.829  0.00  0.00    +0.026 C 
ENDBRANCH  21  24
ENDBRANCH  18  21
ENDBRANCH  13  15
BRANCH  12  31
ATOM     31  C   UNL     1      -0.440  -6.250  -3.546  0.00  0.00    +0.114 C 
BRANCH  31  32
ATOM     32  C   UNL     1       0.984  -5.790  -3.868  0.00  0.00    +0.001 C 
BRANCH  32  33
ATOM     33  C   UNL     1       0.995  -5.074  -5.220  0.00  0.00    -0.078 C 
BRANCH  33  34
ATOM     34  N   UNL     1       2.361  -4.632  -5.529  0.00  0.00    +0.376 N 
ATOM     35  C   UNL     1       2.395  -4.051  -6.878  0.00  0.00    -0.097 C 
ATOM     36  C   UNL     1       2.782  -3.621  -4.550  0.00  0.00    -0.097 C 
ATOM     37  H   UNL     1       2.988  -5.422  -5.487  0.00  0.00    -0.083 HD
ENDBRANCH  33  34
ENDBRANCH  32  33
ENDBRANCH  31  32
ENDBRANCH  12  31
TORSDOF 7
