REMARK  Name = ZINC39666980
REMARK  11 active torsions:
REMARK  status: ('A' for Active; 'I' for Inactive)
REMARK    1  A    between atoms: C_1  and  C_2
REMARK    2  A    between atoms: C_5  and  C_9
REMARK    3  A    between atoms: C_6  and  C_8
REMARK    4  A    between atoms: C_9  and  C_10
REMARK    5  A    between atoms: C_10  and  N_11
REMARK    6  A    between atoms: C_12  and  C_14
REMARK    7  A    between atoms: C_25  and  C_27
REMARK    8  A    between atoms: C_30  and  O_35
REMARK    9  A    between atoms: C_31  and  O_33
REMARK   10  A    between atoms: O_33  and  C_34
REMARK   11  A    between atoms: O_35  and  C_36
REMARK                            x       y       z     vdW  Elec       q    Type
REMARK                         _______ _______ _______ _____ _____    ______ ____
ROOT
ATOM      1  C   UNL     1      -2.224  -9.094   0.152  0.00  0.00    +0.100 C 
ATOM      2  C   UNL     1      -1.389  -9.302   1.436  0.00  0.00    +0.121 C 
ATOM      3  N   UNL     1      -2.394  -9.505   2.506  0.00  0.00    -0.296 N 
ATOM      4  C   UNL     1      -3.445 -10.337   1.873  0.00  0.00    +0.115 C 
ATOM      5  C   UNL     1      -3.571  -9.778   0.441  0.00  0.00    -0.004 C 
ATOM      6  C   UNL     1      -3.810 -10.912  -0.550  0.00  0.00    -0.010 C 
ATOM      7  C   UNL     1      -5.181 -11.539  -0.280  0.00  0.00    -0.082 C 
ATOM      8  N   UNL     1      -6.225 -10.516  -0.415  0.00  0.00    +0.379 N 
ATOM      9  C   UNL     1      -6.040  -9.475   0.604  0.00  0.00    -0.082 C 
ATOM     10  C   UNL     1      -4.706  -8.761   0.371  0.00  0.00    -0.010 C 
ATOM     11  C   UNL     1      -2.360  -9.040   3.771  0.00  0.00    +0.247 C 
ATOM     12  O   UNL     1      -1.488  -8.262   4.109  0.00  0.00    -0.270 OA
ATOM     13  H   UNL     1      -6.169 -10.100  -1.333  0.00  0.00    -0.086 HD
ATOM     14  H   UNL     1      -7.131 -10.943  -0.296  0.00  0.00    -0.086 HD
ENDROOT
BRANCH  11  15
ATOM     15  C   UNL     1      -3.380  -9.474   4.745  0.00  0.00    +0.041 A 
ATOM     16  C   UNL     1      -4.094 -10.655   4.531  0.00  0.00    +0.017 A 
ATOM     17  C   UNL     1      -5.046 -11.060   5.442  0.00  0.00    +0.050 A 
ATOM     18  C   UNL     1      -5.298 -10.295   6.573  0.00  0.00    +0.162 A 
ATOM     19  C   UNL     1      -4.590  -9.115   6.792  0.00  0.00    +0.162 A 
ATOM     20  C   UNL     1      -3.630  -8.707   5.886  0.00  0.00    +0.062 A 
BRANCH  19  21
ATOM     21  O   UNL     1      -4.840  -8.367   7.900  0.00  0.00    -0.491 OA
ATOM     22  C   UNL     1      -4.077  -7.170   8.061  0.00  0.00    +0.277 C 
ENDBRANCH  19  21
BRANCH  18  23
ATOM     23  O   UNL     1      -6.238 -10.697   7.467  0.00  0.00    -0.491 OA
ATOM     24  C   UNL     1      -6.927 -11.916   7.180  0.00  0.00    +0.277 C 
ENDBRANCH  18  23
ENDBRANCH  11  15
BRANCH   1  26
ATOM     25  N   UNL     1      -2.686  -7.190  -1.359  0.00  0.00    -0.315 N 
ATOM     26  C   UNL     1      -2.428  -7.623  -0.109  0.00  0.00    +0.218 C 
ATOM     27  O   UNL     1      -2.359  -6.830   0.806  0.00  0.00    -0.275 OA
ATOM     28  H   UNL     1      -2.740  -7.825  -2.090  0.00  0.00    +0.149 HD
BRANCH  25  29
ATOM     29  C   UNL     1      -2.884  -5.761  -1.613  0.00  0.00    +0.109 C 
BRANCH  29  30
ATOM     30  C   UNL     1      -3.159  -5.541  -3.101  0.00  0.00    +0.054 C 
BRANCH  30  35
ATOM     31  C   UNL     1      -3.940   0.097  -4.099  0.00  0.00    +0.044 C 
ATOM     32  C   UNL     1      -3.736  -1.373  -3.839  0.00  0.00    -0.050 A 
ATOM     33  C   UNL     1      -4.827  -2.195  -3.624  0.00  0.00    +0.003 A 
ATOM     34  C   UNL     1      -4.641  -3.543  -3.386  0.00  0.00    +0.004 A 
ATOM     35  C   UNL     1      -3.363  -4.071  -3.362  0.00  0.00    -0.043 A 
ATOM     36  C   UNL     1      -2.272  -3.250  -3.578  0.00  0.00    -0.047 A 
ATOM     37  C   UNL     1      -2.459  -1.901  -3.821  0.00  0.00    +0.007 A 
ATOM     38  C   UNL     1      -0.879  -3.825  -3.552  0.00  0.00    +0.044 C 
ENDBRANCH  30  35
ENDBRANCH  29  30
ENDBRANCH  25  29
ENDBRANCH   1  26
TORSDOF 7
