REMARK  Name = ZINC10059077
REMARK  4 active torsions:
REMARK  status: ('A' for Active; 'I' for Inactive)
REMARK    1  A    between atoms: C_4  and  C_7
REMARK    2  A    between atoms: C_10  and  C_33
REMARK    3  A    between atoms: N_12  and  C_13
REMARK    4  A    between atoms: C_16  and  C_19
REMARK                            x       y       z     vdW  Elec       q    Type
REMARK                         _______ _______ _______ _____ _____    ______ ____
ROOT
ATOM      1  C   UNL     1       3.999   2.560  -0.022  0.00  0.00    +0.052 A 
ATOM      2  C   UNL     1       3.731   1.261  -0.438  0.00  0.00    +0.025 A 
ATOM      3  C   UNL     1       2.434   0.788  -0.427  0.00  0.00    +0.009 A 
ATOM      4  C   UNL     1       1.402   1.605  -0.003  0.00  0.00    -0.005 A 
ATOM      5  C   UNL     1       1.664   2.900   0.406  0.00  0.00    +0.009 A 
ATOM      6  C   UNL     1       2.960   3.378   0.403  0.00  0.00    +0.025 A 
ENDROOT
BRANCH   4   7
ATOM      7  C   UNL     1      -0.013   1.086   0.008  0.00  0.00    +0.217 C 
ATOM      8  C   UNL     1      -1.870   2.085   1.234  0.00  0.00    +0.159 C 
ATOM      9  N   UNL     1      -2.624   2.283   0.092  0.00  0.00    -0.259 N 
ATOM     10  C   UNL     1      -1.970   2.136  -1.124  0.00  0.00    +0.205 A 
ATOM     11  N   UNL     1      -0.716   1.569  -1.180  0.00  0.00    -0.287 N 
ATOM     12  C   UNL     1      -0.337   1.569  -2.490  0.00  0.00    +0.072 A 
ATOM     13  C   UNL     1       0.811   1.135  -3.143  0.00  0.00    +0.028 A 
ATOM     14  C   UNL     1       0.855   1.295  -4.518  0.00  0.00    +0.002 A 
ATOM     15  C   UNL     1      -0.193   1.860  -5.225  0.00  0.00    +0.002 A 
ATOM     16  C   UNL     1      -1.346   2.300  -4.600  0.00  0.00    +0.030 A 
ATOM     17  C   UNL     1      -1.412   2.149  -3.211  0.00  0.00    +0.091 A 
ATOM     18  N   UNL     1      -2.366   2.467  -2.320  0.00  0.00    -0.214 NA
ATOM     19  N   UNL     1      -2.396   2.469   2.444  0.00  0.00    -0.332 N 
ATOM     20  H   UNL     1      -3.565   2.514   0.138  0.00  0.00    +0.158 HD
ATOM     21  H   UNL     1      -1.885   2.340   3.258  0.00  0.00    +0.145 HD
ATOM     22  H   UNL     1      -3.279   2.869   2.484  0.00  0.00    +0.145 HD
ATOM     23  N   UNL     1      -0.645   1.546   1.304  0.00  0.00    -0.337 N 
ATOM     24  H   UNL     1      -0.155   1.450   2.201  0.00  0.00    +0.164 HD
ENDBRANCH   4   7
BRANCH   1  29
ATOM     25  C   UNL     1       5.729   4.389   0.381  0.00  0.00    +0.134 C 
ATOM     26  C   UNL     1       7.255   4.374   0.169  0.00  0.00    +0.087 C 
ATOM     27  C   UNL     1       7.537   2.983  -0.353  0.00  0.00    +0.069 C 
ATOM     28  N   UNL     1       6.434   2.320  -0.428  0.00  0.00    -0.183 NA
ATOM     29  N   UNL     1       5.309   3.041  -0.032  0.00  0.00    -0.216 N 
BRANCH  25  33
ATOM     30  C   UNL     1       3.899   7.355  -2.090  0.00  0.00    +0.000 A 
ATOM     31  C   UNL     1       4.053   7.583  -0.736  0.00  0.00    +0.000 A 
ATOM     32  C   UNL     1       4.645   6.623   0.064  0.00  0.00    +0.005 A 
ATOM     33  C   UNL     1       5.083   5.435  -0.491  0.00  0.00    -0.025 A 
ATOM     34  C   UNL     1       4.934   5.209  -1.846  0.00  0.00    +0.005 A 
ATOM     35  C   UNL     1       4.337   6.167  -2.645  0.00  0.00    +0.000 A 
ENDBRANCH  25  33
BRANCH  27  36
ATOM     36  C   UNL     1       8.868   2.463  -0.714  0.00  0.00    -0.002 A 
ATOM     37  C   UNL     1       9.997   3.277  -0.589  0.00  0.00    +0.010 A 
ATOM     38  C   UNL     1      11.241   2.781  -0.922  0.00  0.00    +0.001 A 
ATOM     39  C   UNL     1      11.370   1.486  -1.391  0.00  0.00    +0.000 A 
ATOM     40  C   UNL     1      10.256   0.676  -1.523  0.00  0.00    +0.001 A 
ATOM     41  C   UNL     1       9.007   1.156  -1.187  0.00  0.00    +0.010 A 
ENDBRANCH  27  36
ENDBRANCH   1  29
TORSDOF 4
