REMARK  Name = ZINC46561896
REMARK  9 active torsions:
REMARK  status: ('A' for Active; 'I' for Inactive)
REMARK    1  A    between atoms: C_4  and  C_7
REMARK    2  A    between atoms: C_7  and  C_8
REMARK    3  A    between atoms: C_8  and  C_10
REMARK    4  A    between atoms: C_8  and  N_23
REMARK    5  A    between atoms: N_12  and  C_13
REMARK    6  A    between atoms: C_13  and  C_14
REMARK    7  A    between atoms: C_17  and  C_20
REMARK    8  A    between atoms: N_23  and  S_24
REMARK    9  A    between atoms: S_24  and  C_27
REMARK                            x       y       z     vdW  Elec       q    Type
REMARK                         _______ _______ _______ _____ _____    ______ ____
ROOT
ATOM      1  C   UNL     1       3.901  -1.182   1.180  0.00  0.00    +0.166 C 
ENDROOT
BRANCH   1   2
ATOM      2  C   UNL     1       5.288  -1.765   1.097  0.00  0.00    +0.232 C 
ATOM      3  O   UNL     1       5.577  -2.740   1.758  0.00  0.00    -0.274 OA
ATOM      4  N   UNL     1       6.209  -1.203   0.289  0.00  0.00    -0.310 N 
ATOM      5  H   UNL     1       5.978  -0.423  -0.240  0.00  0.00    +0.149 HD
BRANCH   4   6
ATOM      6  C   UNL     1       7.557  -1.770   0.209  0.00  0.00    +0.139 C 
BRANCH   6   7
ATOM      7  C   UNL     1       8.385  -0.963  -0.758  0.00  0.00    -0.030 A 
ATOM      8  C   UNL     1       8.406  -1.304  -2.099  0.00  0.00    +0.006 A 
ATOM      9  C   UNL     1       9.161  -0.569  -2.989  0.00  0.00    +0.013 A 
ATOM     10  C   UNL     1       9.906   0.520  -2.534  0.00  0.00    +0.037 A 
ATOM     11  C   UNL     1       9.881   0.859  -1.180  0.00  0.00    +0.013 A 
ATOM     12  C   UNL     1       9.116   0.119  -0.301  0.00  0.00    +0.006 A 
BRANCH  10  13
ATOM     13  C   UNL     1      10.718   1.312  -3.482  0.00  0.00    +0.242 C 
ATOM     14  O   UNL     1      10.739   1.015  -4.660  0.00  0.00    -0.270 OA
ATOM     15  N   UNL     1      11.436   2.364  -3.040  0.00  0.00    -0.325 N 
ATOM     16  H   UNL     1      11.420   2.601  -2.099  0.00  0.00    +0.145 HD
ATOM     17  H   UNL     1      11.969   2.883  -3.662  0.00  0.00    +0.145 HD
ENDBRANCH  10  13
ENDBRANCH   6   7
ENDBRANCH   4   6
ENDBRANCH   1   2
BRANCH   1  18
ATOM     18  N   UNL     1       3.097  -1.967   2.119  0.00  0.00    -0.178 NA
ATOM     19  H   UNL     1       2.627  -2.759   1.812  0.00  0.00    +0.149 HD
BRANCH  18  20
ATOM     20  S   UNL     1       2.988  -1.503   3.705  0.00  0.00    +0.062 S 
ATOM     21  O   UNL     1       2.159  -2.459   4.352  0.00  0.00    -0.153 OA
ATOM     22  O   UNL     1       4.313  -1.226   4.138  0.00  0.00    -0.153 OA
BRANCH  20  23
ATOM     23  C   UNL     1       2.116   0.027   3.742  0.00  0.00    +0.140 A 
ATOM     24  C   UNL     1       0.821   0.074   4.224  0.00  0.00    +0.031 A 
ATOM     25  C   UNL     1       0.136   1.274   4.252  0.00  0.00    +0.002 A 
ATOM     26  C   UNL     1       0.745   2.430   3.799  0.00  0.00    +0.003 A 
ATOM     27  C   UNL     1       2.039   2.386   3.317  0.00  0.00    +0.040 A 
ATOM     28  C   UNL     1       2.728   1.185   3.293  0.00  0.00    +0.150 A 
ATOM     29  F   UNL     1       3.996   1.142   2.827  0.00  0.00    -0.203 F 
ENDBRANCH  20  23
ENDBRANCH  18  20
ENDBRANCH   1  18
BRANCH   1  30
ATOM     30  C   UNL     1       3.250  -1.219  -0.204  0.00  0.00    +0.065 C 
BRANCH  30  34
ATOM     31  C   UNL     1      -0.604   0.615  -0.015  0.00  0.00    +0.000 A 
ATOM     32  C   UNL     1       0.523   1.392  -0.208  0.00  0.00    +0.000 A 
ATOM     33  C   UNL     1       1.770   0.799  -0.269  0.00  0.00    +0.004 A 
ATOM     34  C   UNL     1       1.890  -0.572  -0.137  0.00  0.00    -0.045 A 
ATOM     35  C   UNL     1       0.764  -1.349   0.057  0.00  0.00    +0.004 A 
ATOM     36  C   UNL     1      -0.483  -0.756   0.116  0.00  0.00    +0.000 A 
ENDBRANCH  30  34
ENDBRANCH   1  30
TORSDOF 9
