REMARK  Name = ZINC26562283
REMARK  11 active torsions:
REMARK  status: ('A' for Active; 'I' for Inactive)
REMARK    1  A    between atoms: C_3  and  C_6
REMARK    2  A    between atoms: C_6  and  N_7
REMARK    3  A    between atoms: N_7  and  S_8
REMARK    4  A    between atoms: S_8  and  C_11
REMARK    5  A    between atoms: C_14  and  C_17
REMARK    6  A    between atoms: C_18  and  C_19
REMARK    7  A    between atoms: N_21  and  C_22
REMARK    8  A    between atoms: C_22  and  C_23
REMARK    9  A    between atoms: C_23  and  C_24
REMARK   10  A    between atoms: C_27  and  S_30
REMARK   11  A    between atoms: S_30  and  N_33
REMARK                            x       y       z     vdW  Elec       q    Type
REMARK                         _______ _______ _______ _____ _____    ______ ____
ROOT
ATOM      1  C   UNL     1      -1.194   2.118   0.019  0.00  0.00    +0.013 C 
ATOM      2  C   UNL     1      -0.018   1.460   0.010  0.00  0.00    +0.068 C 
ENDROOT
BRANCH   1   6
ATOM      3  C   UNL     1      -1.252   6.360   0.043  0.00  0.00    +0.105 A 
ATOM      4  C   UNL     1      -2.443   5.655   0.045  0.00  0.00    +0.029 A 
ATOM      5  C   UNL     1      -2.433   4.276   0.037  0.00  0.00    +0.010 A 
ATOM      6  C   UNL     1      -1.214   3.590   0.027  0.00  0.00    -0.025 A 
ATOM      7  C   UNL     1      -0.015   4.309   0.031  0.00  0.00    +0.010 A 
ATOM      8  C   UNL     1      -0.042   5.688   0.035  0.00  0.00    +0.029 A 
BRANCH   3   9
ATOM      9  S   UNL     1      -1.276   8.122   0.054  0.00  0.00    +0.059 S 
ATOM     10  O   UNL     1      -0.038   8.548  -0.500  0.00  0.00    -0.153 OA
ATOM     11  O   UNL     1      -2.529   8.514  -0.489  0.00  0.00    -0.153 OA
BRANCH   9  12
ATOM     12  N   UNL     1      -1.275   8.602   1.639  0.00  0.00    -0.183 NA
ATOM     13  H   UNL     1      -2.205   8.984   2.085  0.00  0.00    +0.148 HD
BRANCH  12  14
ATOM     14  C   UNL     1      -0.117   8.317   2.490  0.00  0.00    +0.180 C 
BRANCH  14  17
ATOM     15  C   UNL     1      -0.630   9.874   5.791  0.00  0.00    +0.041 A 
ATOM     16  C   UNL     1      -0.797   8.797   4.890  0.00  0.00    +0.046 A 
ATOM     17  C   UNL     1      -0.196   9.154   3.741  0.00  0.00    +0.120 A 
ATOM     18  O   UNL     1       0.328  10.381   3.899  0.00  0.00    -0.466 OA
ATOM     19  C   UNL     1       0.063  10.825   5.138  0.00  0.00    +0.195 A 
ENDBRANCH  14  17
ENDBRANCH  12  14
ENDBRANCH   9  12
ENDBRANCH   3   9
ENDBRANCH   1   6
BRANCH   2  20
ATOM     20  C   UNL     1       0.002  -0.004   0.002  0.00  0.00    +0.237 C 
ATOM     21  O   UNL     1      -1.043  -0.627   0.009  0.00  0.00    -0.271 OA
ATOM     22  N   UNL     1       1.178  -0.662  -0.013  0.00  0.00    -0.312 N 
ATOM     23  H   UNL     1       2.123  -0.099  -0.019  0.00  0.00    +0.149 HD
BRANCH  22  24
ATOM     24  C   UNL     1       1.198  -2.127  -0.021  0.00  0.00    +0.109 C 
BRANCH  24  25
ATOM     25  C   UNL     1       2.647  -2.617  -0.037  0.00  0.00    +0.054 C 
BRANCH  25  26
ATOM     26  C   UNL     1       2.668  -4.124  -0.046  0.00  0.00    -0.046 A 
ATOM     27  C   UNL     1       2.694  -4.821   1.148  0.00  0.00    +0.005 A 
ATOM     28  C   UNL     1       2.709  -6.204   1.140  0.00  0.00    +0.029 A 
ATOM     29  C   UNL     1       2.706  -6.888  -0.061  0.00  0.00    +0.105 A 
ATOM     30  C   UNL     1       2.684  -6.191  -1.254  0.00  0.00    +0.029 A 
ATOM     31  C   UNL     1       2.666  -4.809  -1.246  0.00  0.00    +0.005 A 
BRANCH  29  32
ATOM     32  S   UNL     1       2.728  -8.650  -0.070  0.00  0.00    +0.056 S 
ATOM     33  O   UNL     1       2.196  -9.070   1.178  0.00  0.00    -0.153 OA
ATOM     34  O   UNL     1       2.170  -9.057  -1.312  0.00  0.00    -0.153 OA
BRANCH  32  35
ATOM     35  N   UNL     1       4.316  -9.119  -0.089  0.00  0.00    -0.204 NA
ATOM     36  H   UNL     1       4.374 -10.218  -0.096  0.00  0.00    +0.144 HD
ATOM     37  H   UNL     1       4.824  -8.731   0.806  0.00  0.00    +0.144 HD
ENDBRANCH  32  35
ENDBRANCH  29  32
ENDBRANCH  25  26
ENDBRANCH  24  25
ENDBRANCH  22  24
ENDBRANCH   2  20
TORSDOF 11
