REMARK  Name = ZINC38827319
REMARK  7 active torsions:
REMARK  status: ('A' for Active; 'I' for Inactive)
REMARK    1  A    between atoms: C_4  and  C_7
REMARK    2  A    between atoms: C_7  and  C_8
REMARK    3  A    between atoms: C_8  and  N_9
REMARK    4  A    between atoms: C_13  and  C_18
REMARK    5  A    between atoms: C_14  and  C_16
REMARK    6  A    between atoms: C_20  and  C_25
REMARK    7  A    between atoms: C_22  and  N_24
REMARK                            x       y       z     vdW  Elec       q    Type
REMARK                         _______ _______ _______ _____ _____    ______ ____
ROOT
ATOM      1  N   UNL     1       5.489  -2.387   1.487  0.00  0.00    -0.327 N 
ATOM      2  C   UNL     1       6.144  -3.584   1.251  0.00  0.00    +0.144 A 
ATOM      3  C   UNL     1       7.524  -3.400   1.127  0.00  0.00    +0.093 A 
ATOM      4  N   UNL     1       8.323  -4.421   0.900  0.00  0.00    -0.234 NA
ATOM      5  C   UNL     1       7.823  -5.650   0.786  0.00  0.00    +0.176 A 
ATOM      6  C   UNL     1       6.437  -5.847   0.910  0.00  0.00    +0.178 A 
ATOM      7  N   UNL     1       5.639  -4.811   1.138  0.00  0.00    -0.217 NA
ATOM      8  C   UNL     1       7.823  -1.926   1.296  0.00  0.00    +0.111 C 
ATOM      9  C   UNL     1       6.448  -1.280   1.528  0.00  0.00    +0.031 C 
ENDROOT
BRANCH   8  10
ATOM     10  C   UNL     1       8.724  -1.705   2.484  0.00  0.00    +0.142 A 
ATOM     11  N   UNL     1       8.391  -2.257   3.641  0.00  0.00    -0.193 NA
ATOM     12  C   UNL     1       9.139  -2.102   4.722  0.00  0.00    +0.281 A 
ATOM     13  O   UNL     1       8.787  -2.671   5.898  0.00  0.00    -0.265 OA
ATOM     14  C   UNL     1      10.316  -1.325   4.615  0.00  0.00    +0.068 A 
ATOM     15  C   UNL     1      11.166  -1.108   5.706  0.00  0.00    +0.030 A 
ATOM     16  C   UNL     1      12.288  -0.349   5.543  0.00  0.00    +0.019 A 
ATOM     17  C   UNL     1      12.598   0.212   4.306  0.00  0.00    +0.017 A 
ATOM     18  C   UNL     1      11.791   0.019   3.225  0.00  0.00    +0.029 A 
ATOM     19  C   UNL     1      10.630  -0.755   3.357  0.00  0.00    +0.078 A 
ATOM     20  N   UNL     1       9.805  -0.980   2.324  0.00  0.00    -0.231 NA
ATOM     21 BR   UNL     1      13.438  -0.054   7.015  0.00  0.00    -0.050 Br
ENDBRANCH   8  10
BRANCH   9  22
ATOM     22  N   UNL     1       6.411  -0.625   2.842  0.00  0.00    +0.391 N 
ATOM     23  H   UNL     1       6.532  -1.316   3.567  0.00  0.00    -0.087 HD
ATOM     24  H   UNL     1       7.154   0.056   2.899  0.00  0.00    -0.087 HD
ATOM     25  H   UNL     1       5.522  -0.163   2.963  0.00  0.00    -0.087 HD
ENDBRANCH   9  22
BRANCH   6  26
ATOM     26  C   UNL     1       5.887  -7.164   0.790  0.00  0.00    +0.122 C 
ATOM     27  N   UNL     1       5.450  -8.208   0.695  0.00  0.00    -0.189 NA
ENDBRANCH   6  26
BRANCH   5  28
ATOM     28  C   UNL     1       8.691  -6.761   0.539  0.00  0.00    +0.122 C 
ATOM     29  N   UNL     1       9.380  -7.643   0.343  0.00  0.00    -0.189 NA
ENDBRANCH   5  28
BRANCH   1  30
ATOM     30  C   UNL     1       4.041  -2.247   1.663  0.00  0.00    +0.109 C 
BRANCH  30  31
ATOM     31  C   UNL     1       3.382  -2.010   0.302  0.00  0.00    +0.054 C 
BRANCH  31  35
ATOM     32  C   UNL     1      -0.839  -1.601   0.813  0.00  0.00    +0.000 A 
ATOM     33  C   UNL     1      -0.024  -0.486   0.873  0.00  0.00    +0.000 A 
ATOM     34  C   UNL     1       1.342  -0.619   0.708  0.00  0.00    +0.004 A 
ATOM     35  C   UNL     1       1.893  -1.866   0.483  0.00  0.00    -0.046 A 
ATOM     36  C   UNL     1       1.079  -2.981   0.424  0.00  0.00    +0.004 A 
ATOM     37  C   UNL     1      -0.288  -2.849   0.588  0.00  0.00    +0.000 A 
ENDBRANCH  31  35
ENDBRANCH  30  31
ENDBRANCH   1  30
TORSDOF 7
