REMARK  Name = ZINC01089228
REMARK  5 active torsions:
REMARK  status: ('A' for Active; 'I' for Inactive)
REMARK    1  A    between atoms: C_1  and  N_2
REMARK    2  A    between atoms: C_5  and  C_7
REMARK    3  A    between atoms: N_9  and  N_10
REMARK    4  A    between atoms: C_11  and  C_12
REMARK    5  A    between atoms: C_15  and  O_19
REMARK                            x       y       z     vdW  Elec       q    Type
REMARK                         _______ _______ _______ _____ _____    ______ ____
ROOT
ATOM      1  N   UNL     1       2.366   1.218  -0.014  0.00  0.00    -0.187 NA
ATOM      2  C   UNL     1       3.481   1.882  -0.021  0.00  0.00    +0.138 C 
ENDROOT
BRANCH   2   3
ATOM      3  C   UNL     1       4.768   1.162  -0.037  0.00  0.00    -0.003 A 
ATOM      4  C   UNL     1       4.789  -0.235  -0.039  0.00  0.00    +0.028 A 
ATOM      5  C   UNL     1       5.995  -0.904  -0.058  0.00  0.00    +0.061 A 
ATOM      6  C   UNL     1       7.187  -0.191  -0.066  0.00  0.00    +0.145 A 
ATOM      7  C   UNL     1       7.171   1.198  -0.059  0.00  0.00    +0.061 A 
ATOM      8  C   UNL     1       5.970   1.875  -0.045  0.00  0.00    +0.028 A 
ATOM      9 BR   UNL     1       8.798   2.162  -0.070  0.00  0.00    -0.046 Br
ATOM     10 BR   UNL     1       6.025  -2.795  -0.067  0.00  0.00    -0.046 Br
BRANCH   6  11
ATOM     11  O   UNL     1       8.373  -0.854  -0.080  0.00  0.00    -0.505 OA
ATOM     12  H   UNL     1       8.724  -1.050   0.799  0.00  0.00    +0.292 HD
ENDBRANCH   6  11
ENDBRANCH   2   3
BRANCH   1  15
ATOM     13  C   UNL     1      -0.014   1.212   0.009  0.00  0.00    +0.284 C 
ATOM     14  O   UNL     1       0.002  -0.004   0.002  0.00  0.00    -0.267 OA
ATOM     15  N   UNL     1       1.143   1.902   0.001  0.00  0.00    -0.202 N 
ATOM     16  H   UNL     1       1.130   2.872   0.007  0.00  0.00    +0.178 HD
BRANCH  13  21
ATOM     17  C   UNL     1      -3.271   4.885   0.045  0.00  0.00    +0.172 C 
ATOM     18  N   UNL     1      -2.721   3.527   0.035  0.00  0.00    -0.273 N 
ATOM     19  C   UNL     1      -3.460   2.390   0.032  0.00  0.00    +0.124 A 
ATOM     20  C   UNL     1      -2.593   1.350   0.022  0.00  0.00    +0.068 A 
ATOM     21  C   UNL     1      -1.303   1.933   0.019  0.00  0.00    +0.163 A 
ATOM     22  N   UNL     1      -1.469   3.240   0.032  0.00  0.00    -0.166 NA
ATOM     23 BR   UNL     1      -3.016  -0.493   0.014  0.00  0.00    -0.046 Br
ENDBRANCH  13  21
ENDBRANCH   1  15
TORSDOF 4
