REMARK  Name = ZINC38546975
REMARK  7 active torsions:
REMARK  status: ('A' for Active; 'I' for Inactive)
REMARK    1  A    between atoms: C_1  and  C_2
REMARK    2  A    between atoms: N_8  and  C_9
REMARK    3  A    between atoms: C_9  and  C_11
REMARK    4  A    between atoms: C_9  and  C_18
REMARK    5  A    between atoms: C_20  and  C_31
REMARK    6  A    between atoms: C_22  and  N_23
REMARK    7  A    between atoms: C_24  and  C_26
REMARK                            x       y       z     vdW  Elec       q    Type
REMARK                         _______ _______ _______ _____ _____    ______ ____
ROOT
ATOM      1  C   UNL     1       0.048  -2.142   3.611  0.00  0.00    +0.135 C 
ENDROOT
BRANCH   1   9
ATOM      2  C   UNL     1       0.234   1.775   0.313  0.00  0.00    +0.044 C 
ATOM      3  C   UNL     1       0.387   0.280   0.203  0.00  0.00    -0.046 A 
ATOM      4  C   UNL     1       0.642  -0.319  -1.024  0.00  0.00    +0.021 A 
ATOM      5  C   UNL     1       0.778  -1.691  -1.092  0.00  0.00    +0.084 A 
ATOM      6  N   UNL     1       0.668  -2.436  -0.008  0.00  0.00    -0.350 N 
ATOM      7  C   UNL     1       0.425  -1.903   1.179  0.00  0.00    +0.097 A 
ATOM      8  C   UNL     1       0.282  -0.526   1.321  0.00  0.00    +0.045 A 
ATOM      9  N   UNL     1       0.317  -2.725   2.295  0.00  0.00    -0.320 N 
ATOM     10  H   UNL     1       0.419  -3.686   2.201  0.00  0.00    +0.148 HD
ATOM     11  H   UNL     1       0.768  -3.398  -0.083  0.00  0.00    +0.166 HD
ENDBRANCH   1   9
BRANCH   1  12
ATOM     12  C   UNL     1      -1.436  -1.940   3.778  0.00  0.00    -0.020 A 
ATOM     13  C   UNL     1      -2.320  -2.900   3.320  0.00  0.00    +0.006 A 
ATOM     14  C   UNL     1      -3.682  -2.716   3.472  0.00  0.00    +0.003 A 
ATOM     15  C   UNL     1      -4.161  -1.572   4.081  0.00  0.00    +0.038 A 
ATOM     16  C   UNL     1      -3.277  -0.610   4.539  0.00  0.00    +0.124 A 
ATOM     17  C   UNL     1      -1.913  -0.798   4.392  0.00  0.00    +0.044 A 
ATOM     18  F   UNL     1      -3.745   0.509   5.135  0.00  0.00    -0.205 F 
ENDBRANCH   1  12
BRANCH   1  19
ATOM     19  C   UNL     1       0.551  -3.072   4.685  0.00  0.00    +0.006 A 
ATOM     20  C   UNL     1       0.638  -4.433   4.454  0.00  0.00    +0.018 A 
ATOM     21  C   UNL     1       1.095  -5.241   5.441  0.00  0.00    -0.011 A 
ATOM     22  S   UNL     1       1.424  -4.077   6.753  0.00  0.00    -0.078 S 
ATOM     23  C   UNL     1       0.935  -2.587   5.899  0.00  0.00    +0.078 A 
ATOM     24  C   UNL     1       1.279  -6.736   5.432  0.00  0.00    +0.051 C 
BRANCH  23  25
ATOM     25  N   UNL     1       0.942  -1.268   6.357  0.00  0.00    -0.273 N 
ATOM     26  C   UNL     1       1.364  -0.991   7.606  0.00  0.00    +0.284 C 
ATOM     27  O   UNL     1       1.739  -1.890   8.336  0.00  0.00    -0.266 OA
ATOM     28  H   UNL     1       0.643  -0.551   5.776  0.00  0.00    +0.156 HD
BRANCH  26  29
ATOM     29  C   UNL     1       1.371   0.395   8.087  0.00  0.00    +0.189 A 
ATOM     30  C   UNL     1       1.777   0.813   9.322  0.00  0.00    +0.054 A 
ATOM     31  C   UNL     1       1.616   2.208   9.349  0.00  0.00    +0.042 A 
ATOM     32  C   UNL     1       1.125   2.574   8.144  0.00  0.00    +0.196 A 
ATOM     33  O   UNL     1       0.984   1.480   7.385  0.00  0.00    -0.458 OA
ENDBRANCH  26  29
ENDBRANCH  23  25
ENDBRANCH   1  19
TORSDOF 5
