REMARK  Name = ZINC03364438
REMARK  8 active torsions:
REMARK  status: ('A' for Active; 'I' for Inactive)
REMARK    1  A    between atoms: C_1  and  C_2
REMARK    2  A    between atoms: C_4  and  C_15
REMARK    3  A    between atoms: C_5  and  C_14
REMARK    4  A    between atoms: N_6  and  C_7
REMARK    5  A    between atoms: N_21  and  C_22
REMARK    6  A    between atoms: C_23  and  C_35
REMARK    7  A    between atoms: N_24  and  C_34
REMARK    8  A    between atoms: N_25  and  C_28
REMARK                            x       y       z     vdW  Elec       q    Type
REMARK                         _______ _______ _______ _____ _____    ______ ____
ROOT
ATOM      1  C   UNL     1       1.322  -2.749  -1.598  0.00  0.00    +0.064 C 
ATOM      2  C   UNL     1       1.291  -3.903  -0.932  0.00  0.00    +0.073 C 
ATOM      3  S   UNL     1       0.874  -5.395  -1.772  0.00  0.00    -0.059 S 
ATOM      4  C   UNL     1       1.034  -4.970  -3.474  0.00  0.00    +0.180 C 
ATOM      5  N   UNL     1       1.091  -3.734  -3.844  0.00  0.00    -0.159 NA
ATOM      6  N   UNL     1       1.024  -2.661  -2.963  0.00  0.00    -0.234 N 
ATOM      7  N   UNL     1       1.101  -5.973  -4.426  0.00  0.00    -0.287 N 
ATOM      8  H   UNL     1       0.757  -1.798  -3.315  0.00  0.00    +0.174 HD
ATOM      9  H   UNL     1       1.001  -6.900  -4.162  0.00  0.00    +0.154 HD
ENDROOT
BRANCH   7  10
ATOM     10  C   UNL     1       1.314  -5.645  -5.781  0.00  0.00    +0.121 A 
ATOM     11  C   UNL     1       2.316  -6.098  -6.567  0.00  0.00    +0.059 A 
ATOM     12  N   UNL     1       2.175  -5.549  -7.816  0.00  0.00    -0.282 N 
ATOM     13  N   UNL     1       1.047  -4.720  -7.827  0.00  0.00    -0.216 N 
ATOM     14  C   UNL     1       0.488  -4.757  -6.599  0.00  0.00    +0.293 A 
ATOM     15  O   UNL     1      -0.511  -4.161  -6.240  0.00  0.00    -0.264 OA
ATOM     16  C   UNL     1       3.062  -5.791  -8.955  0.00  0.00    +0.171 C 
ATOM     17  C   UNL     1       3.406  -7.048  -6.142  0.00  0.00    +0.067 C 
BRANCH  13  18
ATOM     18  C   UNL     1       0.579  -3.986  -8.921  0.00  0.00    +0.067 A 
ATOM     19  C   UNL     1       0.247  -2.646  -8.769  0.00  0.00    +0.028 A 
ATOM     20  C   UNL     1      -0.216  -1.924  -9.852  0.00  0.00    +0.002 A 
ATOM     21  C   UNL     1      -0.349  -2.534 -11.086  0.00  0.00    +0.000 A 
ATOM     22  C   UNL     1      -0.020  -3.868 -11.240  0.00  0.00    +0.002 A 
ATOM     23  C   UNL     1       0.449  -4.594 -10.163  0.00  0.00    +0.028 A 
ENDBRANCH  13  18
ENDBRANCH   7  10
BRANCH   1  27
ATOM     24  C   UNL     1       1.320   1.010   1.812  0.00  0.00    +0.064 C 
ATOM     25  C   UNL     1       1.668   0.132   0.638  0.00  0.00    +0.022 A 
ATOM     26  C   UNL     1       1.036  -1.005   0.293  0.00  0.00    +0.033 A 
ATOM     27  C   UNL     1       1.678  -1.514  -0.866  0.00  0.00    +0.019 A 
ATOM     28  C   UNL     1       2.685  -0.650  -1.178  0.00  0.00    +0.030 A 
ATOM     29  N   UNL     1       2.674   0.360  -0.258  0.00  0.00    -0.317 N 
ATOM     30  C   UNL     1       3.640  -0.783  -2.336  0.00  0.00    +0.064 C 
BRANCH  29  31
ATOM     31  C   UNL     1       3.553   1.451  -0.236  0.00  0.00    +0.047 A 
ATOM     32  C   UNL     1       3.530   2.384  -1.264  0.00  0.00    +0.027 A 
ATOM     33  C   UNL     1       4.397   3.458  -1.240  0.00  0.00    +0.022 A 
ATOM     34  C   UNL     1       5.289   3.605  -0.193  0.00  0.00    +0.041 A 
ATOM     35  C   UNL     1       5.314   2.677   0.833  0.00  0.00    +0.022 A 
ATOM     36  C   UNL     1       4.445   1.604   0.817  0.00  0.00    +0.027 A 
ATOM     37 CL   UNL     1       6.379   4.957  -0.166  0.00  0.00    -0.084 Cl
ENDBRANCH  29  31
ENDBRANCH   1  27
TORSDOF 4
