REMARK  Name = ZINC39689469
REMARK  10 active torsions:
REMARK  status: ('A' for Active; 'I' for Inactive)
REMARK    1  A    between atoms: C_1  and  C_2
REMARK    2  A    between atoms: C_6  and  C_8
REMARK    3  A    between atoms: C_8  and  C_9
REMARK    4  A    between atoms: C_9  and  N_10
REMARK    5  A    between atoms: C_11  and  C_13
REMARK    6  A    between atoms: C_24  and  C_26
REMARK    7  A    between atoms: C_28  and  O_34
REMARK    8  A    between atoms: C_31  and  O_32
REMARK    9  A    between atoms: O_32  and  C_33
REMARK   10  A    between atoms: O_34  and  C_35
REMARK                            x       y       z     vdW  Elec       q    Type
REMARK                         _______ _______ _______ _____ _____    ______ ____
ROOT
ATOM      1  C   UNL     1       2.701  -4.909   6.065  0.00  0.00    +0.100 C 
ATOM      2  C   UNL     1       1.954  -6.254   5.917  0.00  0.00    +0.121 C 
ATOM      3  N   UNL     1       3.016  -7.240   5.606  0.00  0.00    -0.296 N 
ATOM      4  C   UNL     1       4.155  -6.838   6.467  0.00  0.00    +0.115 C 
ATOM      5  C   UNL     1       4.144  -5.297   6.429  0.00  0.00    -0.004 C 
ATOM      6  C   UNL     1       4.513  -4.733   7.798  0.00  0.00    -0.010 C 
ATOM      7  C   UNL     1       5.971  -5.082   8.113  0.00  0.00    -0.082 C 
ATOM      8  N   UNL     1       6.845  -4.519   7.077  0.00  0.00    +0.379 N 
ATOM      9  C   UNL     1       6.546  -5.136   5.779  0.00  0.00    -0.082 C 
ATOM     10  C   UNL     1       5.113  -4.789   5.365  0.00  0.00    -0.010 C 
ATOM     11  C   UNL     1       2.959  -8.269   4.739  0.00  0.00    +0.250 C 
ATOM     12  O   UNL     1       1.982  -8.414   4.029  0.00  0.00    -0.270 OA
ATOM     13  H   UNL     1       6.696  -3.523   7.017  0.00  0.00    -0.086 HD
ATOM     14  H   UNL     1       7.809  -4.698   7.318  0.00  0.00    -0.086 HD
ENDROOT
BRANCH  11  15
ATOM     15  C   UNL     1       4.082  -9.222   4.649  0.00  0.00    +0.082 A 
ATOM     16  C   UNL     1       4.805  -9.565   5.794  0.00  0.00    +0.062 A 
ATOM     17  C   UNL     1       5.856 -10.458   5.703  0.00  0.00    +0.121 A 
ATOM     18  C   UNL     1       6.196 -11.014   4.476  0.00  0.00    +0.049 A 
ATOM     19  C   UNL     1       5.487 -10.681   3.339  0.00  0.00    +0.050 A 
ATOM     20  C   UNL     1       4.426  -9.790   3.416  0.00  0.00    +0.132 A 
BRANCH  20  21
ATOM     21  O   UNL     1       3.727  -9.467   2.298  0.00  0.00    -0.494 OA
ATOM     22  C   UNL     1       4.135 -10.085   1.076  0.00  0.00    +0.277 C 
ENDBRANCH  20  21
BRANCH  17  23
ATOM     23  O   UNL     1       6.560 -10.793   6.817  0.00  0.00    -0.495 OA
ATOM     24  C   UNL     1       7.633 -11.722   6.652  0.00  0.00    +0.277 C 
ENDBRANCH  17  23
ENDBRANCH  11  15
BRANCH   1  26
ATOM     25  N   UNL     1       2.686  -2.801   4.771  0.00  0.00    -0.315 N 
ATOM     26  C   UNL     1       2.675  -4.149   4.764  0.00  0.00    +0.218 C 
ATOM     27  O   UNL     1       2.645  -4.749   3.711  0.00  0.00    -0.275 OA
ATOM     28  H   UNL     1       2.710  -2.321   5.614  0.00  0.00    +0.149 HD
BRANCH  25  29
ATOM     29  C   UNL     1       2.660  -2.061   3.507  0.00  0.00    +0.109 C 
BRANCH  29  30
ATOM     30  C   UNL     1       2.679  -0.559   3.794  0.00  0.00    +0.054 C 
BRANCH  30  36
ATOM     31  C   UNL     1       5.106   1.613  -0.006  0.00  0.00    +0.044 C 
ATOM     32  C   UNL     1       3.814   1.241   0.676  0.00  0.00    -0.050 A 
ATOM     33  C   UNL     1       2.605   1.599   0.108  0.00  0.00    +0.003 A 
ATOM     34  C   UNL     1       1.420   1.258   0.733  0.00  0.00    +0.001 A 
ATOM     35  C   UNL     1       1.444   0.560   1.926  0.00  0.00    +0.004 A 
ATOM     36  C   UNL     1       2.653   0.202   2.494  0.00  0.00    -0.046 A 
ATOM     37  C   UNL     1       3.838   0.539   1.866  0.00  0.00    +0.007 A 
ENDBRANCH  30  36
ENDBRANCH  29  30
ENDBRANCH  25  29
ENDBRANCH   1  26
TORSDOF 7
