REMARK  Name = ZINC22535688
REMARK  17 active torsions:
REMARK  status: ('A' for Active; 'I' for Inactive)
REMARK    1  A    between atoms: C_1  and  C_2
REMARK    2  A    between atoms: C_4  and  C_38
REMARK    3  A    between atoms: C_5  and  C_9
REMARK    4  A    between atoms: C_7  and  C_8
REMARK    5  A    between atoms: C_9  and  C_11
REMARK    6  A    between atoms: C_9  and  N_12
REMARK    7  A    between atoms: C_13  and  C_15
REMARK    8  A    between atoms: C_15  and  N_16
REMARK    9  A    between atoms: N_16  and  C_17
REMARK   10  A    between atoms: N_16  and  S_25
REMARK   11  A    between atoms: C_20  and  O_23
REMARK   12  A    between atoms: O_23  and  C_24
REMARK   13  A    between atoms: S_25  and  C_28
REMARK   14  A    between atoms: C_31  and  O_36
REMARK   15  A    between atoms: C_32  and  O_34
REMARK   16  A    between atoms: O_34  and  C_35
REMARK   17  A    between atoms: O_36  and  C_37
REMARK                            x       y       z     vdW  Elec       q    Type
REMARK                         _______ _______ _______ _____ _____    ______ ____
ROOT
ATOM      1  N   UNL     1       6.655   4.136  -2.337  0.00  0.00    -0.194 N 
ENDROOT
BRANCH   1   2
ATOM      2  C   UNL     1       7.665   4.369  -1.397  0.00  0.00    +0.052 A 
ATOM      3  C   UNL     1       8.630   5.337  -1.641  0.00  0.00    +0.028 A 
ATOM      4  C   UNL     1       9.623   5.571  -0.710  0.00  0.00    +0.047 A 
ATOM      5  C   UNL     1       9.664   4.830   0.463  0.00  0.00    +0.120 A 
ATOM      6  C   UNL     1       8.703   3.860   0.704  0.00  0.00    +0.047 A 
ATOM      7  C   UNL     1       7.705   3.629  -0.223  0.00  0.00    +0.028 A 
BRANCH   5   8
ATOM      8  O   UNL     1      10.645   5.057   1.376  0.00  0.00    -0.495 OA
ATOM      9  C   UNL     1      11.602   6.072   1.062  0.00  0.00    +0.277 C 
ENDBRANCH   5   8
ENDBRANCH   1   2
BRANCH   1  10
ATOM     10  S   UNL     1       7.035   3.511  -3.823  0.00  0.00    +0.075 S 
ATOM     11  O   UNL     1       8.330   2.937  -3.704  0.00  0.00    -0.150 OA
ATOM     12  O   UNL     1       5.906   2.761  -4.250  0.00  0.00    -0.150 OA
BRANCH  10  13
ATOM     13  C   UNL     1       7.187   4.869  -4.936  0.00  0.00    +0.112 A 
ATOM     14  C   UNL     1       6.060   5.396  -5.539  0.00  0.00    +0.032 A 
ATOM     15  C   UNL     1       6.174   6.465  -6.409  0.00  0.00    +0.051 A 
ATOM     16  C   UNL     1       7.420   7.003  -6.685  0.00  0.00    +0.162 A 
ATOM     17  C   UNL     1       8.555   6.470  -6.082  0.00  0.00    +0.163 A 
ATOM     18  C   UNL     1       8.434   5.402  -5.208  0.00  0.00    +0.078 A 
BRANCH  17  19
ATOM     19  O   UNL     1       9.780   6.995  -6.350  0.00  0.00    -0.491 OA
ATOM     20  C   UNL     1      10.900   6.397  -5.695  0.00  0.00    +0.277 C 
ENDBRANCH  17  19
BRANCH  16  21
ATOM     21  O   UNL     1       7.534   8.052  -7.544  0.00  0.00    -0.491 OA
ATOM     22  C   UNL     1       6.326   8.548  -8.126  0.00  0.00    +0.277 C 
ENDBRANCH  16  21
ENDBRANCH  10  13
ENDBRANCH   1  10
BRANCH   1  23
ATOM     23  C   UNL     1       5.261   4.444  -2.007  0.00  0.00    +0.227 C 
BRANCH  23  25
ATOM     24  N   UNL     1       3.763   6.411  -2.059  0.00  0.00    -0.307 N 
ATOM     25  C   UNL     1       4.988   5.899  -2.289  0.00  0.00    +0.233 C 
ATOM     26  O   UNL     1       5.871   6.608  -2.723  0.00  0.00    -0.274 OA
ATOM     27  H   UNL     1       2.963   5.767  -1.665  0.00  0.00    +0.149 HD
BRANCH  24  28
ATOM     28  C   UNL     1       3.498   7.825  -2.333  0.00  0.00    +0.100 C 
ATOM     29  C   UNL     1       3.916   8.666  -1.125  0.00  0.00    +0.033 C 
BRANCH  28  34
ATOM     30  C   UNL     1      -2.144   8.559  -3.347  0.00  0.00    +0.044 C 
ATOM     31  C   UNL     1      -0.673   8.370  -3.079  0.00  0.00    -0.047 A 
ATOM     32  C   UNL     1       0.244   9.265  -3.597  0.00  0.00    +0.007 A 
ATOM     33  C   UNL     1       1.594   9.088  -3.357  0.00  0.00    -0.045 A 
ATOM     34  C   UNL     1       2.026   8.019  -2.595  0.00  0.00    -0.024 A 
ATOM     35  C   UNL     1       1.108   7.127  -2.072  0.00  0.00    +0.009 A 
ATOM     36  C   UNL     1      -0.242   7.304  -2.313  0.00  0.00    -0.047 A 
ATOM     37  C   UNL     1      -1.242   6.331  -1.744  0.00  0.00    +0.044 C 
ATOM     38  C   UNL     1       2.595  10.060  -3.927  0.00  0.00    +0.044 C 
ENDBRANCH  28  34
ENDBRANCH  24  28
ENDBRANCH  23  25
ENDBRANCH   1  23
TORSDOF 10
