REMARK  Name = ZINC05956249
REMARK  11 active torsions:
REMARK  status: ('A' for Active; 'I' for Inactive)
REMARK    1  A    between atoms: C_1  and  C_2
REMARK    2  A    between atoms: C_2  and  C_4
REMARK    3  A    between atoms: C_5  and  C_35
REMARK    4  A    between atoms: C_6  and  C_33
REMARK    5  A    between atoms: N_9  and  C_17
REMARK    6  A    between atoms: C_10  and  C_11
REMARK    7  A    between atoms: C_19  and  O_32
REMARK    8  A    between atoms: C_21  and  O_31
REMARK    9  A    between atoms: C_23  and  O_30
REMARK   10  A    between atoms: C_25  and  C_28
REMARK   11  A    between atoms: C_28  and  O_29
REMARK                            x       y       z     vdW  Elec       q    Type
REMARK                         _______ _______ _______ _____ _____    ______ ____
ROOT
ATOM      1  C   UNL     1       0.854   1.527  -4.563  0.00  0.00    +0.053 A 
ATOM      2  C   UNL     1       0.813   0.100  -4.909  0.00  0.00    +0.050 A 
ATOM      3  C   UNL     1       0.461  -0.817  -3.899  0.00  0.00    +0.094 A 
ATOM      4  C   UNL     1       0.167  -0.334  -2.602  0.00  0.00    +0.108 A 
ATOM      5  S   UNL     1      -0.255  -1.444  -1.369  0.00  0.00    -0.031 S 
ATOM      6  N   UNL     1       0.208   0.978  -2.320  0.00  0.00    -0.304 N 
ATOM      7  C   UNL     1       0.541   1.910  -3.254  0.00  0.00    +0.063 A 
ENDROOT
BRANCH   7   8
ATOM      8  C   UNL     1       0.574   3.336  -2.882  0.00  0.00    -0.001 A 
ATOM      9  C   UNL     1       1.755   4.071  -3.025  0.00  0.00    +0.010 A 
ATOM     10  C   UNL     1       1.776   5.406  -2.680  0.00  0.00    +0.001 A 
ATOM     11  C   UNL     1       0.637   6.015  -2.184  0.00  0.00    +0.000 A 
ATOM     12  C   UNL     1      -0.534   5.292  -2.035  0.00  0.00    +0.001 A 
ATOM     13  C   UNL     1      -0.573   3.958  -2.381  0.00  0.00    +0.010 A 
ENDBRANCH   7   8
BRANCH   6  14
ATOM     14  C   UNL     1      -0.112   1.420  -0.961  0.00  0.00    +0.252 C 
ATOM     15  C   UNL     1       1.042   1.060  -0.022  0.00  0.00    +0.195 C 
ATOM     16  C   UNL     1       0.677   1.471   1.407  0.00  0.00    +0.178 C 
ATOM     17  C   UNL     1      -0.634   0.783   1.805  0.00  0.00    +0.177 C 
ATOM     18  C   UNL     1      -1.724   1.154   0.795  0.00  0.00    +0.177 C 
ATOM     19  O   UNL     1      -1.306   0.772  -0.517  0.00  0.00    -0.346 OA
BRANCH  17  20
ATOM     20  O   UNL     1      -0.449  -0.634   1.807  0.00  0.00    -0.386 OA
ATOM     21  H   UNL     1       0.229  -0.941   2.425  0.00  0.00    +0.210 HD
ENDBRANCH  17  20
BRANCH  16  22
ATOM     22  O   UNL     1       1.718   1.072   2.301  0.00  0.00    -0.386 OA
ATOM     23  H   UNL     1       1.553   1.302   3.226  0.00  0.00    +0.210 HD
ENDBRANCH  16  22
BRANCH  15  24
ATOM     24  O   UNL     1       2.224   1.751  -0.430  0.00  0.00    -0.385 OA
ATOM     25  H   UNL     1       2.997   1.570   0.123  0.00  0.00    +0.210 HD
ENDBRANCH  15  24
BRANCH  18  26
ATOM     26  C   UNL     1      -3.020   0.423   1.151  0.00  0.00    +0.190 C 
BRANCH  26  27
ATOM     27  O   UNL     1      -4.066   0.857   0.279  0.00  0.00    -0.392 OA
ATOM     28  H   UNL     1      -4.919   0.434   0.448  0.00  0.00    +0.210 HD
ENDBRANCH  26  27
ENDBRANCH  18  26
ENDBRANCH   6  14
BRANCH   2  29
ATOM     29  C   UNL     1       1.132  -0.358  -6.265  0.00  0.00    +0.137 A 
ATOM     30  C   UNL     1       2.198  -1.135  -6.621  0.00  0.00    +0.050 A 
ATOM     31  C   UNL     1       2.110  -1.330  -8.008  0.00  0.00    +0.042 A 
ATOM     32  C   UNL     1       1.014  -0.665  -8.434  0.00  0.00    +0.196 A 
ATOM     33  O   UNL     1       0.427  -0.080  -7.380  0.00  0.00    -0.463 OA
ENDBRANCH   2  29
BRANCH   1  35
ATOM     34  C   UNL     1       0.121   3.228  -6.291  0.00  0.00    +0.091 C 
ATOM     35  C   UNL     1       1.201   2.497  -5.536  0.00  0.00    +0.163 C 
ATOM     36  O   UNL     1       2.369   2.740  -5.761  0.00  0.00    -0.292 OA
ENDBRANCH   1  35
BRANCH   3  37
ATOM     37  C   UNL     1       0.405  -2.220  -4.180  0.00  0.00    +0.103 C 
ATOM     38  N   UNL     1       0.361  -3.333  -4.402  0.00  0.00    -0.191 NA
ENDBRANCH   3  37
TORSDOF 10
