REMARK  Name = ZINC17397323
REMARK  7 active torsions:
REMARK  status: ('A' for Active; 'I' for Inactive)
REMARK    1  A    between atoms: C_4  and  N_7
REMARK    2  A    between atoms: C_9  and  C_12
REMARK    3  A    between atoms: N_14  and  N_15
REMARK    4  A    between atoms: C_16  and  C_18
REMARK    5  A    between atoms: C_22  and  S_24
REMARK    6  A    between atoms: S_24  and  N_27
REMARK    7  A    between atoms: N_27  and  C_28
REMARK                            x       y       z     vdW  Elec       q    Type
REMARK                         _______ _______ _______ _____ _____    ______ ____
ROOT
ATOM      1  N   UNL     1       3.900   0.134   6.694  0.00  0.00    -0.230 N 
ATOM      2  C   UNL     1       4.104   0.149   5.362  0.00  0.00    +0.260 C 
ATOM      3  O   UNL     1       4.649  -0.793   4.820  0.00  0.00    -0.269 OA
ATOM      4  H   UNL     1       3.465   0.885   7.127  0.00  0.00    +0.173 HD
ENDROOT
BRANCH   2   5
ATOM      5  C   UNL     1       3.665   1.311   4.560  0.00  0.00    +0.040 A 
ATOM      6  C   UNL     1       3.039   2.394   5.180  0.00  0.00    +0.013 A 
ATOM      7  C   UNL     1       2.633   3.475   4.426  0.00  0.00    +0.003 A 
ATOM      8  C   UNL     1       2.848   3.490   3.059  0.00  0.00    +0.029 A 
ATOM      9  C   UNL     1       3.463   2.417   2.438  0.00  0.00    +0.109 A 
ATOM     10  C   UNL     1       3.875   1.329   3.181  0.00  0.00    +0.042 A 
BRANCH   9  11
ATOM     11  S   UNL     1       3.728   2.443   0.696  0.00  0.00    +0.072 S 
ATOM     12  O   UNL     1       4.815   1.566   0.437  0.00  0.00    -0.150 OA
ATOM     13  O   UNL     1       3.742   3.810   0.308  0.00  0.00    -0.150 OA
BRANCH  11  14
ATOM     14  N   UNL     1       2.393   1.764  -0.012  0.00  0.00    -0.215 N 
ATOM     15  H   UNL     1       2.485   0.966  -0.555  0.00  0.00    +0.174 HD
BRANCH  14  16
ATOM     16  C   UNL     1       1.134   2.342   0.173  0.00  0.00    +0.066 A 
ATOM     17  C   UNL     1       1.007   3.723   0.257  0.00  0.00    +0.026 A 
ATOM     18  C   UNL     1      -0.238   4.291   0.439  0.00  0.00    +0.002 A 
ATOM     19  C   UNL     1      -1.359   3.487   0.538  0.00  0.00    +0.002 A 
ATOM     20  C   UNL     1      -1.238   2.112   0.450  0.00  0.00    +0.022 A 
ATOM     21  C   UNL     1       0.006   1.537   0.273  0.00  0.00    +0.063 A 
ATOM     22 CL   UNL     1       0.159  -0.190   0.170  0.00  0.00    -0.082 Cl
ENDBRANCH  14  16
ENDBRANCH  11  14
ENDBRANCH   9  11
ENDBRANCH   2   5
BRANCH   1  25
ATOM     23  C   UNL     1       4.112  -0.982   8.786  0.00  0.00    +0.263 C 
ATOM     24  O   UNL     1       3.567  -0.040   9.329  0.00  0.00    -0.269 OA
ATOM     25  N   UNL     1       4.316  -0.967   7.454  0.00  0.00    -0.230 N 
ATOM     26  H   UNL     1       4.751  -1.719   7.022  0.00  0.00    +0.173 HD
BRANCH  23  29
ATOM     27  N   UNL     1       4.938  -3.488  11.278  0.00  0.00    -0.239 N 
ATOM     28  C   UNL     1       4.413  -2.293  10.951  0.00  0.00    +0.127 A 
ATOM     29  C   UNL     1       4.549  -2.141   9.586  0.00  0.00    +0.076 A 
ATOM     30  C   UNL     1       5.193  -3.301   9.099  0.00  0.00    +0.148 A 
ATOM     31  N   UNL     1       5.419  -4.093  10.111  0.00  0.00    -0.174 NA
BRANCH  27  35
ATOM     32  C   UNL     1       5.120  -5.104  15.115  0.00  0.00    +0.000 A 
ATOM     33  C   UNL     1       5.633  -5.811  14.044  0.00  0.00    +0.002 A 
ATOM     34  C   UNL     1       5.575  -5.278  12.771  0.00  0.00    +0.028 A 
ATOM     35  C   UNL     1       4.999  -4.031  12.568  0.00  0.00    +0.065 A 
ATOM     36  C   UNL     1       4.489  -3.321  13.647  0.00  0.00    +0.028 A 
ATOM     37  C   UNL     1       4.546  -3.862  14.916  0.00  0.00    +0.002 A 
ENDBRANCH  27  35
ENDBRANCH  23  29
ENDBRANCH   1  25
TORSDOF 7
