REMARK  Name = ZINC59045699
REMARK  9 active torsions:
REMARK  status: ('A' for Active; 'I' for Inactive)
REMARK    1  A    between atoms: C_1  and  C_2
REMARK    2  A    between atoms: C_2  and  C_4
REMARK    3  A    between atoms: C_2  and  N_10
REMARK    4  A    between atoms: C_11  and  C_13
REMARK    5  A    between atoms: C_13  and  S_14
REMARK    6  A    between atoms: S_14  and  C_15
REMARK    7  A    between atoms: C_18  and  C_21
REMARK    8  A    between atoms: N_19  and  N_20
REMARK    9  A    between atoms: C_26  and  O_27
REMARK                            x       y       z     vdW  Elec       q    Type
REMARK                         _______ _______ _______ _____ _____    ______ ____
ROOT
ATOM      1  C   UNL     1       5.257  -1.803   3.543  0.00  0.00    +0.209 A 
ATOM      2  N   UNL     1       4.620  -1.995   4.676  0.00  0.00    -0.121 NA
ATOM      3  N   UNL     1       5.448  -2.345   5.595  0.00  0.00    -0.127 NA
ATOM      4  C   UNL     1       6.665  -2.397   5.105  0.00  0.00    +0.185 A 
ATOM      5  N   UNL     1       6.579  -2.057   3.774  0.00  0.00    -0.224 N 
ENDROOT
BRANCH   4   6
ATOM      6  C   UNL     1       7.894  -2.758   5.842  0.00  0.00    +0.062 A 
ATOM      7  C   UNL     1       9.042  -1.974   5.718  0.00  0.00    +0.015 A 
ATOM      8  C   UNL     1      10.186  -2.316   6.408  0.00  0.00    +0.001 A 
ATOM      9  C   UNL     1      10.200  -3.434   7.224  0.00  0.00    +0.004 A 
ATOM     10  C   UNL     1       9.070  -4.218   7.355  0.00  0.00    +0.046 A 
ATOM     11  C   UNL     1       7.911  -3.884   6.673  0.00  0.00    +0.128 A 
BRANCH  11  12
ATOM     12  O   UNL     1       6.797  -4.650   6.806  0.00  0.00    -0.506 OA
ATOM     13  H   UNL     1       6.736  -5.371   6.163  0.00  0.00    +0.292 HD
ENDBRANCH  11  12
ENDBRANCH   4   6
BRANCH   5  14
ATOM     14  N   UNL     1       7.603  -1.985   2.873  0.00  0.00    -0.295 N 
ATOM     15  H   UNL     1       8.064  -1.088   2.920  0.00  0.00    +0.163 HD
ATOM     16  H   UNL     1       8.262  -2.737   3.013  0.00  0.00    +0.163 HD
ENDBRANCH   5  14
BRANCH   1  17
ATOM     17  S   UNL     1       4.538  -1.315   2.010  0.00  0.00    -0.075 S 
BRANCH  17  18
ATOM     18  C   UNL     1       2.772  -1.147   2.387  0.00  0.00    +0.173 C 
BRANCH  18  20
ATOM     19  N   UNL     1       0.697  -0.540   1.185  0.00  0.00    -0.308 N 
ATOM     20  C   UNL     1       2.031  -0.728   1.143  0.00  0.00    +0.224 C 
ATOM     21  O   UNL     1       2.635  -0.560   0.105  0.00  0.00    -0.275 OA
ATOM     22  H   UNL     1       0.214  -0.674   2.016  0.00  0.00    +0.149 HD
BRANCH  19  24
ATOM     23  C   UNL     1       0.039   1.389  -0.166  0.00  0.00    +0.033 C 
ATOM     24  C   UNL     1      -0.024  -0.133  -0.024  0.00  0.00    +0.100 C 
BRANCH  24  25
ATOM     25  C   UNL     1      -1.462  -0.570   0.078  0.00  0.00    -0.027 A 
ATOM     26  C   UNL     1      -2.135  -0.459   1.281  0.00  0.00    +0.005 A 
ATOM     27  C   UNL     1      -3.455  -0.859   1.374  0.00  0.00    +0.000 A 
ATOM     28  C   UNL     1      -4.102  -1.370   0.265  0.00  0.00    +0.000 A 
ATOM     29  C   UNL     1      -3.430  -1.480  -0.938  0.00  0.00    +0.000 A 
ATOM     30  C   UNL     1      -2.111  -1.076  -1.032  0.00  0.00    +0.005 A 
ENDBRANCH  24  25
ENDBRANCH  19  24
ENDBRANCH  18  20
ENDBRANCH  17  18
ENDBRANCH   1  17
TORSDOF 8
