REMARK  Name = ZINC25989404
REMARK  5 active torsions:
REMARK  status: ('A' for Active; 'I' for Inactive)
REMARK    1  A    between atoms: C_1  and  N_2
REMARK    2  A    between atoms: C_5  and  C_8
REMARK    3  A    between atoms: C_9  and  O_27
REMARK    4  A    between atoms: C_11  and  O_26
REMARK    5  A    between atoms: C_15  and  C_19
REMARK                            x       y       z     vdW  Elec       q    Type
REMARK                         _______ _______ _______ _____ _____    ______ ____
ROOT
ATOM      1  C   UNL     1       1.194   2.101   0.002  0.00  0.00    +0.062 A 
ATOM      2  C   UNL     1       2.404   1.398  -0.013  0.00  0.00    +0.131 A 
ATOM      3  C   UNL     1       2.412   0.011  -0.020  0.00  0.00    +0.092 A 
ATOM      4  C   UNL     1       1.221  -0.695  -0.013  0.00  0.00    +0.135 A 
ATOM      5  C   UNL     1       0.002  -0.004   0.002  0.00  0.00    +0.106 A 
ATOM      6  C   UNL     1      -0.017   1.399   0.010  0.00  0.00    +0.154 A 
ATOM      7  O   UNL     1      -1.195   2.055   0.030  0.00  0.00    -0.454 OA
ATOM      8  C   UNL     1      -2.374   1.412   0.032  0.00  0.00    +0.140 A 
ATOM      9  C   UNL     1      -2.466   0.056   0.026  0.00  0.00    +0.098 A 
ATOM     10  C   UNL     1      -1.283  -0.723   0.011  0.00  0.00    +0.197 A 
ATOM     11  O   UNL     1      -1.327  -1.943   0.004  0.00  0.00    -0.287 OA
ENDROOT
BRANCH   1  16
ATOM     12  C   UNL     1       1.463   7.778   0.076  0.00  0.00    -0.096 C 
ATOM     13  N   UNL     1       1.585   6.315   0.014  0.00  0.00    +0.380 N 
ATOM     14  C   UNL     1       0.774   5.764  -1.085  0.00  0.00    -0.074 C 
ATOM     15  C   UNL     1       1.182   4.305  -1.306  0.00  0.00    +0.017 C 
ATOM     16  C   UNL     1       1.194   3.577   0.009  0.00  0.00    -0.041 C 
ATOM     17  C   UNL     1       1.200   4.203   1.167  0.00  0.00    -0.041 C 
ATOM     18  C   UNL     1       1.199   5.700   1.290  0.00  0.00    -0.051 C 
ATOM     19  H   UNL     1       2.642   6.078  -0.179  0.00  0.00    -0.082 HD
ENDBRANCH   1  16
BRANCH   8  20
ATOM     20  C   UNL     1      -3.617   2.208   0.049  0.00  0.00    +0.030 A 
ATOM     21  C   UNL     1      -4.633   1.941  -0.872  0.00  0.00    +0.012 A 
ATOM     22  C   UNL     1      -5.794   2.686  -0.848  0.00  0.00    +0.001 A 
ATOM     23  C   UNL     1      -5.950   3.702   0.079  0.00  0.00    +0.001 A 
ATOM     24  C   UNL     1      -4.946   3.975   0.990  0.00  0.00    +0.015 A 
ATOM     25  C   UNL     1      -3.781   3.235   0.981  0.00  0.00    +0.024 A 
ATOM     26  I   UNL     1      -2.261   3.652   2.361  0.00  0.00    -0.043 I 
ENDBRANCH   8  20
BRANCH   4  27
ATOM     27  O   UNL     1       1.235  -2.051  -0.021  0.00  0.00    -0.506 OA
ATOM     28  H   UNL     1       0.288  -2.611  -0.015  0.00  0.00    +0.292 HD
ENDBRANCH   4  27
BRANCH   2  29
ATOM     29  O   UNL     1       3.578   2.079  -0.021  0.00  0.00    -0.506 OA
ATOM     30  H   UNL     1       4.532   1.530  -0.033  0.00  0.00    +0.292 HD
ENDBRANCH   2  29
TORSDOF 4
