REMARK  Name = ZINC39695147
REMARK  7 active torsions:
REMARK  status: ('A' for Active; 'I' for Inactive)
REMARK    1  A    between atoms: C_1  and  C_2
REMARK    2  A    between atoms: C_3  and  C_9
REMARK    3  A    between atoms: C_9  and  N_10
REMARK    4  A    between atoms: C_11  and  C_13
REMARK    5  A    between atoms: C_24  and  C_26
REMARK    6  A    between atoms: C_33  and  C_37
REMARK    7  A    between atoms: N_35  and  C_36
REMARK                            x       y       z     vdW  Elec       q    Type
REMARK                         _______ _______ _______ _____ _____    ______ ____
ROOT
ATOM      1  C   UNL     1       2.961   1.736  -4.241  0.00  0.00    +0.100 C 
ATOM      2  C   UNL     1       3.946   0.548  -4.324  0.00  0.00    +0.121 C 
ATOM      3  N   UNL     1       4.001   0.207  -5.765  0.00  0.00    -0.296 N 
ATOM      4  C   UNL     1       3.983   1.518  -6.455  0.00  0.00    +0.115 C 
ATOM      5  C   UNL     1       2.990   2.372  -5.641  0.00  0.00    -0.004 C 
ATOM      6  C   UNL     1       1.604   2.316  -6.275  0.00  0.00    -0.010 C 
ATOM      7  C   UNL     1       1.646   3.005  -7.642  0.00  0.00    -0.082 C 
ATOM      8  N   UNL     1       2.075   4.399  -7.477  0.00  0.00    +0.379 N 
ATOM      9  C   UNL     1       3.445   4.442  -6.952  0.00  0.00    -0.082 C 
ATOM     10  C   UNL     1       3.479   3.814  -5.556  0.00  0.00    -0.010 C 
ATOM     11  C   UNL     1       4.055  -1.019  -6.321  0.00  0.00    +0.250 C 
ATOM     12  O   UNL     1       3.964  -2.009  -5.621  0.00  0.00    -0.270 OA
ATOM     13  H   UNL     1       2.043   4.867  -8.370  0.00  0.00    -0.086 HD
ATOM     14  H   UNL     1       1.454   4.866  -6.833  0.00  0.00    -0.086 HD
ENDROOT
BRANCH  11  15
ATOM     15  C   UNL     1       4.223  -1.160  -7.781  0.00  0.00    +0.074 A 
ATOM     16  C   UNL     1       5.014  -0.250  -8.495  0.00  0.00    +0.127 A 
ATOM     17  N   UNL     1       5.176  -0.357  -9.793  0.00  0.00    -0.235 NA
ATOM     18  C   UNL     1       4.604  -1.331 -10.494  0.00  0.00    +0.160 A 
ATOM     19  C   UNL     1       3.793  -2.288  -9.850  0.00  0.00    +0.060 A 
ATOM     20  C   UNL     1       3.602  -2.207  -8.467  0.00  0.00    +0.067 A 
ATOM     21 CL   UNL     1       2.617  -3.366  -7.630  0.00  0.00    -0.082 Cl
ATOM     22  C   UNL     1       3.326  -3.201 -10.888  0.00  0.00    +0.071 A 
ATOM     23  N   UNL     1       3.827  -2.798 -12.021  0.00  0.00    -0.174 NA
ATOM     24  N   UNL     1       4.612  -1.659 -11.821  0.00  0.00    -0.249 N 
ATOM     25  C   UNL     1       5.332  -0.930 -12.869  0.00  0.00    +0.174 C 
ATOM     26  C   UNL     1       2.428  -4.394 -10.687  0.00  0.00    +0.068 C 
ENDBRANCH  11  15
BRANCH   1  28
ATOM     27  N   UNL     1       0.728   2.027  -3.217  0.00  0.00    -0.311 N 
ATOM     28  C   UNL     1       1.574   1.244  -3.917  0.00  0.00    +0.218 C 
ATOM     29  O   UNL     1       1.218   0.145  -4.285  0.00  0.00    -0.275 OA
ATOM     30  H   UNL     1       1.012   2.906  -2.923  0.00  0.00    +0.149 HD
BRANCH  27  31
ATOM     31  C   UNL     1      -0.621   1.549  -2.902  0.00  0.00    +0.139 C 
BRANCH  31  34
ATOM     32  C   UNL     1      -1.814   3.794  -4.275  0.00  0.00    +0.045 C 
ATOM     33  C   UNL     1      -1.929   3.680  -2.776  0.00  0.00    -0.027 A 
ATOM     34  C   UNL     1      -1.357   2.606  -2.120  0.00  0.00    -0.026 A 
ATOM     35  C   UNL     1      -1.462   2.500  -0.746  0.00  0.00    +0.005 A 
ATOM     36  C   UNL     1      -2.139   3.469  -0.027  0.00  0.00    +0.002 A 
ATOM     37  C   UNL     1      -2.710   4.543  -0.682  0.00  0.00    +0.020 A 
ATOM     38  C   UNL     1      -2.601   4.652  -2.058  0.00  0.00    +0.044 A 
ATOM     39 CL   UNL     1      -3.312   6.004  -2.881  0.00  0.00    -0.083 Cl
ENDBRANCH  31  34
ENDBRANCH  27  31
ENDBRANCH   1  28
TORSDOF 4
