REMARK  Name = ZINC64870198
REMARK  7 active torsions:
REMARK  status: ('A' for Active; 'I' for Inactive)
REMARK    1  A    between atoms: C_1  and  O_2
REMARK    2  A    between atoms: O_2  and  C_3
REMARK    3  A    between atoms: C_6  and  C_9
REMARK    4  A    between atoms: C_11  and  C_15
REMARK    5  A    between atoms: N_25  and  C_28
REMARK    6  A    between atoms: C_32  and  O_34
REMARK    7  A    between atoms: O_34  and  C_35
REMARK                            x       y       z     vdW  Elec       q    Type
REMARK                         _______ _______ _______ _____ _____    ______ ____
ROOT
ATOM      1  C   UNL     1       4.292  -4.971  -5.920  0.00  0.00    +0.006 A 
ATOM      2  C   UNL     1       5.221  -4.982  -4.892  0.00  0.00    +0.009 A 
ATOM      3  C   UNL     1       5.968  -6.113  -4.637  0.00  0.00    +0.016 A 
ATOM      4  C   UNL     1       5.782  -7.248  -5.422  0.00  0.00    +0.063 A 
ATOM      5  C   UNL     1       4.839  -7.236  -6.465  0.00  0.00    +0.056 A 
ATOM      6  C   UNL     1       4.094  -6.091  -6.702  0.00  0.00    +0.034 A 
ATOM      7  N   UNL     1       4.675  -8.382  -7.230  0.00  0.00    -0.307 N 
ATOM      8  H   UNL     1       4.028  -8.388  -7.952  0.00  0.00    +0.170 HD
ATOM      9  C   UNL     1       5.404  -9.483  -6.980  0.00  0.00    +0.334 A 
ATOM     10  O   UNL     1       5.231 -10.466  -7.674  0.00  0.00    -0.246 OA
ATOM     11  N   UNL     1       6.316  -9.543  -5.997  0.00  0.00    -0.229 N 
ATOM     12  C   UNL     1       6.553  -8.483  -5.194  0.00  0.00    +0.269 A 
ATOM     13  O   UNL     1       7.381  -8.546  -4.306  0.00  0.00    -0.266 OA
ENDROOT
BRANCH   1  16
ATOM     14  C   UNL     1       3.829  -1.800  -5.072  0.00  0.00    +0.134 C 
ATOM     15  N   UNL     1       3.290  -2.974  -4.938  0.00  0.00    -0.339 N 
ATOM     16  C   UNL     1       3.485  -3.725  -6.183  0.00  0.00    +0.274 C 
ATOM     17  O   UNL     1       4.203  -2.841  -7.056  0.00  0.00    -0.243 OA
ATOM     18  N   UNL     1       4.390  -1.645  -6.316  0.00  0.00    -0.247 N 
ATOM     19  H   UNL     1       4.842  -0.849  -6.635  0.00  0.00    +0.196 HD
ATOM     20  H   UNL     1       2.835  -3.300  -4.146  0.00  0.00    +0.164 HD
BRANCH  14  24
ATOM     21  C   UNL     1       3.838   1.190  -2.052  0.00  0.00    +0.120 A 
ATOM     22  C   UNL     1       3.832   1.558  -3.392  0.00  0.00    +0.046 A 
ATOM     23  C   UNL     1       3.829   0.591  -4.373  0.00  0.00    +0.015 A 
ATOM     24  C   UNL     1       3.832  -0.759  -4.021  0.00  0.00    +0.017 A 
ATOM     25  C   UNL     1       3.838  -1.125  -2.674  0.00  0.00    +0.015 A 
ATOM     26  C   UNL     1       3.846  -0.153  -1.697  0.00  0.00    +0.046 A 
BRANCH  21  28
ATOM     27  C   UNL     1       3.831   3.506  -1.522  0.00  0.00    +0.277 C 
ATOM     28  O   UNL     1       3.841   2.145  -1.087  0.00  0.00    -0.495 OA
ENDBRANCH  21  28
ENDBRANCH  14  24
ENDBRANCH   1  16
BRANCH  11  29
ATOM     29  C   UNL     1       7.036 -10.729  -5.799  0.00  0.00    +0.058 A 
ATOM     30  C   UNL     1       8.241 -10.929  -6.460  0.00  0.00    +0.026 A 
ATOM     31  C   UNL     1       8.951 -12.098  -6.266  0.00  0.00    +0.006 A 
ATOM     32  C   UNL     1       8.464 -13.072  -5.414  0.00  0.00    +0.046 A 
ATOM     33  C   UNL     1       7.261 -12.877  -4.751  0.00  0.00    +0.122 A 
ATOM     34  C   UNL     1       6.549 -11.703  -4.939  0.00  0.00    +0.072 A 
BRANCH  33  35
ATOM     35  O   UNL     1       6.783 -13.835  -3.914  0.00  0.00    -0.495 OA
ATOM     36  C   UNL     1       7.571 -15.018  -3.764  0.00  0.00    +0.277 C 
ENDBRANCH  33  35
ENDBRANCH  11  29
TORSDOF 5
