REMARK  Name = ZINC09323195
REMARK  16 active torsions:
REMARK  status: ('A' for Active; 'I' for Inactive)
REMARK    1  A    between atoms: C_1  and  C_2
REMARK    2  A    between atoms: C_7  and  C_8
REMARK    3  A    between atoms: N_11  and  C_12
REMARK    4  A    between atoms: C_12  and  C_14
REMARK    5  A    between atoms: C_17  and  S_20
REMARK    6  A    between atoms: S_20  and  N_23
REMARK    7  A    between atoms: N_23  and  C_24
REMARK    8  A    between atoms: N_23  and  C_28
REMARK    9  A    between atoms: C_24  and  C_25
REMARK   10  A    between atoms: C_25  and  O_26
REMARK   11  A    between atoms: O_26  and  C_27
REMARK   12  A    between atoms: C_28  and  C_29
REMARK   13  A    between atoms: C_29  and  O_30
REMARK   14  A    between atoms: O_30  and  C_31
REMARK   15  A    between atoms: N_32  and  C_33
REMARK   16  A    between atoms: C_33  and  C_34
REMARK                            x       y       z     vdW  Elec       q    Type
REMARK                         _______ _______ _______ _____ _____    ______ ____
ROOT
ATOM      1  C   UNL     1       2.501  -3.816  -0.043  0.00  0.00    +0.039 A 
ATOM      2  C   UNL     1       3.896  -3.802  -0.061  0.00  0.00    +0.015 A 
ATOM      3  C   UNL     1       4.594  -4.992  -0.069  0.00  0.00    +0.029 A 
ATOM      4  C   UNL     1       3.914  -6.197  -0.069  0.00  0.00    +0.106 A 
ATOM      5  C   UNL     1       2.531  -6.217  -0.057  0.00  0.00    +0.029 A 
ATOM      6  C   UNL     1       1.821  -5.034  -0.043  0.00  0.00    +0.015 A 
ENDROOT
BRANCH   4   7
ATOM      7  S   UNL     1       4.814  -7.712  -0.086  0.00  0.00    +0.061 S 
ATOM      8  O   UNL     1       6.097  -7.429   0.455  0.00  0.00    -0.153 OA
ATOM      9  O   UNL     1       3.955  -8.700   0.467  0.00  0.00    -0.153 OA
BRANCH   7  10
ATOM     10  N   UNL     1       5.049  -8.123  -1.673  0.00  0.00    -0.172 NA
BRANCH  10  11
ATOM     11  C   UNL     1       6.244  -7.658  -2.381  0.00  0.00    +0.137 C 
BRANCH  11  12
ATOM     12  C   UNL     1       7.327  -8.738  -2.320  0.00  0.00    +0.176 C 
BRANCH  12  13
ATOM     13  O   UNL     1       6.888  -9.893  -3.038  0.00  0.00    -0.382 OA
ATOM     14  C   UNL     1       7.830 -10.967  -3.043  0.00  0.00    +0.194 C 
ENDBRANCH  12  13
ENDBRANCH  11  12
ENDBRANCH  10  11
BRANCH  10  15
ATOM     15  C   UNL     1       4.063  -8.953  -2.369  0.00  0.00    +0.137 C 
BRANCH  15  16
ATOM     16  C   UNL     1       3.084  -8.054  -3.127  0.00  0.00    +0.176 C 
BRANCH  16  17
ATOM     17  O   UNL     1       3.782  -7.353  -4.158  0.00  0.00    -0.382 OA
ATOM     18  C   UNL     1       2.955  -6.481  -4.930  0.00  0.00    +0.194 C 
ENDBRANCH  16  17
ENDBRANCH  15  16
ENDBRANCH  10  15
ENDBRANCH   7  10
ENDBRANCH   4   7
BRANCH   1  19
ATOM     19  C   UNL     1       1.745  -2.542  -0.029  0.00  0.00    +0.269 C 
ATOM     20  O   UNL     1       0.526  -2.557  -0.018  0.00  0.00    -0.268 OA
BRANCH  19  31
ATOM     21  C   UNL     1       1.016   5.888   0.026  0.00  0.00    +0.044 C 
ATOM     22  C   UNL     1       0.650   4.426   0.021  0.00  0.00    -0.046 A 
ATOM     23  C   UNL     1       1.648   3.480   0.005  0.00  0.00    +0.030 A 
ATOM     24  C   UNL     1       1.339   2.111   0.001  0.00  0.00    +0.058 A 
ATOM     25  C   UNL     1      -0.022   1.771   0.012  0.00  0.00    +0.039 A 
ATOM     26  C   UNL     1      -1.019   2.717   0.031  0.00  0.00    +0.020 A 
ATOM     27  C   UNL     1      -0.686   4.060   0.032  0.00  0.00    -0.046 A 
ATOM     28  C   UNL     1      -1.764   5.113   0.050  0.00  0.00    +0.044 C 
ATOM     29  S   UNL     1       0.002  -0.004   0.002  0.00  0.00    -0.052 S 
ATOM     30  C   UNL     1       1.721  -0.234  -0.016  0.00  0.00    +0.167 A 
ATOM     31  N   UNL     1       2.399  -1.377  -0.028  0.00  0.00    -0.152 NA
ATOM     32  N   UNL     1       2.208   1.036  -0.013  0.00  0.00    -0.317 N 
BRANCH  32  33
ATOM     33  C   UNL     1       3.655   1.265  -0.026  0.00  0.00    +0.151 C 
BRANCH  33  34
ATOM     34  C   UNL     1       4.349   0.124   0.672  0.00  0.00    -0.013 C 
ATOM     35  C   UNL     1       5.292  -0.544   0.055  0.00  0.00    +0.005 C 
ENDBRANCH  33  34
ENDBRANCH  32  33
ENDBRANCH  19  31
ENDBRANCH   1  19
TORSDOF 12
