REMARK  Name = ZINC41006307
REMARK  11 active torsions:
REMARK  status: ('A' for Active; 'I' for Inactive)
REMARK    1  A    between atoms: C_1  and  C_2
REMARK    2  A    between atoms: C_5  and  N_9
REMARK    3  A    between atoms: C_6  and  C_8
REMARK    4  A    between atoms: C_10  and  C_12
REMARK    5  A    between atoms: C_14  and  C_35
REMARK    6  A    between atoms: C_16  and  C_24
REMARK    7  A    between atoms: C_18  and  C_22
REMARK    8  A    between atoms: C_18  and  O_23
REMARK    9  A    between atoms: N_26  and  C_27
REMARK   10  A    between atoms: C_30  and  C_34
REMARK   11  A    between atoms: C_32  and  C_33
REMARK                            x       y       z     vdW  Elec       q    Type
REMARK                         _______ _______ _______ _____ _____    ______ ____
ROOT
ATOM      1  C   UNL     1      -0.435  -5.773  -1.173  0.00  0.00    +0.149 C 
ATOM      2  C   UNL     1      -0.281  -6.033  -2.675  0.00  0.00    +0.053 C 
ATOM      3  C   UNL     1       1.192  -5.902  -3.065  0.00  0.00    +0.115 C 
ATOM      4  C   UNL     1       2.014  -6.978  -2.354  0.00  0.00    +0.082 C 
ATOM      5  C   UNL     1       1.946  -6.755  -0.840  0.00  0.00    +0.110 C 
ATOM      6  C   UNL     1       0.489  -6.706  -0.422  0.00  0.00    +0.148 C 
ATOM      7  O   UNL     1       0.076  -7.393   0.481  0.00  0.00    -0.296 OA
ATOM      8  C   UNL     1       1.448  -8.359  -2.692  0.00  0.00    +0.042 C 
ENDROOT
BRANCH   2   9
ATOM      9  C   UNL     1      -1.096  -5.026  -3.446  0.00  0.00    -0.042 A 
ATOM     10  C   UNL     1      -2.455  -5.220  -3.612  0.00  0.00    +0.007 A 
ATOM     11  C   UNL     1      -3.203  -4.298  -4.318  0.00  0.00    +0.038 A 
ATOM     12  C   UNL     1      -2.592  -3.179  -4.859  0.00  0.00    +0.123 A 
ATOM     13  C   UNL     1      -1.232  -2.986  -4.691  0.00  0.00    +0.038 A 
ATOM     14  C   UNL     1      -0.486  -3.907  -3.980  0.00  0.00    +0.007 A 
ATOM     15  F   UNL     1      -3.323  -2.277  -5.549  0.00  0.00    -0.205 F 
ENDBRANCH   2   9
BRANCH   1  17
ATOM     16  N   UNL     1      -0.756  -3.660   0.071  0.00  0.00    -0.285 N 
ATOM     17  C   UNL     1      -0.071  -4.344  -0.866  0.00  0.00    +0.228 C 
ATOM     18  O   UNL     1       0.840  -3.809  -1.462  0.00  0.00    -0.275 OA
ATOM     19  H   UNL     1      -1.446  -4.104   0.588  0.00  0.00    +0.155 HD
BRANCH  16  24
ATOM     20  C   UNL     1       0.391   1.820   0.989  0.00  0.00    +0.044 C 
ATOM     21  C   UNL     1       0.086   0.364   0.745  0.00  0.00    -0.050 A 
ATOM     22  C   UNL     1       1.040  -0.453   0.166  0.00  0.00    +0.005 A 
ATOM     23  C   UNL     1       0.763  -1.787  -0.059  0.00  0.00    +0.024 A 
ATOM     24  C   UNL     1      -0.473  -2.308   0.298  0.00  0.00    +0.036 A 
ATOM     25  C   UNL     1      -1.428  -1.486   0.880  0.00  0.00    -0.029 A 
ATOM     26  C   UNL     1      -1.144  -0.153   1.107  0.00  0.00    +0.008 A 
ATOM     27  C   UNL     1      -2.772  -2.047   1.269  0.00  0.00    +0.045 C 
ENDBRANCH  16  24
ENDBRANCH   1  17
BRANCH   3  28
ATOM     28  C   UNL     1       1.333  -6.068  -4.556  0.00  0.00    +0.224 C 
ATOM     29  O   UNL     1       0.352  -6.272  -5.239  0.00  0.00    -0.275 OA
ATOM     30  N   UNL     1       2.550  -5.991  -5.131  0.00  0.00    -0.285 N 
ATOM     31  H   UNL     1       3.342  -5.898  -4.579  0.00  0.00    +0.155 HD
BRANCH  30  32
ATOM     32  C   UNL     1       2.670  -6.045  -6.524  0.00  0.00    +0.036 A 
ATOM     33  C   UNL     1       1.939  -6.977  -7.250  0.00  0.00    +0.024 A 
ATOM     34  C   UNL     1       2.060  -7.028  -8.624  0.00  0.00    +0.005 A 
ATOM     35  C   UNL     1       2.908  -6.153  -9.278  0.00  0.00    -0.050 A 
ATOM     36  C   UNL     1       3.638  -5.225  -8.559  0.00  0.00    +0.008 A 
ATOM     37  C   UNL     1       3.516  -5.164  -7.184  0.00  0.00    -0.029 A 
ATOM     38  C   UNL     1       4.306  -4.147  -6.401  0.00  0.00    +0.045 C 
ATOM     39  C   UNL     1       3.038  -6.212 -10.778  0.00  0.00    +0.044 C 
ENDBRANCH  30  32
ENDBRANCH   3  28
BRANCH   4  40
ATOM     40  O   UNL     1       3.374  -6.902  -2.787  0.00  0.00    -0.388 OA
ATOM     41  H   UNL     1       3.955  -7.558  -2.376  0.00  0.00    +0.210 HD
ENDBRANCH   4  40
TORSDOF 6
