REMARK  Name = ZINC06507347
REMARK  14 active torsions:
REMARK  status: ('A' for Active; 'I' for Inactive)
REMARK    1  A    between atoms: C_1  and  C_2
REMARK    2  A    between atoms: C_2  and  C_3
REMARK    3  A    between atoms: C_3  and  N_4
REMARK    4  A    between atoms: C_5  and  N_31
REMARK    5  A    between atoms: C_6  and  C_13
REMARK    6  A    between atoms: C_13  and  C_15
REMARK    7  A    between atoms: C_15  and  N_16
REMARK    8  A    between atoms: N_16  and  C_17
REMARK    9  A    between atoms: N_16  and  C_18
REMARK   10  A    between atoms: C_18  and  C_19
REMARK   11  A    between atoms: N_21  and  C_22
REMARK   12  A    between atoms: C_23  and  C_30
REMARK   13  A    between atoms: C_25  and  C_29
REMARK   14  A    between atoms: C_27  and  C_28
REMARK                            x       y       z     vdW  Elec       q    Type
REMARK                         _______ _______ _______ _____ _____    ______ ____
ROOT
ATOM      1  C   UNL     1       1.726  -7.071   0.308  0.00  0.00    +0.003 C 
ENDROOT
BRANCH   1   2
ATOM      2  N   UNL     1       2.917  -7.498   1.054  0.00  0.00    +0.388 N 
ATOM      3  C   UNL     1       3.903  -6.409   1.067  0.00  0.00    -0.095 C 
ATOM      4  H   UNL     1       2.657  -7.727   2.002  0.00  0.00    -0.081 HD
BRANCH   2   5
ATOM      5  C   UNL     1       3.502  -8.680   0.408  0.00  0.00    +0.019 C 
BRANCH   5   6
ATOM      6  C   UNL     1       4.650  -9.191   1.240  0.00  0.00    +0.201 C 
ATOM      7  O   UNL     1       4.951  -8.626   2.270  0.00  0.00    -0.278 OA
ATOM      8  N   UNL     1       5.342 -10.277   0.839  0.00  0.00    -0.287 N 
ATOM      9  H   UNL     1       5.154 -10.680  -0.022  0.00  0.00    +0.155 HD
BRANCH   8  10
ATOM     10  C   UNL     1       6.330 -10.820   1.667  0.00  0.00    +0.039 A 
ATOM     11  C   UNL     1       7.388 -10.031   2.099  0.00  0.00    -0.029 A 
ATOM     12  C   UNL     1       8.362 -10.571   2.915  0.00  0.00    +0.008 A 
ATOM     13  C   UNL     1       8.286 -11.896   3.303  0.00  0.00    -0.050 A 
ATOM     14  C   UNL     1       7.234 -12.685   2.874  0.00  0.00    +0.008 A 
ATOM     15  C   UNL     1       6.253 -12.149   2.062  0.00  0.00    -0.029 A 
ATOM     16  C   UNL     1       5.103 -13.008   1.602  0.00  0.00    +0.045 C 
ATOM     17  C   UNL     1       9.351 -12.482   4.194  0.00  0.00    +0.044 C 
ATOM     18  C   UNL     1       7.473  -8.587   1.676  0.00  0.00    +0.045 C 
ENDBRANCH   8  10
ENDBRANCH   5   6
ENDBRANCH   2   5
ENDBRANCH   1   2
BRANCH   1  19
ATOM     19  C   UNL     1       1.056  -5.935   1.038  0.00  0.00    +0.155 C 
ATOM     20  O   UNL     1       1.526  -5.522   2.079  0.00  0.00    -0.294 OA
BRANCH  19  23
ATOM     21  N   UNL     1      -1.828  -3.689   0.564  0.00  0.00    -0.281 N 
ATOM     22  C   UNL     1      -0.693  -4.218   1.109  0.00  0.00    +0.116 A 
ATOM     23  C   UNL     1      -0.117  -5.353   0.513  0.00  0.00    +0.118 A 
ATOM     24  C   UNL     1      -0.774  -5.912  -0.675  0.00  0.00    +0.266 A 
ATOM     25  O   UNL     1      -0.319  -6.894  -1.233  0.00  0.00    -0.267 OA
ATOM     26  N   UNL     1      -1.893  -5.315  -1.136  0.00  0.00    -0.274 N 
ATOM     27  H   UNL     1      -2.338  -5.673  -1.920  0.00  0.00    +0.173 HD
ATOM     28  C   UNL     1      -2.400  -4.235  -0.521  0.00  0.00    +0.331 A 
ATOM     29  O   UNL     1      -3.413  -3.730  -0.966  0.00  0.00    -0.246 OA
BRANCH  22  30
ATOM     30  N   UNL     1      -0.129  -3.654   2.212  0.00  0.00    -0.344 N 
ATOM     31  H   UNL     1      -0.482  -2.823   2.566  0.00  0.00    +0.144 HD
ATOM     32  H   UNL     1       0.626  -4.084   2.643  0.00  0.00    +0.144 HD
ENDBRANCH  22  30
BRANCH  21  33
ATOM     33  C   UNL     1      -2.437  -2.507   1.178  0.00  0.00    +0.128 C 
BRANCH  33  35
ATOM     34  C   UNL     1      -4.081  -1.712   2.883  0.00  0.00    +0.005 C 
ATOM     35  C   UNL     1      -3.446  -2.947   2.241  0.00  0.00    +0.018 C 
ENDBRANCH  33  35
ENDBRANCH  21  33
ENDBRANCH  19  23
ENDBRANCH   1  19
TORSDOF 9
