REMARK  Name = ZINC14095389
REMARK  9 active torsions:
REMARK  status: ('A' for Active; 'I' for Inactive)
REMARK    1  A    between atoms: C_1  and  C_2
REMARK    2  A    between atoms: C_3  and  C_26
REMARK    3  A    between atoms: C_5  and  S_8
REMARK    4  A    between atoms: S_8  and  C_9
REMARK    5  A    between atoms: C_9  and  C_11
REMARK    6  A    between atoms: C_9  and  C_12
REMARK    7  A    between atoms: N_14  and  C_15
REMARK    8  A    between atoms: C_16  and  C_23
REMARK    9  A    between atoms: C_26  and  C_27
REMARK                            x       y       z     vdW  Elec       q    Type
REMARK                         _______ _______ _______ _____ _____    ______ ____
ROOT
ATOM      1  C   UNL     1       5.329   1.740  -3.911  0.00  0.00    +0.137 C 
ATOM      2  C   UNL     1       6.262   2.088  -2.749  0.00  0.00    +0.029 C 
ENDROOT
BRANCH   1   3
ATOM      3  C   UNL     1       6.076   0.913  -4.925  0.00  0.00    +0.231 C 
ATOM      4  O   UNL     1       6.593   1.449  -5.882  0.00  0.00    -0.274 OA
ATOM      5  N   UNL     1       6.168  -0.422  -4.769  0.00  0.00    -0.278 N 
ATOM      6  H   UNL     1       5.754  -0.851  -4.004  0.00  0.00    +0.155 HD
BRANCH   5   7
ATOM      7  C   UNL     1       6.855  -1.184  -5.702  0.00  0.00    +0.084 A 
ATOM      8  C   UNL     1       7.062  -2.552  -5.712  0.00  0.00    +0.068 A 
ATOM      9  C   UNL     1       7.826  -3.114  -6.825  0.00  0.00    -0.023 A 
ATOM     10  C   UNL     1       8.260  -2.218  -7.730  0.00  0.00    -0.004 A 
ATOM     11  S   UNL     1       7.669  -0.652  -7.134  0.00  0.00    -0.077 S 
ATOM     12  C   UNL     1       9.039  -2.869  -8.841  0.00  0.00    +0.043 C 
ATOM     13  C   UNL     1       8.673  -4.367  -8.746  0.00  0.00    +0.010 C 
ATOM     14  C   UNL     1       8.294  -4.504  -7.258  0.00  0.00    +0.037 C 
BRANCH   8  15
ATOM     15  C   UNL     1       6.530  -3.408  -4.647  0.00  0.00    +0.244 C 
ATOM     16  O   UNL     1       5.420  -3.895  -4.754  0.00  0.00    -0.270 OA
ATOM     17  N   UNL     1       7.272  -3.657  -3.549  0.00  0.00    -0.325 N 
ATOM     18  H   UNL     1       8.157  -3.269  -3.464  0.00  0.00    +0.145 HD
ATOM     19  H   UNL     1       6.920  -4.223  -2.845  0.00  0.00    +0.145 HD
ENDBRANCH   8  15
ENDBRANCH   5   7
ENDBRANCH   1   3
BRANCH   1  20
ATOM     20  S   UNL     1       4.741   3.265  -4.690  0.00  0.00    -0.075 S 
BRANCH  20  25
ATOM     21  C   UNL     1       1.667   6.428  -1.713  0.00  0.00    +0.065 C 
ATOM     22  C   UNL     1       2.529   5.275  -2.158  0.00  0.00    +0.037 A 
ATOM     23  C   UNL     1       2.869   4.201  -1.425  0.00  0.00    +0.067 A 
ATOM     24  N   UNL     1       3.649   3.406  -2.176  0.00  0.00    -0.226 NA
ATOM     25  C   UNL     1       3.803   3.945  -3.363  0.00  0.00    +0.167 A 
ATOM     26  N   UNL     1       3.119   5.121  -3.392  0.00  0.00    -0.337 N 
ATOM     27  H   UNL     1       3.056   5.754  -4.164  0.00  0.00    +0.168 HD
BRANCH  23  28
ATOM     28  C   UNL     1       2.451   3.937  -0.001  0.00  0.00    +0.092 C 
BRANCH  28  29
ATOM     29  C   UNL     1       1.156   3.165   0.008  0.00  0.00    -0.042 A 
ATOM     30  C   UNL     1       1.175   1.783   0.000  0.00  0.00    +0.004 A 
ATOM     31  C   UNL     1      -0.013   1.076   0.008  0.00  0.00    +0.000 A 
ATOM     32  C   UNL     1      -1.219   1.751   0.017  0.00  0.00    +0.000 A 
ATOM     33  C   UNL     1      -1.238   3.133   0.030  0.00  0.00    +0.000 A 
ATOM     34  C   UNL     1      -0.050   3.840   0.022  0.00  0.00    +0.004 A 
ENDBRANCH  28  29
ENDBRANCH  23  28
ENDBRANCH  20  25
ENDBRANCH   1  20
TORSDOF 7
