REMARK  Name = ZINC16436820
REMARK  18 active torsions:
REMARK  status: ('A' for Active; 'I' for Inactive)
REMARK    1  A    between atoms: C_1  and  C_2
REMARK    2  A    between atoms: C_5  and  N_9
REMARK    3  A    between atoms: C_6  and  C_8
REMARK    4  A    between atoms: N_12  and  C_13
REMARK    5  A    between atoms: N_12  and  C_18
REMARK    6  A    between atoms: C_13  and  C_14
REMARK    7  A    between atoms: C_14  and  C_15
REMARK    8  A    between atoms: C_15  and  O_16
REMARK    9  A    between atoms: O_16  and  C_17
REMARK   10  A    between atoms: C_18  and  C_19
REMARK   11  A    between atoms: N_21  and  C_22
REMARK   12  A    between atoms: C_24  and  C_35
REMARK   13  A    between atoms: N_26  and  C_27
REMARK   14  A    between atoms: C_30  and  C_34
REMARK   15  A    between atoms: C_32  and  C_33
REMARK   16  A    between atoms: C_35  and  C_36
REMARK   17  A    between atoms: C_35  and  C_37
REMARK   18  A    between atoms: C_35  and  C_38
REMARK                            x       y       z     vdW  Elec       q    Type
REMARK                         _______ _______ _______ _____ _____    ______ ____
ROOT
ATOM      1  C   UNL     1      -1.279  -0.289   0.082  0.00  0.00    +0.236 C 
ATOM      2  O   UNL     1      -2.277   0.391   0.192  0.00  0.00    -0.274 OA
ATOM      3  N   UNL     1      -0.074   0.299  -0.055  0.00  0.00    -0.269 N 
ATOM      4  H   UNL     1       0.724  -0.245  -0.142  0.00  0.00    +0.156 HD
ENDROOT
BRANCH   3   5
ATOM      5  C   UNL     1       0.025   1.690  -0.070  0.00  0.00    +0.129 A 
ATOM      6  C   UNL     1      -1.013   2.571  -0.066  0.00  0.00    +0.069 A 
ATOM      7  C   UNL     1      -0.479   3.863  -0.083  0.00  0.00    +0.071 A 
ATOM      8  N   UNL     1       0.827   3.772  -0.105  0.00  0.00    -0.169 NA
ATOM      9  N   UNL     1       1.176   2.416  -0.098  0.00  0.00    -0.218 N 
BRANCH   9  10
ATOM     10  C   UNL     1       2.478   1.898  -0.117  0.00  0.00    +0.070 A 
ATOM     11  C   UNL     1       2.856   0.931   0.805  0.00  0.00    +0.028 A 
ATOM     12  C   UNL     1       4.138   0.419   0.781  0.00  0.00    +0.005 A 
ATOM     13  C   UNL     1       5.049   0.875  -0.155  0.00  0.00    -0.050 A 
ATOM     14  C   UNL     1       4.677   1.842  -1.071  0.00  0.00    +0.008 A 
ATOM     15  C   UNL     1       3.395   2.354  -1.055  0.00  0.00    -0.025 A 
ATOM     16  C   UNL     1       2.990   3.408  -2.054  0.00  0.00    +0.046 C 
ATOM     17  C   UNL     1       6.449   0.319  -0.175  0.00  0.00    +0.044 C 
ENDBRANCH   9  10
BRANCH   7  18
ATOM     18  C   UNL     1      -1.272   5.144  -0.081  0.00  0.00    +0.006 C 
ATOM     19  C   UNL     1      -1.833   5.395   1.320  0.00  0.00    +0.017 C 
ATOM     20  C   UNL     1      -0.363   6.308  -0.482  0.00  0.00    +0.017 C 
ATOM     21  C   UNL     1      -2.426   5.031  -1.079  0.00  0.00    +0.017 C 
ENDBRANCH   7  18
ENDBRANCH   3   5
BRANCH   1  22
ATOM     22  C   UNL     1      -1.386  -1.792   0.099  0.00  0.00    +0.205 C 
BRANCH  22  26
ATOM     23  N   UNL     1      -4.856  -2.720  -0.683  0.00  0.00    -0.269 N 
ATOM     24  C   UNL     1      -3.565  -2.363  -0.829  0.00  0.00    +0.307 C 
ATOM     25  O   UNL     1      -3.100  -2.205  -1.941  0.00  0.00    -0.252 OA
ATOM     26  N   UNL     1      -2.789  -2.180   0.258  0.00  0.00    -0.276 N 
ATOM     27  H   UNL     1      -5.243  -2.790   0.204  0.00  0.00    +0.156 HD
BRANCH  23  32
ATOM     28  C   UNL     1      -8.031  -3.813  -5.256  0.00  0.00    +0.044 C 
ATOM     29  C   UNL     1      -7.188  -3.523  -4.041  0.00  0.00    -0.050 A 
ATOM     30  C   UNL     1      -6.096  -2.680  -4.145  0.00  0.00    +0.005 A 
ATOM     31  C   UNL     1      -5.321  -2.412  -3.034  0.00  0.00    +0.024 A 
ATOM     32  C   UNL     1      -5.640  -2.989  -1.811  0.00  0.00    +0.038 A 
ATOM     33  C   UNL     1      -6.734  -3.838  -1.712  0.00  0.00    -0.029 A 
ATOM     34  C   UNL     1      -7.508  -4.098  -2.826  0.00  0.00    +0.008 A 
ATOM     35  C   UNL     1      -7.080  -4.471  -0.388  0.00  0.00    +0.045 C 
ENDBRANCH  23  32
BRANCH  26  36
ATOM     36  C   UNL     1      -3.350  -2.370   1.598  0.00  0.00    +0.112 C 
BRANCH  36  37
ATOM     37  C   UNL     1      -3.925  -1.046   2.103  0.00  0.00    +0.047 C 
BRANCH  37  38
ATOM     38  C   UNL     1      -4.510  -1.244   3.502  0.00  0.00    +0.161 C 
BRANCH  38  39
ATOM     39  O   UNL     1      -5.048  -0.007   3.974  0.00  0.00    -0.383 OA
ATOM     40  C   UNL     1      -5.622  -0.083   5.280  0.00  0.00    +0.193 C 
ENDBRANCH  38  39
ENDBRANCH  37  38
ENDBRANCH  36  37
ENDBRANCH  26  36
ENDBRANCH  22  26
ENDBRANCH   1  22
TORSDOF 10
