REMARK  Name = ZINC46015078
REMARK  8 active torsions:
REMARK  status: ('A' for Active; 'I' for Inactive)
REMARK    1  A    between atoms: C_1  and  C_2
REMARK    2  A    between atoms: C_4  and  N_27
REMARK    3  A    between atoms: C_7  and  N_8
REMARK    4  A    between atoms: N_11  and  C_12
REMARK    5  A    between atoms: C_12  and  C_13
REMARK    6  A    between atoms: C_23  and  C_26
REMARK    7  A    between atoms: N_27  and  C_28
REMARK    8  A    between atoms: N_27  and  C_29
REMARK                            x       y       z     vdW  Elec       q    Type
REMARK                         _______ _______ _______ _____ _____    ______ ____
ROOT
ATOM      1  N   UNL     1      -0.027   0.080   2.378  0.00  0.00    -0.269 N 
ATOM      2  C   UNL     1       0.091  -0.520   3.579  0.00  0.00    +0.304 C 
ATOM      3  O   UNL     1       0.293  -1.718   3.644  0.00  0.00    -0.252 OA
ATOM      4  N   UNL     1      -0.013   0.207   4.709  0.00  0.00    -0.295 N 
ATOM      5  H   UNL     1      -0.132   1.043   2.326  0.00  0.00    +0.156 HD
ATOM      6  H   UNL     1      -0.173   1.163   4.658  0.00  0.00    +0.151 HD
ENDROOT
BRANCH   1  13
ATOM      7  C   UNL     1      -1.342   1.102   0.073  0.00  0.00    +0.046 C 
ATOM      8  C   UNL     1      -0.628  -0.225   0.058  0.00  0.00    -0.027 A 
ATOM      9  C   UNL     1      -0.596  -0.978  -1.099  0.00  0.00    +0.028 A 
ATOM     10  C   UNL     1       0.062  -2.201  -1.113  0.00  0.00    +0.030 A 
ATOM     11  C   UNL     1       0.688  -2.666   0.037  0.00  0.00    +0.025 A 
ATOM     12  C   UNL     1       0.655  -1.913   1.193  0.00  0.00    +0.025 A 
ATOM     13  C   UNL     1       0.001  -0.688   1.206  0.00  0.00    +0.038 A 
BRANCH  10  14
ATOM     14  N   UNL     1       0.095  -2.964  -2.285  0.00  0.00    -0.336 N 
ATOM     15  C   UNL     1      -0.664  -2.533  -3.462  0.00  0.00    +0.129 C 
ATOM     16  C   UNL     1       0.888  -4.195  -2.335  0.00  0.00    +0.129 C 
ENDBRANCH  10  14
ENDBRANCH   1  13
BRANCH   4  17
ATOM     17  C   UNL     1       0.116  -0.445   6.015  0.00  0.00    +0.142 C 
BRANCH  17  18
ATOM     18  C   UNL     1      -0.039   0.582   7.107  0.00  0.00    -0.014 A 
ATOM     19  C   UNL     1       1.070   1.262   7.593  0.00  0.00    +0.010 A 
ATOM     20  C   UNL     1       0.884   2.196   8.596  0.00  0.00    +0.042 A 
ATOM     21  C   UNL     1      -0.400   2.422   9.080  0.00  0.00    +0.099 A 
ATOM     22  N   UNL     1      -1.432   1.754   8.590  0.00  0.00    -0.349 N 
ATOM     23  C   UNL     1      -1.286   0.861   7.630  0.00  0.00    +0.089 A 
ATOM     24  N   UNL     1      -0.601   3.358  10.088  0.00  0.00    -0.312 N 
ATOM     25  C   UNL     1      -1.958   3.701  10.543  0.00  0.00    +0.134 C 
ATOM     26  C   UNL     1      -1.996   3.594  12.072  0.00  0.00    +0.179 C 
ATOM     27  O   UNL     1      -0.927   4.364  12.626  0.00  0.00    -0.374 OA
ATOM     28  C   UNL     1       0.376   3.911  12.251  0.00  0.00    +0.132 C 
ATOM     29  C   UNL     1       0.537   4.031  10.735  0.00  0.00    +0.137 C 
ATOM     30  C   UNL     1       1.435   4.766  12.949  0.00  0.00    +0.039 C 
ATOM     31  H   UNL     1      -2.319   1.927   8.943  0.00  0.00    +0.167 HD
ENDBRANCH  17  18
ENDBRANCH   4  17
TORSDOF 4
