REMARK  Name = ZINC32957701
REMARK  15 active torsions:
REMARK  status: ('A' for Active; 'I' for Inactive)
REMARK    1  A    between atoms: C_1  and  C_2
REMARK    2  A    between atoms: C_2  and  C_3
REMARK    3  A    between atoms: C_3  and  C_4
REMARK    4  A    between atoms: C_4  and  N_5
REMARK    5  A    between atoms: C_6  and  N_38
REMARK    6  A    between atoms: C_7  and  N_14
REMARK    7  A    between atoms: N_14  and  C_15
REMARK    8  A    between atoms: C_15  and  C_16
REMARK    9  A    between atoms: C_16  and  O_17
REMARK   10  A    between atoms: O_17  and  C_18
REMARK   11  A    between atoms: C_19  and  C_21
REMARK   12  A    between atoms: C_21  and  N_22
REMARK   13  A    between atoms: C_27  and  C_34
REMARK   14  A    between atoms: C_30  and  C_32
REMARK   15  A    between atoms: C_30  and  C_33
REMARK                            x       y       z     vdW  Elec       q    Type
REMARK                         _______ _______ _______ _____ _____    ______ ____
ROOT
ATOM      1  N   UNL     1       1.212  -2.007  -0.039  0.00  0.00    -0.261 N 
ATOM      2  C   UNL     1       2.396  -2.627  -0.228  0.00  0.00    +0.238 C 
ATOM      3  O   UNL     1       3.417  -1.976  -0.299  0.00  0.00    -0.274 OA
ENDROOT
BRANCH   1   6
ATOM      4  N   UNL     1       0.727   1.451   1.103  0.00  0.00    -0.280 N 
ATOM      5  C   UNL     1       0.781   0.077   1.121  0.00  0.00    +0.127 A 
ATOM      6  C   UNL     1       1.148  -0.598  -0.025  0.00  0.00    +0.140 A 
ATOM      7  C   UNL     1       1.457   0.144  -1.181  0.00  0.00    +0.277 A 
ATOM      8  O   UNL     1       1.784  -0.426  -2.208  0.00  0.00    -0.266 OA
ATOM      9  N   UNL     1       1.389   1.490  -1.145  0.00  0.00    -0.273 N 
ATOM     10  H   UNL     1       1.628   2.077  -2.043  0.00  0.00    +0.173 HD
ATOM     11  C   UNL     1       1.029   2.130  -0.018  0.00  0.00    +0.331 A 
ATOM     12  O   UNL     1       0.975   3.345  -0.013  0.00  0.00    -0.246 OA
BRANCH   5  13
ATOM     13  N   UNL     1       0.472  -0.616   2.267  0.00  0.00    -0.343 N 
ATOM     14  H   UNL     1       0.517  -1.716   2.274  0.00  0.00    +0.144 HD
ATOM     15  H   UNL     1       0.180  -0.072   3.177  0.00  0.00    +0.144 HD
ENDBRANCH   5  13
BRANCH   4  16
ATOM     16  C   UNL     1       0.339   2.180   2.313  0.00  0.00    +0.128 C 
BRANCH  16  17
ATOM     17  C   UNL     1       1.585   2.493   3.143  0.00  0.00    +0.021 C 
BRANCH  17  19
ATOM     18  C   UNL     1       2.426   3.568   5.236  0.00  0.00    +0.004 C 
ATOM     19  C   UNL     1       1.180   3.255   4.406  0.00  0.00    -0.002 C 
ENDBRANCH  17  19
ENDBRANCH  16  17
ENDBRANCH   4  16
ENDBRANCH   1   6
BRANCH   1  20
ATOM     20  C   UNL     1      -0.006  -2.798   0.151  0.00  0.00    +0.142 C 
BRANCH  20  21
ATOM     21  C   UNL     1      -0.733  -2.946  -1.187  0.00  0.00    +0.178 C 
BRANCH  21  22
ATOM     22  O   UNL     1       0.075  -3.707  -2.086  0.00  0.00    -0.381 OA
ATOM     23  C   UNL     1      -0.515  -3.905  -3.373  0.00  0.00    +0.194 C 
ENDBRANCH  21  22
ENDBRANCH  20  21
ENDBRANCH   1  20
BRANCH   2  24
ATOM     24  C   UNL     1       2.449  -4.128  -0.352  0.00  0.00    +0.214 C 
BRANCH  24  25
ATOM     25  N   UNL     1       3.837  -4.552  -0.550  0.00  0.00    -0.215 N 
ATOM     26  C   UNL     1       4.686  -4.859   0.454  0.00  0.00    +0.247 C 
ATOM     27  O   UNL     1       4.448  -4.766   1.640  0.00  0.00    -0.273 OA
ATOM     28  C   UNL     1       5.969  -5.300  -0.208  0.00  0.00    +0.113 C 
ATOM     29  C   UNL     1       7.127  -4.406   0.213  0.00  0.00    +0.038 C 
ATOM     30  C   UNL     1       7.527  -4.721   1.655  0.00  0.00    -0.011 C 
ATOM     31  C   UNL     1       8.016  -6.167   1.718  0.00  0.00    +0.009 C 
ATOM     32  C   UNL     1       6.906  -7.136   1.328  0.00  0.00    -0.032 C 
ATOM     33  C   UNL     1       6.244  -6.774   0.011  0.00  0.00    +0.041 C 
ATOM     34  C   UNL     1       7.539  -8.536   1.175  0.00  0.00    +0.011 C 
ATOM     35  C   UNL     1       5.869  -7.224   2.451  0.00  0.00    +0.011 C 
ATOM     36  C   UNL     1       8.661  -3.783   2.082  0.00  0.00    +0.007 C 
ATOM     37  N   UNL     1       5.701  -5.082  -1.647  0.00  0.00    -0.285 N 
ATOM     38  C   UNL     1       4.425  -4.675  -1.745  0.00  0.00    +0.310 C 
ATOM     39  O   UNL     1       3.865  -4.446  -2.800  0.00  0.00    -0.252 OA
ATOM     40  H   UNL     1       6.496  -5.259  -2.388  0.00  0.00    +0.151 HD
ENDBRANCH  24  25
ENDBRANCH   2  24
TORSDOF 10
