REMARK  Name = ZINC59115583
REMARK  10 active torsions:
REMARK  status: ('A' for Active; 'I' for Inactive)
REMARK    1  A    between atoms: C_3  and  O_19
REMARK    2  A    between atoms: C_6  and  N_7
REMARK    3  A    between atoms: N_7  and  C_8
REMARK    4  A    between atoms: C_8  and  N_10
REMARK    5  A    between atoms: N_10  and  C_11
REMARK    6  A    between atoms: O_19  and  C_20
REMARK    7  A    between atoms: C_23  and  N_26
REMARK    8  A    between atoms: N_26  and  C_27
REMARK    9  A    between atoms: C_27  and  N_29
REMARK   10  A    between atoms: N_29  and  C_30
REMARK                            x       y       z     vdW  Elec       q    Type
REMARK                         _______ _______ _______ _____ _____    ______ ____
ROOT
ATOM      1  O   UNL     1       3.657   2.264   0.243  0.00  0.00    -0.456 OA
ENDROOT
BRANCH   1   4
ATOM      2  C   UNL     1       1.256  -0.385  -0.436  0.00  0.00    +0.027 A 
ATOM      3  C   UNL     1       2.458   0.269  -0.251  0.00  0.00    +0.048 A 
ATOM      4  C   UNL     1       2.473   1.621   0.060  0.00  0.00    +0.129 A 
ATOM      5  C   UNL     1       1.279   2.317   0.186  0.00  0.00    +0.048 A 
ATOM      6  C   UNL     1       0.076   1.665   0.001  0.00  0.00    +0.027 A 
ATOM      7  C   UNL     1       0.061   0.312  -0.311  0.00  0.00    +0.033 A 
BRANCH   7   8
ATOM      8  N   UNL     1      -1.159  -0.350  -0.500  0.00  0.00    -0.297 N 
ATOM      9  H   UNL     1      -1.256  -0.991  -1.222  0.00  0.00    +0.154 HD
BRANCH   8  10
ATOM     10  C   UNL     1      -2.196  -0.098   0.322  0.00  0.00    +0.135 C 
ATOM     11  S   UNL     1      -2.061   1.113   1.525  0.00  0.00    -0.019 S 
BRANCH  10  12
ATOM     12  N   UNL     1      -3.341  -0.798   0.197  0.00  0.00    -0.323 N 
ATOM     13  H   UNL     1      -3.418  -1.484  -0.485  0.00  0.00    +0.148 HD
BRANCH  12  14
ATOM     14  C   UNL     1      -4.469  -0.524   1.090  0.00  0.00    +0.072 C 
ATOM     15  C   UNL     1      -4.298  -1.317   2.387  0.00  0.00    +0.022 C 
ATOM     16  C   UNL     1      -5.229  -0.748   3.460  0.00  0.00    +0.002 C 
ATOM     17  C   UNL     1      -5.165   0.780   3.433  0.00  0.00    +0.000 C 
ATOM     18  C   UNL     1      -6.511   1.339   2.967  0.00  0.00    +0.000 C 
ATOM     19  C   UNL     1      -6.640   1.158   1.453  0.00  0.00    +0.000 C 
ATOM     20  C   UNL     1      -6.958  -0.306   1.140  0.00  0.00    +0.002 C 
ATOM     21  C   UNL     1      -5.774  -0.939   0.407  0.00  0.00    +0.022 C 
ENDBRANCH  12  14
ENDBRANCH  10  12
ENDBRANCH   8  10
ENDBRANCH   7   8
ENDBRANCH   1   4
BRANCH   1  22
ATOM     22  C   UNL     1       4.801   1.543   0.108  0.00  0.00    +0.129 A 
ATOM     23  C   UNL     1       5.286   1.242  -1.157  0.00  0.00    +0.048 A 
ATOM     24  C   UNL     1       6.449   0.510  -1.295  0.00  0.00    +0.027 A 
ATOM     25  C   UNL     1       7.134   0.076  -0.167  0.00  0.00    +0.033 A 
ATOM     26  C   UNL     1       6.648   0.379   1.098  0.00  0.00    +0.027 A 
ATOM     27  C   UNL     1       5.488   1.115   1.235  0.00  0.00    +0.048 A 
BRANCH  25  28
ATOM     28  N   UNL     1       8.313  -0.667  -0.306  0.00  0.00    -0.297 N 
ATOM     29  H   UNL     1       8.471  -1.437   0.262  0.00  0.00    +0.154 HD
BRANCH  28  30
ATOM     30  C   UNL     1       9.228  -0.311  -1.230  0.00  0.00    +0.135 C 
ATOM     31  S   UNL     1       9.019   1.128  -2.132  0.00  0.00    -0.019 S 
BRANCH  30  32
ATOM     32  N   UNL     1      10.308  -1.089  -1.442  0.00  0.00    -0.323 N 
ATOM     33  H   UNL     1      10.427  -1.905  -0.930  0.00  0.00    +0.148 HD
BRANCH  32  34
ATOM     34  C   UNL     1      11.303  -0.703  -2.445  0.00  0.00    +0.072 C 
ATOM     35  C   UNL     1      10.858  -1.199  -3.823  0.00  0.00    +0.022 C 
ATOM     36  C   UNL     1      11.658  -0.476  -4.908  0.00  0.00    +0.002 C 
ATOM     37  C   UNL     1      11.741   1.014  -4.574  0.00  0.00    +0.000 C 
ATOM     38  C   UNL     1      13.190   1.384  -4.247  0.00  0.00    +0.000 C 
ATOM     39  C   UNL     1      13.537   0.886  -2.843  0.00  0.00    +0.000 C 
ATOM     40  C   UNL     1      13.762  -0.627  -2.880  0.00  0.00    +0.002 C 
ATOM     41  C   UNL     1      12.654  -1.328  -2.091  0.00  0.00    +0.022 C 
ENDBRANCH  32  34
ENDBRANCH  30  32
ENDBRANCH  28  30
ENDBRANCH  25  28
ENDBRANCH   1  22
TORSDOF 10
