REMARK  Name = ZINC12497100
REMARK  10 active torsions:
REMARK  status: ('A' for Active; 'I' for Inactive)
REMARK    1  A    between atoms: C_1  and  C_2
REMARK    2  A    between atoms: C_2  and  O_3
REMARK    3  A    between atoms: O_3  and  C_4
REMARK    4  A    between atoms: C_4  and  C_6
REMARK    5  A    between atoms: C_6  and  C_33
REMARK    6  A    between atoms: C_11  and  C_13
REMARK    7  A    between atoms: C_16  and  O_21
REMARK    8  A    between atoms: C_17  and  O_19
REMARK    9  A    between atoms: O_19  and  C_20
REMARK   10  A    between atoms: N_24  and  C_27
REMARK                            x       y       z     vdW  Elec       q    Type
REMARK                         _______ _______ _______ _____ _____    ______ ____
ROOT
ATOM      1  C   UNL     1       2.133   2.946  -0.507  0.00  0.00    +0.070 C 
ATOM      2  C   UNL     1       1.390   1.762  -0.002  0.00  0.00    +0.090 C 
ATOM      3  C   UNL     1       1.972   0.621  -0.928  0.00  0.00    +0.078 C 
ATOM      4  C   UNL     1       3.442   0.924  -0.755  0.00  0.00    -0.026 C 
ATOM      5  C   UNL     1       1.231  -0.511  -0.330  0.00  0.00    +0.229 C 
ATOM      6  O   UNL     1       1.626  -1.646  -0.170  0.00  0.00    -0.275 OA
ATOM      7  N   UNL     1       0.002  -0.004   0.002  0.00  0.00    -0.210 N 
ATOM      8  C   UNL     1      -0.017   1.368   0.010  0.00  0.00    +0.229 C 
ATOM      9  O   UNL     1      -0.987   2.094   0.018  0.00  0.00    -0.275 OA
ATOM     10  N   UNL     1       3.471   2.412  -0.894  0.00  0.00    +0.398 N 
ATOM     11  H   UNL     1       4.192   2.804  -0.278  0.00  0.00    -0.083 HD
ATOM     12  H   UNL     1       3.677   2.665  -1.867  0.00  0.00    -0.083 HD
ENDROOT
BRANCH   4  13
ATOM     13  C   UNL     1       4.256   0.261  -1.835  0.00  0.00    -0.057 A 
ATOM     14  C   UNL     1       4.337   0.836  -3.089  0.00  0.00    +0.006 A 
ATOM     15  C   UNL     1       5.084   0.231  -4.083  0.00  0.00    +0.049 A 
ATOM     16  C   UNL     1       5.753  -0.954  -3.823  0.00  0.00    +0.158 A 
ATOM     17  C   UNL     1       5.671  -1.533  -2.561  0.00  0.00    +0.161 A 
ATOM     18  C   UNL     1       4.925  -0.919  -1.567  0.00  0.00    +0.051 A 
BRANCH  17  19
ATOM     19  O   UNL     1       6.325  -2.697  -2.301  0.00  0.00    -0.491 OA
ATOM     20  C   UNL     1       6.196  -3.233  -0.983  0.00  0.00    +0.277 C 
ENDBRANCH  17  19
BRANCH  16  21
ATOM     21  O   UNL     1       6.488  -1.551  -4.800  0.00  0.00    -0.503 OA
ATOM     22  H   UNL     1       7.411  -1.266  -4.827  0.00  0.00    +0.292 HD
ENDBRANCH  16  21
ENDBRANCH   4  13
BRANCH   7  23
ATOM     23  C   UNL     1      -1.113  -0.799   0.301  0.00  0.00    +0.044 A 
ATOM     24  C   UNL     1      -2.322  -0.204   0.634  0.00  0.00    +0.024 A 
ATOM     25  C   UNL     1      -3.421  -0.990   0.924  0.00  0.00    +0.002 A 
ATOM     26  C   UNL     1      -3.314  -2.368   0.893  0.00  0.00    +0.000 A 
ATOM     27  C   UNL     1      -2.109  -2.964   0.566  0.00  0.00    +0.002 A 
ATOM     28  C   UNL     1      -1.009  -2.183   0.271  0.00  0.00    +0.024 A 
ENDBRANCH   7  23
BRANCH   1  29
ATOM     29  C   UNL     1       2.269   3.993   0.568  0.00  0.00    -0.047 A 
ATOM     30  C   UNL     1       1.268   4.152   1.508  0.00  0.00    +0.003 A 
ATOM     31  C   UNL     1       1.395   5.109   2.497  0.00  0.00    +0.000 A 
ATOM     32  C   UNL     1       2.518   5.914   2.540  0.00  0.00    +0.000 A 
ATOM     33  C   UNL     1       3.516   5.759   1.597  0.00  0.00    +0.000 A 
ATOM     34  C   UNL     1       3.392   4.798   0.611  0.00  0.00    +0.003 A 
ENDBRANCH   1  29
BRANCH   1  35
ATOM     35  C   UNL     1       1.423   3.516  -1.708  0.00  0.00    +0.301 C 
ATOM     36  O   UNL     1       0.227   3.384  -1.821  0.00  0.00    -0.252 OA
BRANCH  35  37
ATOM     37  O   UNL     1       2.119   4.170  -2.651  0.00  0.00    -0.466 OA
BRANCH  37  39
ATOM     38  C   UNL     1       2.324   5.400  -4.742  0.00  0.00    +0.048 C 
ATOM     39  C   UNL     1       1.369   4.692  -3.780  0.00  0.00    +0.228 C 
ENDBRANCH  37  39
ENDBRANCH  35  37
ENDBRANCH   1  35
TORSDOF 8
