REMARK  Name = ZINC39655448
REMARK  6 active torsions:
REMARK  status: ('A' for Active; 'I' for Inactive)
REMARK    1  A    between atoms: C_4  and  N_7
REMARK    2  A    between atoms: N_7  and  C_8
REMARK    3  A    between atoms: C_8  and  C_9
REMARK    4  A    between atoms: C_9  and  N_10
REMARK    5  A    between atoms: C_11  and  C_13
REMARK    6  A    between atoms: C_24  and  C_26
REMARK                            x       y       z     vdW  Elec       q    Type
REMARK                         _______ _______ _______ _____ _____    ______ ____
ROOT
ATOM      1  C   UNL     1       6.632  -5.731  -0.201  0.00  0.00    +0.100 C 
ATOM      2  C   UNL     1       5.734  -6.384  -1.276  0.00  0.00    +0.121 C 
ATOM      3  N   UNL     1       6.674  -6.821  -2.335  0.00  0.00    -0.296 N 
ATOM      4  C   UNL     1       7.851  -7.336  -1.593  0.00  0.00    +0.115 C 
ATOM      5  C   UNL     1       8.020  -6.361  -0.411  0.00  0.00    -0.004 C 
ATOM      6  C   UNL     1       9.042  -5.284  -0.758  0.00  0.00    -0.010 C 
ATOM      7  C   UNL     1      10.424  -5.926  -0.906  0.00  0.00    -0.082 C 
ATOM      8  N   UNL     1      10.793  -6.592   0.349  0.00  0.00    +0.379 N 
ATOM      9  C   UNL     1       9.857  -7.688   0.628  0.00  0.00    -0.082 C 
ATOM     10  C   UNL     1       8.451  -7.120   0.841  0.00  0.00    -0.010 C 
ATOM     11  C   UNL     1       6.499  -6.764  -3.670  0.00  0.00    +0.249 C 
ATOM     12  O   UNL     1       7.329  -7.252  -4.413  0.00  0.00    -0.270 OA
ATOM     13  H   UNL     1      11.728  -6.962   0.270  0.00  0.00    -0.086 HD
ATOM     14  H   UNL     1      10.761  -5.924   1.104  0.00  0.00    -0.086 HD
ENDROOT
BRANCH  11  15
ATOM     15  C   UNL     1       5.299  -6.110  -4.230  0.00  0.00    +0.073 A 
ATOM     16  C   UNL     1       4.076  -6.198  -3.562  0.00  0.00    +0.016 A 
ATOM     17  C   UNL     1       2.959  -5.585  -4.090  0.00  0.00    +0.002 A 
ATOM     18  C   UNL     1       3.047  -4.883  -5.280  0.00  0.00    +0.023 A 
ATOM     19  C   UNL     1       4.254  -4.789  -5.949  0.00  0.00    +0.077 A 
ATOM     20  C   UNL     1       5.384  -5.395  -5.428  0.00  0.00    +0.154 A 
ATOM     21  F   UNL     1       6.565  -5.300  -6.079  0.00  0.00    -0.203 F 
ATOM     22 CL   UNL     1       4.352  -3.906  -7.440  0.00  0.00    -0.081 Cl
ENDBRANCH  11  15
BRANCH   1  24
ATOM     23  N   UNL     1       6.924  -3.425   0.643  0.00  0.00    -0.314 N 
ATOM     24  C   UNL     1       6.697  -4.240  -0.406  0.00  0.00    +0.218 C 
ATOM     25  O   UNL     1       6.544  -3.773  -1.515  0.00  0.00    -0.275 OA
ATOM     26  H   UNL     1       7.047  -3.798   1.530  0.00  0.00    +0.149 HD
BRANCH  23  27
ATOM     27  C   UNL     1       6.987  -1.975   0.443  0.00  0.00    +0.123 C 
BRANCH  27  28
ATOM     28  C   UNL     1       7.255  -1.287   1.784  0.00  0.00    +0.120 C 
BRANCH  28  29
ATOM     29  N   UNL     1       7.317   0.163   1.584  0.00  0.00    -0.342 N 
ATOM     30  H   UNL     1       7.195   0.537   0.698  0.00  0.00    +0.146 HD
BRANCH  29  34
ATOM     31  C   UNL     1       8.020   2.682   4.825  0.00  0.00    +0.000 A 
ATOM     32  C   UNL     1       7.846   3.216   3.561  0.00  0.00    +0.002 A 
ATOM     33  C   UNL     1       7.613   2.383   2.484  0.00  0.00    +0.023 A 
ATOM     34  C   UNL     1       7.553   1.008   2.671  0.00  0.00    +0.027 A 
ATOM     35  C   UNL     1       7.728   0.475   3.942  0.00  0.00    +0.023 A 
ATOM     36  C   UNL     1       7.961   1.313   5.015  0.00  0.00    +0.002 A 
ENDBRANCH  29  34
ENDBRANCH  28  29
ENDBRANCH  27  28
ENDBRANCH  23  27
ENDBRANCH   1  24
TORSDOF 6
