REMARK  Name = ZINC13593005
REMARK  11 active torsions:
REMARK  status: ('A' for Active; 'I' for Inactive)
REMARK    1  A    between atoms: C_1  and  C_2
REMARK    2  A    between atoms: C_2  and  N_3
REMARK    3  A    between atoms: N_3  and  C_4
REMARK    4  A    between atoms: N_3  and  S_6
REMARK    5  A    between atoms: C_4  and  C_5
REMARK    6  A    between atoms: S_6  and  C_9
REMARK    7  A    between atoms: C_13  and  C_15
REMARK    8  A    between atoms: N_17  and  N_18
REMARK    9  A    between atoms: C_19  and  C_21
REMARK   10  A    between atoms: C_27  and  C_32
REMARK   11  A    between atoms: C_28  and  C_31
REMARK                            x       y       z     vdW  Elec       q    Type
REMARK                         _______ _______ _______ _____ _____    ______ ____
ROOT
ATOM      1  C   UNL     1       4.283  -3.583  -1.809  0.00  0.00    +0.260 C 
ATOM      2  O   UNL     1       3.786  -4.418  -1.078  0.00  0.00    -0.269 OA
ATOM      3  N   UNL     1       5.533  -3.758  -2.280  0.00  0.00    -0.230 N 
ATOM      4  H   UNL     1       5.930  -3.092  -2.863  0.00  0.00    +0.173 HD
ENDROOT
BRANCH   1   9
ATOM      5  C   UNL     1       1.510  -1.061  -2.043  0.00  0.00    +0.106 A 
ATOM      6  C   UNL     1       2.076  -0.115  -2.879  0.00  0.00    +0.028 A 
ATOM      7  C   UNL     1       3.362  -0.289  -3.360  0.00  0.00    +0.003 A 
ATOM      8  C   UNL     1       4.083  -1.414  -3.018  0.00  0.00    +0.013 A 
ATOM      9  C   UNL     1       3.515  -2.375  -2.180  0.00  0.00    +0.040 A 
ATOM     10  C   UNL     1       2.220  -2.190  -1.693  0.00  0.00    +0.041 A 
BRANCH   5  11
ATOM     11  S   UNL     1      -0.125  -0.826  -1.430  0.00  0.00    +0.061 S 
ATOM     12  O   UNL     1      -0.630  -2.116  -1.114  0.00  0.00    -0.153 OA
ATOM     13  O   UNL     1      -0.780   0.046  -2.342  0.00  0.00    -0.153 OA
BRANCH  11  14
ATOM     14  N   UNL     1       0.002  -0.004   0.002  0.00  0.00    -0.177 NA
BRANCH  14  16
ATOM     15  C   UNL     1       1.418   1.990  -0.001  0.00  0.00    +0.022 C 
ATOM     16  C   UNL     1      -0.018   1.461   0.010  0.00  0.00    +0.106 C 
ENDBRANCH  14  16
BRANCH  14  17
ATOM     17  C   UNL     1       0.135  -0.742   1.261  0.00  0.00    +0.106 C 
ATOM     18  C   UNL     1      -1.245  -0.910   1.901  0.00  0.00    +0.022 C 
ENDBRANCH  14  17
ENDBRANCH  11  14
ENDBRANCH   5  11
ENDBRANCH   1   9
BRANCH   3  19
ATOM     19  N   UNL     1       6.261  -4.903  -1.928  0.00  0.00    -0.230 N 
ATOM     20  C   UNL     1       7.511  -5.078  -2.400  0.00  0.00    +0.260 C 
ATOM     21  O   UNL     1       8.008  -4.243  -3.130  0.00  0.00    -0.269 OA
ATOM     22  H   UNL     1       5.864  -5.569  -1.345  0.00  0.00    +0.173 HD
BRANCH  20  23
ATOM     23  C   UNL     1       8.277  -6.284  -2.029  0.00  0.00    +0.039 A 
ATOM     24  C   UNL     1       7.706  -7.244  -1.182  0.00  0.00    +0.015 A 
ATOM     25  C   UNL     1       8.399  -8.366  -0.834  0.00  0.00    +0.027 A 
ATOM     26  C   UNL     1       9.693  -8.567  -1.311  0.00  0.00    +0.047 A 
ATOM     27  C   UNL     1      10.281  -7.607  -2.159  0.00  0.00    +0.004 A 
ATOM     28  C   UNL     1       9.568  -6.465  -2.516  0.00  0.00    +0.023 A 
ATOM     29  C   UNL     1      11.620  -8.111  -2.474  0.00  0.00    -0.022 A 
ATOM     30  C   UNL     1      11.757  -9.283  -1.834  0.00  0.00    +0.017 A 
ATOM     31  N   UNL     1      10.616  -9.569  -1.135  0.00  0.00    -0.358 N 
ATOM     32  H   UNL     1      10.479 -10.363  -0.595  0.00  0.00    +0.166 HD
ATOM     33  C   UNL     1      12.987 -10.153  -1.877  0.00  0.00    +0.063 C 
ATOM     34  C   UNL     1      12.647  -7.442  -3.351  0.00  0.00    +0.046 C 
ENDBRANCH  20  23
ENDBRANCH   3  19
TORSDOF 7
