REMARK  Name = ZINC02279396
REMARK  14 active torsions:
REMARK  status: ('A' for Active; 'I' for Inactive)
REMARK    1  A    between atoms: C_1  and  C_2
REMARK    2  A    between atoms: C_2  and  N_63
REMARK    3  A    between atoms: C_3  and  C_4
REMARK    4  A    between atoms: C_3  and  N_63
REMARK    5  A    between atoms: C_5  and  C_6
REMARK    6  A    between atoms: C_5  and  N_63
REMARK    7  A    between atoms: C_6  and  O_7
REMARK    8  A    between atoms: O_7  and  C_8
REMARK    9  A    between atoms: C_8  and  C_10
REMARK   10  A    between atoms: C_13  and  N_16
REMARK   11  A    between atoms: C_17  and  C_19
REMARK   12  A    between atoms: C_20  and  O_33
REMARK   13  A    between atoms: N_27  and  C_30
REMARK   14  A    between atoms: C_30  and  C_31
REMARK                            x       y       z     vdW  Elec       q    Type
REMARK                         _______ _______ _______ _____ _____    ______ ____
ROOT
ATOM      1  N   UNL     1      -3.783   7.267   0.554  0.00  0.00    -0.281 N 
ATOM      2  C   UNL     1      -2.667   7.634  -0.107  0.00  0.00    +0.257 C 
ATOM      3  O   UNL     1      -2.672   8.635  -0.799  0.00  0.00    -0.270 OA
ATOM      4  H   UNL     1      -3.761   6.507   1.157  0.00  0.00    +0.155 HD
ENDROOT
BRANCH   2   5
ATOM      5  C   UNL     1      -1.447   6.827   0.007  0.00  0.00    +0.143 A 
ATOM      6  C   UNL     1      -1.335   5.612  -0.673  0.00  0.00    +0.143 A 
ATOM      7  C   UNL     1      -0.094   4.845  -0.525  0.00  0.00    +0.041 A 
ATOM      8  C   UNL     1       0.072   3.624  -1.189  0.00  0.00    +0.013 A 
ATOM      9  C   UNL     1       1.233   2.920  -1.036  0.00  0.00    +0.001 A 
ATOM     10  C   UNL     1       2.255   3.412  -0.235  0.00  0.00    +0.002 A 
ATOM     11  C   UNL     1       2.115   4.614   0.423  0.00  0.00    +0.026 A 
ATOM     12  C   UNL     1       0.939   5.347   0.287  0.00  0.00    +0.056 A 
ATOM     13  N   UNL     1       0.791   6.552   0.943  0.00  0.00    -0.304 N 
ATOM     14  C   UNL     1      -0.330   7.284   0.833  0.00  0.00    +0.268 A 
ATOM     15  O   UNL     1      -0.418   8.342   1.430  0.00  0.00    -0.267 OA
BRANCH   6  16
ATOM     16  O   UNL     1      -2.342   5.156  -1.446  0.00  0.00    -0.505 OA
ATOM     17  H   UNL     1      -3.080   5.774  -1.536  0.00  0.00    +0.292 HD
ENDBRANCH   6  16
BRANCH  13  18
ATOM     18  C   UNL     1       1.886   7.046   1.782  0.00  0.00    +0.152 C 
BRANCH  18  19
ATOM     19  C   UNL     1       2.814   7.893   0.949  0.00  0.00    -0.013 C 
ATOM     20  C   UNL     1       3.090   9.119   1.319  0.00  0.00    +0.005 C 
ENDBRANCH  18  19
ENDBRANCH  13  18
ENDBRANCH   2   5
BRANCH   1  24
ATOM     21  C   UNL     1      -7.323   9.392   0.009  0.00  0.00    +0.059 A 
ATOM     22  C   UNL     1      -6.096  10.062   0.009  0.00  0.00    +0.017 A 
ATOM     23  C   UNL     1      -4.928   9.357   0.190  0.00  0.00    +0.024 A 
ATOM     24  C   UNL     1      -4.967   7.978   0.372  0.00  0.00    +0.034 A 
ATOM     25  C   UNL     1      -6.186   7.306   0.366  0.00  0.00    +0.024 A 
ATOM     26  C   UNL     1      -7.358   8.006   0.192  0.00  0.00    +0.017 A 
BRANCH  21  27
ATOM     27  C   UNL     1      -8.576  10.144  -0.183  0.00  0.00    +0.339 C 
ATOM     28  O   UNL     1      -8.544  11.348  -0.341  0.00  0.00    -0.245 OA
BRANCH  27  29
ATOM     29  O   UNL     1      -9.758   9.496  -0.183  0.00  0.00    -0.463 OA
BRANCH  29  30
ATOM     30  C   UNL     1     -10.951  10.300  -0.377  0.00  0.00    +0.214 C 
BRANCH  30  31
ATOM     31  C   UNL     1     -12.174   9.385  -0.468  0.00  0.00    -0.037 C 
BRANCH  31  32
ATOM     32  N   UNL     1     -12.332   8.678   0.820  0.00  0.00    +0.382 N 
ATOM     33  H   UNL     1     -11.408   8.374   1.149  0.00  0.00    -0.082 HD
BRANCH  32  35
ATOM     34  C   UNL     1     -12.873   8.905   3.194  0.00  0.00    -0.017 C 
ATOM     35  C   UNL     1     -12.927   9.584   1.824  0.00  0.00    -0.082 C 
ENDBRANCH  32  35
BRANCH  32  36
ATOM     36  C   UNL     1     -13.192   7.489   0.640  0.00  0.00    -0.082 C 
ATOM     37  C   UNL     1     -12.365   6.380  -0.015  0.00  0.00    -0.017 C 
ENDBRANCH  32  36
ENDBRANCH  31  32
ENDBRANCH  30  31
ENDBRANCH  29  30
ENDBRANCH  27  29
ENDBRANCH  21  27
ENDBRANCH   1  24
TORSDOF 12
