REMARK  Name = ZINC59110013
REMARK  18 active torsions:
REMARK  status: ('A' for Active; 'I' for Inactive)
REMARK    1  A    between atoms: C_1  and  C_2
REMARK    2  A    between atoms: C_2  and  C_3
REMARK    3  A    between atoms: C_2  and  C_4
REMARK    4  A    between atoms: C_7  and  N_10
REMARK    5  A    between atoms: N_10  and  C_11
REMARK    6  A    between atoms: C_11  and  N_13
REMARK    7  A    between atoms: N_13  and  C_14
REMARK    8  A    between atoms: C_14  and  C_15
REMARK    9  A    between atoms: C_15  and  C_37
REMARK   10  A    between atoms: C_17  and  N_24
REMARK   11  A    between atoms: C_20  and  C_22
REMARK   12  A    between atoms: C_20  and  C_23
REMARK   13  A    between atoms: N_24  and  C_25
REMARK   14  A    between atoms: C_25  and  N_27
REMARK   15  A    between atoms: N_27  and  C_28
REMARK   16  A    between atoms: C_31  and  C_34
REMARK   17  A    between atoms: C_34  and  C_35
REMARK   18  A    between atoms: C_34  and  C_36
REMARK                            x       y       z     vdW  Elec       q    Type
REMARK                         _______ _______ _______ _____ _____    ______ ____
ROOT
ATOM      1  C   UNL     1       6.758  -4.638  -6.814  0.00  0.00    -0.014 C 
ATOM      2  C   UNL     1       5.581  -5.134  -7.646  0.00  0.00    +0.030 C 
ATOM      3  C   UNL     1       6.063  -5.718  -8.972  0.00  0.00    +0.073 C 
ATOM      4  C   UNL     1       6.970  -6.912  -8.685  0.00  0.00    +0.028 C 
ATOM      5  C   UNL     1       8.197  -6.481  -7.890  0.00  0.00    -0.033 C 
ATOM      6  C   UNL     1       7.839  -5.689  -6.646  0.00  0.00    +0.014 C 
ATOM      7  C   UNL     1       9.154  -5.692  -8.789  0.00  0.00    +0.011 C 
ATOM      8  C   UNL     1       8.938  -7.761  -7.443  0.00  0.00    +0.011 C 
ATOM      9  C   UNL     1       7.327  -3.354  -7.426  0.00  0.00    +0.013 C 
ENDROOT
BRANCH   3  10
ATOM     10  N   UNL     1       4.901  -6.172  -9.748  0.00  0.00    -0.323 N 
ATOM     11  H   UNL     1       4.080  -6.417  -9.293  0.00  0.00    +0.148 HD
BRANCH  10  12
ATOM     12  C   UNL     1       4.976  -6.250 -11.091  0.00  0.00    +0.135 C 
ATOM     13  S   UNL     1       6.425  -5.818 -11.894  0.00  0.00    -0.019 S 
BRANCH  12  14
ATOM     14  N   UNL     1       3.910  -6.667 -11.803  0.00  0.00    -0.297 N 
ATOM     15  H   UNL     1       3.064  -6.832 -11.357  0.00  0.00    +0.154 HD
BRANCH  14  16
ATOM     16  C   UNL     1       4.023  -6.862 -13.183  0.00  0.00    +0.033 A 
ATOM     17  C   UNL     1       5.160  -7.461 -13.710  0.00  0.00    +0.023 A 
ATOM     18  C   UNL     1       5.269  -7.652 -15.074  0.00  0.00    +0.006 A 
ATOM     19  C   UNL     1       4.247  -7.247 -15.914  0.00  0.00    -0.045 A 
ATOM     20  C   UNL     1       3.114  -6.651 -15.392  0.00  0.00    +0.006 A 
ATOM     21  C   UNL     1       2.997  -6.462 -14.029  0.00  0.00    +0.023 A 
BRANCH  19  22
ATOM     22  C   UNL     1       4.370  -7.457 -17.401  0.00  0.00    +0.013 C 
ATOM     23  C   UNL     1       3.225  -8.348 -17.887  0.00  0.00    +0.012 C 
ATOM     24  C   UNL     1       4.301  -6.105 -18.114  0.00  0.00    +0.012 C 
ENDBRANCH  19  22
ENDBRANCH  14  16
ENDBRANCH  12  14
ENDBRANCH  10  12
ENDBRANCH   3  10
BRANCH   1  25
ATOM     25  C   UNL     1       6.221  -4.279  -5.411  0.00  0.00    +0.110 C 
BRANCH  25  26
ATOM     26  N   UNL     1       5.172  -3.263  -5.535  0.00  0.00    -0.326 N 
ATOM     27  H   UNL     1       4.923  -2.928  -6.410  0.00  0.00    +0.148 HD
BRANCH  26  28
ATOM     28  C   UNL     1       4.555  -2.794  -4.432  0.00  0.00    +0.135 C 
ATOM     29  S   UNL     1       4.995  -3.386  -2.887  0.00  0.00    -0.019 S 
BRANCH  28  30
ATOM     30  N   UNL     1       3.590  -1.859  -4.546  0.00  0.00    -0.297 N 
ATOM     31  H   UNL     1       3.282  -1.585  -5.424  0.00  0.00    +0.154 HD
BRANCH  30  35
ATOM     32  C   UNL     1       1.932  -0.149  -1.129  0.00  0.00    -0.045 A 
ATOM     33  C   UNL     1       3.294  -0.379  -1.194  0.00  0.00    +0.006 A 
ATOM     34  C   UNL     1       3.847  -0.946  -2.325  0.00  0.00    +0.023 A 
ATOM     35  C   UNL     1       3.033  -1.286  -3.398  0.00  0.00    +0.033 A 
ATOM     36  C   UNL     1       1.666  -1.054  -3.330  0.00  0.00    +0.023 A 
ATOM     37  C   UNL     1       1.118  -0.492  -2.193  0.00  0.00    +0.006 A 
BRANCH  32  39
ATOM     38  C   UNL     1       1.621  -0.423   1.316  0.00  0.00    +0.012 C 
ATOM     39  C   UNL     1       1.332   0.469   0.108  0.00  0.00    +0.013 C 
ATOM     40  C   UNL     1       1.947   1.851   0.336  0.00  0.00    +0.012 C 
ENDBRANCH  32  39
ENDBRANCH  30  35
ENDBRANCH  28  30
ENDBRANCH  26  28
ENDBRANCH  25  26
ENDBRANCH   1  25
TORSDOF 11
