REMARK  Name = ZINC09705755
REMARK  14 active torsions:
REMARK  status: ('A' for Active; 'I' for Inactive)
REMARK    1  A    between atoms: C_1  and  C_2
REMARK    2  A    between atoms: C_2  and  N_66
REMARK    3  A    between atoms: C_3  and  C_4
REMARK    4  A    between atoms: C_3  and  N_66
REMARK    5  A    between atoms: C_5  and  C_6
REMARK    6  A    between atoms: C_5  and  N_66
REMARK    7  A    between atoms: C_6  and  C_7
REMARK    8  A    between atoms: C_7  and  C_8
REMARK    9  A    between atoms: C_8  and  C_10
REMARK   10  A    between atoms: C_8  and  N_11
REMARK   11  A    between atoms: C_12  and  C_14
REMARK   12  A    between atoms: N_16  and  C_17
REMARK   13  A    between atoms: C_25  and  C_26
REMARK   14  A    between atoms: N_28  and  C_29
REMARK                            x       y       z     vdW  Elec       q    Type
REMARK                         _______ _______ _______ _____ _____    ______ ____
ROOT
ATOM      1  C   UNL     1       3.653  -5.139   0.046  0.00  0.00    +0.093 A 
ATOM      2  C   UNL     1       2.582  -4.733   0.964  0.00  0.00    +0.042 A 
ATOM      3  C   UNL     1       2.489  -3.794   1.992  0.00  0.00    +0.013 A 
ATOM      4  C   UNL     1       1.315  -3.654   2.678  0.00  0.00    +0.001 A 
ATOM      5  C   UNL     1       0.216  -4.439   2.357  0.00  0.00    +0.004 A 
ATOM      6  C   UNL     1       0.289  -5.372   1.346  0.00  0.00    +0.047 A 
ATOM      7  C   UNL     1       1.473  -5.532   0.635  0.00  0.00    +0.138 A 
ATOM      8  O   UNL     1       1.833  -6.337  -0.384  0.00  0.00    -0.448 OA
ATOM      9  C   UNL     1       3.119  -6.123  -0.741  0.00  0.00    +0.212 A 
ENDROOT
BRANCH   1  12
ATOM     10  C   UNL     1       5.165  -3.325   0.241  0.00  0.00    +0.303 C 
ATOM     11  O   UNL     1       4.253  -2.616   0.613  0.00  0.00    -0.265 OA
ATOM     12  N   UNL     1       4.944  -4.631  -0.011  0.00  0.00    -0.274 N 
ATOM     13  H   UNL     1       5.686  -5.215  -0.233  0.00  0.00    +0.155 HD
BRANCH  10  15
ATOM     14  N   UNL     1       6.754  -1.446   0.313  0.00  0.00    -0.305 N 
ATOM     15  C   UNL     1       6.532  -2.752   0.061  0.00  0.00    +0.300 C 
ATOM     16  O   UNL     1       7.444  -3.461  -0.311  0.00  0.00    -0.265 OA
ATOM     17  H   UNL     1       6.025  -0.879   0.611  0.00  0.00    +0.149 HD
BRANCH  14  18
ATOM     18  C   UNL     1       8.095  -0.884   0.137  0.00  0.00    +0.070 C 
ATOM     19  C   UNL     1       8.916  -1.117   1.407  0.00  0.00    +0.028 C 
BRANCH  18  20
ATOM     20  C   UNL     1       7.987   0.619  -0.131  0.00  0.00    +0.020 C 
BRANCH  20  21
ATOM     21  C   UNL     1       7.274   0.848  -1.465  0.00  0.00    -0.017 C 
BRANCH  21  22
ATOM     22  C   UNL     1       7.165   2.351  -1.734  0.00  0.00    -0.079 C 
BRANCH  22  23
ATOM     23  N   UNL     1       6.388   2.555  -2.974  0.00  0.00    +0.379 N 
ATOM     24  H   UNL     1       6.688   1.865  -3.673  0.00  0.00    -0.082 HD
BRANCH  23  26
ATOM     25  C   UNL     1       4.192   2.365  -4.035  0.00  0.00    -0.017 C 
ATOM     26  C   UNL     1       4.947   2.370  -2.704  0.00  0.00    -0.082 C 
ENDBRANCH  23  26
BRANCH  23  27
ATOM     27  C   UNL     1       6.632   3.913  -3.505  0.00  0.00    -0.082 C 
ATOM     28  C   UNL     1       7.997   3.931  -4.197  0.00  0.00    -0.017 C 
ENDBRANCH  23  27
ENDBRANCH  22  23
ENDBRANCH  21  22
ENDBRANCH  20  21
ENDBRANCH  18  20
ENDBRANCH  14  18
ENDBRANCH  10  15
ENDBRANCH   1  12
BRANCH   9  29
ATOM     29  C   UNL     1       3.827  -6.829  -1.806  0.00  0.00    +0.285 C 
ATOM     30  O   UNL     1       5.013  -6.621  -1.991  0.00  0.00    -0.266 OA
ATOM     31  N   UNL     1       3.168  -7.710  -2.585  0.00  0.00    -0.279 N 
ATOM     32  H   UNL     1       2.211  -7.825  -2.484  0.00  0.00    +0.155 HD
BRANCH  31  33
ATOM     33  C   UNL     1       3.866  -8.461  -3.538  0.00  0.00    +0.034 A 
ATOM     34  C   UNL     1       3.486  -9.768  -3.808  0.00  0.00    +0.026 A 
ATOM     35  C   UNL     1       4.176 -10.507  -4.749  0.00  0.00    +0.040 A 
ATOM     36  C   UNL     1       5.248  -9.945  -5.422  0.00  0.00    +0.124 A 
ATOM     37  C   UNL     1       5.629  -8.641  -5.154  0.00  0.00    +0.040 A 
ATOM     38  C   UNL     1       4.941  -7.898  -4.214  0.00  0.00    +0.026 A 
ATOM     39  F   UNL     1       5.922 -10.669  -6.342  0.00  0.00    -0.205 F 
ENDBRANCH  31  33
ENDBRANCH   9  29
TORSDOF 11
