REMARK  Name = ZINC67342046
REMARK  10 active torsions:
REMARK  status: ('A' for Active; 'I' for Inactive)
REMARK    1  A    between atoms: C_1  and  C_2
REMARK    2  A    between atoms: C_5  and  C_21
REMARK    3  A    between atoms: C_7  and  N_8
REMARK    4  A    between atoms: N_23  and  C_24
REMARK    5  A    between atoms: C_24  and  C_25
REMARK    6  A    between atoms: C_25  and  C_26
REMARK    7  A    between atoms: C_26  and  N_27
REMARK    8  A    between atoms: N_27  and  C_28
REMARK    9  A    between atoms: N_27  and  C_29
REMARK   10  A    between atoms: C_29  and  C_30
REMARK                            x       y       z     vdW  Elec       q    Type
REMARK                         _______ _______ _______ _____ _____    ______ ____
ROOT
ATOM      1  C   UNL     1       0.645   1.435   0.049  0.00  0.00    +0.046 C 
ATOM      2  C   UNL     1       0.322  -0.036   0.020  0.00  0.00    -0.025 A 
ATOM      3  C   UNL     1       0.326  -0.719  -1.180  0.00  0.00    +0.006 A 
ATOM      4  C   UNL     1       0.031  -2.068  -1.215  0.00  0.00    +0.013 A 
ATOM      5  C   UNL     1      -0.274  -2.750  -0.035  0.00  0.00    +0.039 A 
ATOM      6  C   UNL     1      -0.280  -2.068   1.179  0.00  0.00    +0.041 A 
ATOM      7  C   UNL     1       0.024  -0.707   1.209  0.00  0.00    +0.070 A 
ENDROOT
BRANCH   7   8
ATOM      8  N   UNL     1       0.025  -0.029   2.399  0.00  0.00    -0.226 NA
ATOM      9  C   UNL     1       0.690  -0.507   3.426  0.00  0.00    +0.155 C 
ATOM     10  N   UNL     1       0.718  -0.015   4.713  0.00  0.00    -0.318 N 
ATOM     11  C   UNL     1       1.475  -0.740   5.720  0.00  0.00    +0.108 C 
ATOM     12  C   UNL     1       2.061   0.223   6.769  0.00  0.00    +0.189 C 
ATOM     13  S   UNL     1       3.776   0.501   6.170  0.00  0.00    -0.028 S 
ATOM     14  O   UNL     1       3.901   1.848   5.734  0.00  0.00    -0.174 OA
ATOM     15  O   UNL     1       4.690  -0.009   7.132  0.00  0.00    -0.174 OA
ATOM     16  C   UNL     1       3.773  -0.606   4.700  0.00  0.00    +0.182 C 
ATOM     17  C   UNL     1       2.622  -1.555   5.054  0.00  0.00    +0.097 C 
ATOM     18  S   UNL     1       1.753  -1.945   3.467  0.00  0.00    -0.084 S 
ATOM     19  H   UNL     1       0.243   0.799   4.942  0.00  0.00    +0.148 HD
ENDBRANCH   7   8
BRANCH   5  20
ATOM     20  C   UNL     1      -0.591  -4.194  -0.075  0.00  0.00    +0.244 C 
ATOM     21  O   UNL     1      -0.856  -4.787   0.953  0.00  0.00    -0.270 OA
ATOM     22  N   UNL     1      -0.585  -4.853  -1.251  0.00  0.00    -0.311 N 
ATOM     23  H   UNL     1      -0.373  -4.380  -2.071  0.00  0.00    +0.149 HD
BRANCH  22  24
ATOM     24  C   UNL     1      -0.899  -6.284  -1.290  0.00  0.00    +0.102 C 
BRANCH  24  25
ATOM     25  C   UNL     1      -0.823  -6.782  -2.735  0.00  0.00    +0.000 C 
BRANCH  25  26
ATOM     26  C   UNL     1      -1.150  -8.277  -2.776  0.00  0.00    -0.077 C 
BRANCH  26  27
ATOM     27  N   UNL     1      -1.077  -8.756  -4.162  0.00  0.00    +0.381 N 
ATOM     28  C   UNL     1       0.306  -8.647  -4.646  0.00  0.00    -0.096 C 
ATOM     29  H   UNL     1      -1.681  -8.195  -4.744  0.00  0.00    -0.082 HD
BRANCH  27  30
ATOM     30  C   UNL     1      -1.507 -10.159  -4.219  0.00  0.00    -0.043 C 
BRANCH  30  31
ATOM     31  C   UNL     1      -1.550 -10.614  -5.655  0.00  0.00    -0.064 A 
ATOM     32  C   UNL     1      -2.709 -10.465  -6.393  0.00  0.00    +0.002 A 
ATOM     33  C   UNL     1      -2.748 -10.882  -7.710  0.00  0.00    +0.000 A 
ATOM     34  C   UNL     1      -1.628 -11.448  -8.290  0.00  0.00    +0.000 A 
ATOM     35  C   UNL     1      -0.468 -11.597  -7.552  0.00  0.00    +0.000 A 
ATOM     36  C   UNL     1      -0.428 -11.175  -6.236  0.00  0.00    +0.002 A 
ENDBRANCH  30  31
ENDBRANCH  27  30
ENDBRANCH  26  27
ENDBRANCH  25  26
ENDBRANCH  24  25
ENDBRANCH  22  24
ENDBRANCH   5  20
TORSDOF 8
