REMARK  Name = ZINC20873887
REMARK  11 active torsions:
REMARK  status: ('A' for Active; 'I' for Inactive)
REMARK    1  A    between atoms: C_1  and  C_2
REMARK    2  A    between atoms: C_5  and  C_8
REMARK    3  A    between atoms: C_8  and  O_9
REMARK    4  A    between atoms: O_9  and  C_10
REMARK    5  A    between atoms: C_11  and  O_31
REMARK    6  A    between atoms: C_13  and  C_17
REMARK    7  A    between atoms: C_17  and  N_18
REMARK    8  A    between atoms: N_18  and  C_19
REMARK    9  A    between atoms: C_19  and  C_20
REMARK   10  A    between atoms: C_20  and  C_21
REMARK   11  A    between atoms: O_31  and  C_32
REMARK                            x       y       z     vdW  Elec       q    Type
REMARK                         _______ _______ _______ _____ _____    ______ ____
ROOT
ATOM      1  C   UNL     1      -1.432   3.411   2.466  0.00  0.00    +0.176 A 
ATOM      2  C   UNL     1      -0.787   2.893   1.346  0.00  0.00    +0.163 A 
ATOM      3  C   UNL     1      -0.259   3.751   0.395  0.00  0.00    +0.051 A 
ATOM      4  C   UNL     1      -0.368   5.119   0.561  0.00  0.00    -0.060 A 
ATOM      5  C   UNL     1      -1.002   5.635   1.675  0.00  0.00    +0.021 A 
ATOM      6  C   UNL     1      -1.532   4.784   2.630  0.00  0.00    +0.063 A 
ATOM      7 BR   UNL     1      -2.398   5.494   4.153  0.00  0.00    -0.046 Br
ENDROOT
BRANCH   2   8
ATOM      8  O   UNL     1      -0.682   1.547   1.184  0.00  0.00    -0.491 OA
ATOM      9  C   UNL     1      -0.013   1.086   0.008  0.00  0.00    +0.277 C 
ENDBRANCH   2   8
BRANCH   1  10
ATOM     10  O   UNL     1      -1.957   2.573   3.399  0.00  0.00    -0.483 OA
BRANCH  10  11
ATOM     11  C   UNL     1      -1.102   2.184   4.476  0.00  0.00    +0.264 C 
BRANCH  11  16
ATOM     12  C   UNL     1      -3.970  -1.353   8.033  0.00  0.00    +0.044 C 
ATOM     13  C   UNL     1      -3.222  -0.430   7.106  0.00  0.00    -0.050 A 
ATOM     14  C   UNL     1      -2.507  -0.950   6.043  0.00  0.00    +0.004 A 
ATOM     15  C   UNL     1      -1.820  -0.104   5.192  0.00  0.00    +0.007 A 
ATOM     16  C   UNL     1      -1.850   1.262   5.404  0.00  0.00    -0.010 A 
ATOM     17  C   UNL     1      -2.561   1.781   6.469  0.00  0.00    +0.007 A 
ATOM     18  C   UNL     1      -3.251   0.935   7.317  0.00  0.00    +0.004 A 
ENDBRANCH  11  16
ENDBRANCH  10  11
ENDBRANCH   1  10
BRANCH   4  19
ATOM     19  C   UNL     1       0.207   6.050  -0.475  0.00  0.00    -0.047 C 
BRANCH  19  20
ATOM     20  N   UNL     1      -0.811   6.340  -1.492  0.00  0.00    +0.382 N 
ATOM     21  H   UNL     1      -1.124   5.402  -1.975  0.00  0.00    -0.085 HD
ATOM     22  H   UNL     1      -1.681   6.814  -1.016  0.00  0.00    -0.085 HD
BRANCH  20  23
ATOM     23  C   UNL     1      -0.285   7.247  -2.521  0.00  0.00    -0.077 C 
BRANCH  23  24
ATOM     24  C   UNL     1      -1.372   7.524  -3.561  0.00  0.00    +0.018 C 
BRANCH  24  25
ATOM     25  C   UNL     1      -0.832   8.454  -4.617  0.00  0.00    -0.024 A 
ATOM     26  C   UNL     1      -0.967   9.790  -4.649  0.00  0.00    +0.087 A 
ATOM     27  N   UNL     1      -0.343  10.295  -5.756  0.00  0.00    -0.360 N 
ATOM     28  H   UNL     1      -0.346  11.379  -5.943  0.00  0.00    +0.165 HD
ATOM     29  C   UNL     1       0.217   9.271  -6.487  0.00  0.00    +0.047 A 
ATOM     30  C   UNL     1      -0.065   8.073  -5.805  0.00  0.00    +0.003 A 
ATOM     31  C   UNL     1       0.385   6.856  -6.319  0.00  0.00    +0.010 A 
ATOM     32  C   UNL     1       1.098   6.834  -7.485  0.00  0.00    +0.001 A 
ATOM     33  C   UNL     1       1.379   8.013  -8.162  0.00  0.00    +0.002 A 
ATOM     34  C   UNL     1       0.944   9.225  -7.672  0.00  0.00    +0.026 A 
ENDBRANCH  24  25
ENDBRANCH  23  24
ENDBRANCH  20  23
ENDBRANCH  19  20
ENDBRANCH   4  19
TORSDOF 9
