REMARK  Name = ZINC58954578
REMARK  15 active torsions:
REMARK  status: ('A' for Active; 'I' for Inactive)
REMARK    1  A    between atoms: C_1  and  C_2
REMARK    2  A    between atoms: C_2  and  N_3
REMARK    3  A    between atoms: N_3  and  C_4
REMARK    4  A    between atoms: N_3  and  C_6
REMARK    5  A    between atoms: C_4  and  C_5
REMARK    6  A    between atoms: C_6  and  C_8
REMARK    7  A    between atoms: C_6  and  C_25
REMARK    8  A    between atoms: C_8  and  N_9
REMARK    9  A    between atoms: C_10  and  C_12
REMARK   10  A    between atoms: C_13  and  C_24
REMARK   11  A    between atoms: C_15  and  N_17
REMARK   12  A    between atoms: C_18  and  C_20
REMARK   13  A    between atoms: C_20  and  C_21
REMARK   14  A    between atoms: C_20  and  C_22
REMARK   15  A    between atoms: C_20  and  C_23
REMARK                            x       y       z     vdW  Elec       q    Type
REMARK                         _______ _______ _______ _____ _____    ______ ____
ROOT
ATOM      1  N   UNL     1      -3.279  -1.850  -1.078  0.00  0.00    -0.312 N 
ATOM      2  C   UNL     1      -4.620  -1.756  -1.177  0.00  0.00    +0.251 C 
ATOM      3  O   UNL     1      -5.319  -1.960  -0.201  0.00  0.00    -0.270 OA
ATOM      4  H   UNL     1      -2.719  -1.616  -1.834  0.00  0.00    +0.149 HD
ENDROOT
BRANCH   2   5
ATOM      5  C   UNL     1      -5.236  -1.407  -2.456  0.00  0.00    +0.078 A 
ATOM      6  C   UNL     1      -6.572  -1.168  -2.744  0.00  0.00    -0.029 A 
ATOM      7  C   UNL     1      -6.858  -0.858  -4.049  0.00  0.00    +0.035 A 
ATOM      8  C   UNL     1      -5.825  -0.808  -4.956  0.00  0.00    +0.073 A 
ATOM      9  S   UNL     1      -4.462  -1.173  -4.045  0.00  0.00    -0.069 S 
ATOM     10  C   UNL     1      -7.644  -1.244  -1.688  0.00  0.00    +0.045 C 
BRANCH   8  11
ATOM     11  N   UNL     1      -5.893  -0.517  -6.313  0.00  0.00    -0.280 N 
ATOM     12  C   UNL     1      -4.770  -0.512  -7.058  0.00  0.00    +0.223 C 
ATOM     13  O   UNL     1      -3.700  -0.762  -6.544  0.00  0.00    -0.275 OA
ATOM     14  H   UNL     1      -6.749  -0.317  -6.724  0.00  0.00    +0.155 HD
BRANCH  12  15
ATOM     15  C   UNL     1      -4.844  -0.196  -8.530  0.00  0.00    +0.039 C 
ATOM     16  C   UNL     1      -3.440  -0.258  -9.136  0.00  0.00    +0.020 C 
ATOM     17  C   UNL     1      -5.745  -1.218  -9.226  0.00  0.00    +0.020 C 
ATOM     18  C   UNL     1      -5.421   1.208  -8.722  0.00  0.00    +0.020 C 
ENDBRANCH  12  15
ENDBRANCH   8  11
ENDBRANCH   2   5
BRANCH   1  19
ATOM     19  C   UNL     1      -2.667  -2.307   0.172  0.00  0.00    +0.094 C 
BRANCH  19  20
ATOM     20  C   UNL     1      -1.145  -2.200   0.064  0.00  0.00    -0.020 C 
BRANCH  20  21
ATOM     21  C   UNL     1      -0.520  -2.584   1.381  0.00  0.00    -0.052 A 
ATOM     22  C   UNL     1       0.504  -3.512   1.427  0.00  0.00    +0.009 A 
ATOM     23  C   UNL     1       1.045  -3.835   2.627  0.00  0.00    +0.045 A 
ATOM     24  S   UNL     1       0.099  -2.814   3.745  0.00  0.00    -0.105 S 
ATOM     25  C   UNL     1      -0.949  -2.021   2.536  0.00  0.00    +0.047 A 
ENDBRANCH  20  21
BRANCH  20  26
ATOM     26  N   UNL     1      -0.774  -0.819  -0.270  0.00  0.00    +0.385 N 
ATOM     27  H   UNL     1      -1.231  -0.546  -1.127  0.00  0.00    -0.081 HD
BRANCH  26  29
ATOM     28  C   UNL     1      -0.964   1.530   0.395  0.00  0.00    -0.017 C 
ATOM     29  C   UNL     1      -1.192   0.077   0.816  0.00  0.00    -0.081 C 
ENDBRANCH  26  29
BRANCH  26  30
ATOM     30  C   UNL     1       0.682  -0.732  -0.444  0.00  0.00    -0.081 C 
ATOM     31  C   UNL     1       1.100  -1.550  -1.667  0.00  0.00    -0.017 C 
ENDBRANCH  26  30
ENDBRANCH  20  26
ENDBRANCH  19  20
ENDBRANCH   1  19
TORSDOF 9
