REMARK  Name = ZINC39695038
REMARK  8 active torsions:
REMARK  status: ('A' for Active; 'I' for Inactive)
REMARK    1  A    between atoms: C_1  and  C_2
REMARK    2  A    between atoms: C_2  and  O_3
REMARK    3  A    between atoms: O_3  and  C_4
REMARK    4  A    between atoms: C_9  and  C_10
REMARK    5  A    between atoms: C_14  and  C_23
REMARK    6  A    between atoms: N_25  and  C_26
REMARK    7  A    between atoms: C_26  and  C_27
REMARK    8  A    between atoms: C_32  and  C_33
REMARK                            x       y       z     vdW  Elec       q    Type
REMARK                         _______ _______ _______ _____ _____    ______ ____
ROOT
ATOM      1  C   UNL     1       2.061  -1.657   3.261  0.00  0.00    +0.250 C 
ATOM      2  O   UNL     1       1.952  -0.458   3.087  0.00  0.00    -0.270 OA
ATOM      3  N   UNL     1       2.563  -2.127   4.420  0.00  0.00    -0.296 N 
ATOM      4  C   UNL     1       2.869  -3.533   4.773  0.00  0.00    +0.121 C 
ATOM      5  C   UNL     1       4.189  -3.455   5.574  0.00  0.00    +0.100 C 
ATOM      6  C   UNL     1       4.224  -2.024   6.135  0.00  0.00    -0.004 C 
ATOM      7  C   UNL     1       2.939  -1.353   5.627  0.00  0.00    +0.115 C 
ATOM      8  C   UNL     1       5.446  -1.279   5.605  0.00  0.00    -0.010 C 
ATOM      9  C   UNL     1       5.490   0.122   6.221  0.00  0.00    -0.082 C 
ATOM     10  N   UNL     1       5.553   0.014   7.684  0.00  0.00    +0.379 N 
ATOM     11  C   UNL     1       4.332  -0.621   8.193  0.00  0.00    -0.082 C 
ATOM     12  C   UNL     1       4.238  -2.053   7.660  0.00  0.00    -0.010 C 
ATOM     13  H   UNL     1       6.353  -0.543   7.944  0.00  0.00    -0.086 HD
ATOM     14  H   UNL     1       5.644   0.936   8.085  0.00  0.00    -0.086 HD
ENDROOT
BRANCH   1  20
ATOM     15  C   UNL     1       1.798  -2.253   0.853  0.00  0.00    +0.133 A 
ATOM     16  C   UNL     1       1.407  -3.147  -0.133  0.00  0.00    +0.046 A 
ATOM     17  C   UNL     1       0.863  -4.367   0.215  0.00  0.00    +0.004 A 
ATOM     18  C   UNL     1       0.702  -4.707   1.548  0.00  0.00    +0.001 A 
ATOM     19  C   UNL     1       1.085  -3.832   2.541  0.00  0.00    +0.017 A 
ATOM     20  C   UNL     1       1.643  -2.597   2.203  0.00  0.00    +0.078 A 
BRANCH  15  21
ATOM     21  O   UNL     1       2.333  -1.054   0.513  0.00  0.00    -0.491 OA
BRANCH  21  23
ATOM     22  C   UNL     1       3.079   0.614  -1.069  0.00  0.00    +0.048 C 
ATOM     23  C   UNL     1       2.461  -0.773  -0.882  0.00  0.00    +0.226 C 
ENDBRANCH  21  23
ENDBRANCH  15  21
ENDBRANCH   1  20
BRANCH   5  24
ATOM     24  C   UNL     1       4.181  -4.461   6.697  0.00  0.00    +0.218 C 
ATOM     25  O   UNL     1       3.137  -4.756   7.239  0.00  0.00    -0.275 OA
ATOM     26  N   UNL     1       5.334  -5.032   7.098  0.00  0.00    -0.311 N 
ATOM     27  H   UNL     1       6.169  -4.796   6.664  0.00  0.00    +0.149 HD
BRANCH  26  28
ATOM     28  C   UNL     1       5.326  -6.010   8.189  0.00  0.00    +0.139 C 
BRANCH  28  29
ATOM     29  C   UNL     1       6.731  -6.493   8.440  0.00  0.00    -0.026 A 
ATOM     30  C   UNL     1       7.148  -7.705   7.922  0.00  0.00    +0.005 A 
ATOM     31  C   UNL     1       8.437  -8.149   8.152  0.00  0.00    +0.002 A 
ATOM     32  C   UNL     1       9.310  -7.381   8.900  0.00  0.00    +0.020 A 
ATOM     33  C   UNL     1       8.893  -6.168   9.419  0.00  0.00    +0.044 A 
ATOM     34  C   UNL     1       7.605  -5.721   9.183  0.00  0.00    -0.027 A 
ATOM     35  C   UNL     1       7.152  -4.397   9.742  0.00  0.00    +0.045 C 
ATOM     36 CL   UNL     1       9.988  -5.203  10.358  0.00  0.00    -0.083 Cl
ENDBRANCH  28  29
ENDBRANCH  26  28
ENDBRANCH   5  24
TORSDOF 6
