REMARK  Name = ZINC36806329
REMARK  8 active torsions:
REMARK  status: ('A' for Active; 'I' for Inactive)
REMARK    1  A    between atoms: C_1  and  C_2
REMARK    2  A    between atoms: C_2  and  C_3
REMARK    3  A    between atoms: C_8  and  N_9
REMARK    4  A    between atoms: C_12  and  C_17
REMARK    5  A    between atoms: C_17  and  S_18
REMARK    6  A    between atoms: S_18  and  C_19
REMARK    7  A    between atoms: C_22  and  C_25
REMARK    8  A    between atoms: N_23  and  N_24
REMARK                            x       y       z     vdW  Elec       q    Type
REMARK                         _______ _______ _______ _____ _____    ______ ____
ROOT
ATOM      1  N   UNL     1      -1.670  -0.781  -2.410  0.00  0.00    -0.283 N 
ATOM      2  C   UNL     1      -2.310  -0.825  -3.633  0.00  0.00    +0.224 A 
ATOM      3  N   UNL     1      -1.634  -0.564  -4.750  0.00  0.00    -0.198 NA
ATOM      4  C   UNL     1      -2.246  -0.606  -5.920  0.00  0.00    +0.146 A 
ATOM      5  N   UNL     1      -3.531  -0.907  -5.987  0.00  0.00    -0.199 NA
ATOM      6  C   UNL     1      -4.214  -1.171  -4.876  0.00  0.00    +0.217 A 
ATOM      7  N   UNL     1      -3.600  -1.135  -3.697  0.00  0.00    -0.181 NA
ATOM      8  N   UNL     1      -5.555  -1.486  -4.947  0.00  0.00    -0.327 N 
ATOM      9  H   UNL     1      -0.711  -0.639  -2.370  0.00  0.00    +0.155 HD
ATOM     10  H   UNL     1      -6.001  -1.515  -5.808  0.00  0.00    +0.145 HD
ATOM     11  H   UNL     1      -6.052  -1.677  -4.136  0.00  0.00    +0.145 HD
ENDROOT
BRANCH   1  17
ATOM     12  C   UNL     1      -1.806  -1.504  -0.110  0.00  0.00    -0.026 A 
ATOM     13  C   UNL     1      -2.532  -1.655   1.055  0.00  0.00    +0.005 A 
ATOM     14  C   UNL     1      -3.853  -1.250   1.106  0.00  0.00    +0.000 A 
ATOM     15  C   UNL     1      -4.453  -0.694  -0.010  0.00  0.00    +0.002 A 
ATOM     16  C   UNL     1      -3.733  -0.541  -1.178  0.00  0.00    +0.023 A 
ATOM     17  C   UNL     1      -2.403  -0.940  -1.231  0.00  0.00    +0.037 A 
BRANCH  12  19
ATOM     18  C   UNL     1       0.544  -0.750   0.132  0.00  0.00    +0.009 C 
ATOM     19  C   UNL     1      -0.366  -1.944  -0.164  0.00  0.00    +0.033 C 
ENDBRANCH  12  19
ENDBRANCH   1  17
BRANCH   4  20
ATOM     20  C   UNL     1      -1.476  -0.309  -7.181  0.00  0.00    +0.153 C 
BRANCH  20  21
ATOM     21  S   UNL     1      -0.770  -1.846  -7.835  0.00  0.00    -0.077 S 
BRANCH  21  22
ATOM     22  C   UNL     1       0.086  -1.338  -9.289  0.00  0.00    +0.209 A 
ATOM     23  N   UNL     1       0.173  -0.111  -9.753  0.00  0.00    -0.121 NA
ATOM     24  N   UNL     1       0.872  -0.096 -10.832  0.00  0.00    -0.127 NA
ATOM     25  C   UNL     1       1.274  -1.312 -11.122  0.00  0.00    +0.183 A 
ATOM     26  N   UNL     1       0.788  -2.143 -10.139  0.00  0.00    -0.224 N 
BRANCH  25  27
ATOM     27  C   UNL     1       2.098  -1.711 -12.282  0.00  0.00    +0.035 A 
ATOM     28  C   UNL     1       1.798  -2.878 -12.988  0.00  0.00    +0.013 A 
ATOM     29  C   UNL     1       2.571  -3.245 -14.070  0.00  0.00    +0.001 A 
ATOM     30  C   UNL     1       3.642  -2.459 -14.457  0.00  0.00    +0.001 A 
ATOM     31  C   UNL     1       3.946  -1.302 -13.763  0.00  0.00    +0.016 A 
ATOM     32  C   UNL     1       3.178  -0.920 -12.681  0.00  0.00    +0.029 A 
ATOM     33 BR   UNL     1       3.590   0.666 -11.739  0.00  0.00    -0.050 Br
ENDBRANCH  25  27
BRANCH  26  34
ATOM     34  N   UNL     1       0.967  -3.494 -10.038  0.00  0.00    -0.295 N 
ATOM     35  H   UNL     1       0.199  -3.993 -10.461  0.00  0.00    +0.163 HD
ATOM     36  H   UNL     1       1.847  -3.773 -10.444  0.00  0.00    +0.163 HD
ENDBRANCH  26  34
ENDBRANCH  21  22
ENDBRANCH  20  21
ENDBRANCH   4  20
TORSDOF 7
