REMARK  Name = ZINC39666819
REMARK  11 active torsions:
REMARK  status: ('A' for Active; 'I' for Inactive)
REMARK    1  A    between atoms: C_1  and  C_2
REMARK    2  A    between atoms: C_2  and  C_3
REMARK    3  A    between atoms: C_3  and  C_5
REMARK    4  A    between atoms: C_3  and  C_11
REMARK    5  A    between atoms: C_15  and  C_24
REMARK    6  A    between atoms: N_26  and  C_27
REMARK    7  A    between atoms: C_27  and  C_28
REMARK    8  A    between atoms: C_28  and  C_29
REMARK    9  A    between atoms: C_28  and  C_31
REMARK   10  A    between atoms: C_29  and  C_30
REMARK   11  A    between atoms: C_31  and  C_32
REMARK                            x       y       z     vdW  Elec       q    Type
REMARK                         _______ _______ _______ _____ _____    ______ ____
ROOT
ATOM      1  C   UNL     1      -1.646  -2.410  -0.045  0.00  0.00    +0.223 C 
ATOM      2  O   UNL     1      -2.154  -3.137  -0.873  0.00  0.00    -0.275 OA
ATOM      3  N   UNL     1      -1.029  -2.940   1.030  0.00  0.00    -0.300 N 
ATOM      4  C   UNL     1      -0.362  -2.220   2.140  0.00  0.00    +0.121 C 
ATOM      5  C   UNL     1      -0.738  -3.022   3.406  0.00  0.00    +0.100 C 
ATOM      6  C   UNL     1      -1.066  -4.435   2.893  0.00  0.00    -0.004 C 
ATOM      7  C   UNL     1      -0.871  -4.374   1.371  0.00  0.00    +0.115 C 
ATOM      8  C   UNL     1      -2.512  -4.794   3.220  0.00  0.00    -0.010 C 
ATOM      9  C   UNL     1      -2.796  -6.223   2.751  0.00  0.00    -0.082 C 
ATOM     10  N   UNL     1      -1.877  -7.152   3.421  0.00  0.00    +0.379 N 
ATOM     11  C   UNL     1      -0.494  -6.858   3.028  0.00  0.00    -0.082 C 
ATOM     12  C   UNL     1      -0.112  -5.455   3.508  0.00  0.00    -0.010 C 
ATOM     13  H   UNL     1      -1.970  -7.052   4.420  0.00  0.00    -0.086 HD
ATOM     14  H   UNL     1      -2.107  -8.098   3.157  0.00  0.00    -0.086 HD
ENDROOT
BRANCH   5  15
ATOM     15  C   UNL     1      -1.943  -2.412   4.075  0.00  0.00    +0.218 C 
ATOM     16  O   UNL     1      -2.756  -1.799   3.417  0.00  0.00    -0.275 OA
ATOM     17  N   UNL     1      -2.116  -2.548   5.405  0.00  0.00    -0.315 N 
ATOM     18  H   UNL     1      -1.465  -3.039   5.931  0.00  0.00    +0.149 HD
BRANCH  17  19
ATOM     19  C   UNL     1      -3.287  -1.955   6.056  0.00  0.00    +0.107 C 
BRANCH  19  20
ATOM     20  C   UNL     1      -3.192  -2.166   7.568  0.00  0.00    +0.006 C 
BRANCH  20  21
ATOM     21  C   UNL     1      -4.353  -1.447   8.258  0.00  0.00    +0.002 C 
ATOM     22  C   UNL     1      -4.189  -1.552   9.775  0.00  0.00    +0.004 C 
ENDBRANCH  20  21
BRANCH  20  23
ATOM     23  C   UNL     1      -3.261  -3.662   7.880  0.00  0.00    +0.002 C 
ATOM     24  C   UNL     1      -4.586  -4.229   7.365  0.00  0.00    +0.004 C 
ENDBRANCH  20  23
ENDBRANCH  19  20
ENDBRANCH  17  19
ENDBRANCH   5  15
BRANCH   1  25
ATOM     25  C   UNL     1      -1.704  -0.914  -0.220  0.00  0.00    +0.105 C 
BRANCH  25  26
ATOM     26  C   UNL     1      -2.442  -0.585  -1.492  0.00  0.00    -0.036 A 
ATOM     27  C   UNL     1      -1.970  -1.049  -2.705  0.00  0.00    +0.004 A 
ATOM     28  C   UNL     1      -2.647  -0.747  -3.872  0.00  0.00    +0.000 A 
ATOM     29  C   UNL     1      -3.796   0.019  -3.825  0.00  0.00    +0.000 A 
ATOM     30  C   UNL     1      -4.269   0.482  -2.612  0.00  0.00    +0.000 A 
ATOM     31  C   UNL     1      -3.595   0.177  -1.445  0.00  0.00    +0.004 A 
ENDBRANCH  25  26
BRANCH  25  33
ATOM     32  C   UNL     1      -0.338   1.174  -0.347  0.00  0.00    +0.005 C 
ATOM     33  C   UNL     1      -0.282  -0.354  -0.296  0.00  0.00    +0.014 C 
ENDBRANCH  25  33
ENDBRANCH   1  25
TORSDOF 8
