REMARK  Name = ZINC02457840
REMARK  7 active torsions:
REMARK  status: ('A' for Active; 'I' for Inactive)
REMARK    1  A    between atoms: C_1  and  C_2
REMARK    2  A    between atoms: C_2  and  C_3
REMARK    3  A    between atoms: C_3  and  C_4
REMARK    4  A    between atoms: C_4  and  N_5
REMARK    5  A    between atoms: C_6  and  C_8
REMARK    6  A    between atoms: C_8  and  O_26
REMARK    7  A    between atoms: N_18  and  C_19
REMARK                            x       y       z     vdW  Elec       q    Type
REMARK                         _______ _______ _______ _____ _____    ______ ____
ROOT
ATOM      1  C   UNL     1      -2.451   4.858  -0.587  0.00  0.00    +0.247 C 
ATOM      2  C   UNL     1      -1.160   4.073  -0.557  0.00  0.00    +0.034 A 
ATOM      3  C   UNL     1      -1.066   2.829  -1.135  0.00  0.00    +0.025 A 
ATOM      4  C   UNL     1       0.133   2.136  -1.083  0.00  0.00    +0.018 A 
ATOM      5  C   UNL     1       1.232   2.701  -0.461  0.00  0.00    +0.017 A 
ATOM      6  C   UNL     1       1.141   3.953   0.116  0.00  0.00    +0.025 A 
ATOM      7  C   UNL     1      -0.060   4.648   0.071  0.00  0.00    +0.043 A 
ATOM      8  N   UNL     1      -0.173   5.914   0.648  0.00  0.00    -0.269 N 
ATOM      9  C   UNL     1      -1.309   6.624   0.631  0.00  0.00    +0.314 C 
ATOM     10  O   UNL     1      -1.315   7.719   1.159  0.00  0.00    -0.252 OA
ATOM     11  N   UNL     1      -2.442   6.182   0.057  0.00  0.00    -0.214 N 
ATOM     12 BR   UNL     1       0.270   0.422  -1.870  0.00  0.00    -0.050 Br
ATOM     13  H   UNL     1       0.606   6.297   1.081  0.00  0.00    +0.156 HD
ENDROOT
BRANCH  11  14
ATOM     14  C   UNL     1      -3.598   6.971   0.072  0.00  0.00    +0.041 A 
ATOM     15  C   UNL     1      -3.790   7.942  -0.903  0.00  0.00    +0.024 A 
ATOM     16  C   UNL     1      -4.934   8.716  -0.888  0.00  0.00    +0.002 A 
ATOM     17  C   UNL     1      -5.882   8.531   0.100  0.00  0.00    +0.000 A 
ATOM     18  C   UNL     1      -5.692   7.569   1.075  0.00  0.00    +0.002 A 
ATOM     19  C   UNL     1      -4.552   6.789   1.063  0.00  0.00    +0.024 A 
ENDBRANCH  11  14
BRANCH   1  21
ATOM     20  N   UNL     1      -2.025   5.697  -2.874  0.00  0.00    -0.311 N 
ATOM     21  C   UNL     1      -2.847   5.045  -2.029  0.00  0.00    +0.269 C 
ATOM     22  O   UNL     1      -3.906   4.609  -2.429  0.00  0.00    -0.270 OA
ATOM     23  H   UNL     1      -1.178   6.046  -2.555  0.00  0.00    +0.149 HD
BRANCH  20  24
ATOM     24  C   UNL     1      -2.410   5.880  -4.276  0.00  0.00    +0.104 C 
BRANCH  24  25
ATOM     25  C   UNL     1      -1.308   6.646  -5.012  0.00  0.00    +0.018 C 
BRANCH  25  27
ATOM     26  C   UNL     1      -0.609   7.602  -7.212  0.00  0.00    +0.004 C 
ATOM     27  C   UNL     1      -1.710   6.836  -6.476  0.00  0.00    -0.002 C 
ENDBRANCH  25  27
ENDBRANCH  24  25
ENDBRANCH  20  24
ENDBRANCH   1  21
BRANCH   1  28
ATOM     28  O   UNL     1      -3.462   4.068   0.043  0.00  0.00    -0.360 OA
ATOM     29  H   UNL     1      -3.619   3.216  -0.386  0.00  0.00    +0.213 HD
ENDBRANCH   1  28
TORSDOF 6
