REMARK  Name = ZINC45399640
REMARK  9 active torsions:
REMARK  status: ('A' for Active; 'I' for Inactive)
REMARK    1  A    between atoms: C_3  and  S_28
REMARK    2  A    between atoms: C_6  and  C_7
REMARK    3  A    between atoms: C_7  and  N_8
REMARK    4  A    between atoms: C_9  and  C_11
REMARK    5  A    between atoms: C_11  and  O_12
REMARK    6  A    between atoms: O_12  and  C_13
REMARK    7  A    between atoms: C_13  and  C_15
REMARK    8  A    between atoms: C_17  and  C_21
REMARK    9  A    between atoms: S_28  and  N_31
REMARK                            x       y       z     vdW  Elec       q    Type
REMARK                         _______ _______ _______ _____ _____    ______ ____
ROOT
ATOM      1  N   UNL     1      -1.726  -1.018  -1.368  0.00  0.00    -0.308 N 
ATOM      2  C   UNL     1      -2.867  -1.694  -1.606  0.00  0.00    +0.251 C 
ATOM      3  O   UNL     1      -3.535  -2.103  -0.680  0.00  0.00    -0.272 OA
ATOM      4  H   UNL     1      -1.192  -0.691  -2.108  0.00  0.00    +0.149 HD
ENDROOT
BRANCH   1   5
ATOM      5  C   UNL     1      -1.293  -0.775   0.011  0.00  0.00    +0.139 C 
BRANCH   5  11
ATOM      6  C   UNL     1      -0.017   1.378   0.010  0.00  0.00    +0.007 A 
ATOM      7  C   UNL     1       1.171   2.086   0.002  0.00  0.00    +0.029 A 
ATOM      8  C   UNL     1       2.377   1.411  -0.013  0.00  0.00    +0.105 A 
ATOM      9  C   UNL     1       2.396   0.029  -0.020  0.00  0.00    +0.029 A 
ATOM     10  C   UNL     1       1.208  -0.679  -0.012  0.00  0.00    +0.007 A 
ATOM     11  C   UNL     1       0.002  -0.004   0.002  0.00  0.00    -0.030 A 
BRANCH   8  12
ATOM     12  S   UNL     1       3.891   2.312  -0.024  0.00  0.00    +0.056 S 
ATOM     13  O   UNL     1       4.872   1.453  -0.588  0.00  0.00    -0.153 OA
ATOM     14  O   UNL     1       3.597   3.593  -0.566  0.00  0.00    -0.153 OA
BRANCH  12  15
ATOM     15  N   UNL     1       4.327   2.556   1.555  0.00  0.00    -0.204 NA
ATOM     16  H   UNL     1       3.768   2.215   2.271  0.00  0.00    +0.144 HD
ATOM     17  H   UNL     1       5.142   3.039   1.764  0.00  0.00    +0.144 HD
ENDBRANCH  12  15
ENDBRANCH   8  12
ENDBRANCH   5  11
ENDBRANCH   1   5
BRANCH   2  18
ATOM     18  C   UNL     1      -3.312  -1.944  -3.024  0.00  0.00    +0.328 C 
BRANCH  18  19
ATOM     19  O   UNL     1      -4.540  -2.675  -3.016  0.00  0.00    -0.451 OA
BRANCH  19  20
ATOM     20  C   UNL     1      -5.078  -2.982  -4.213  0.00  0.00    +0.358 C 
ATOM     21  O   UNL     1      -4.519  -2.638  -5.237  0.00  0.00    -0.243 OA
BRANCH  20  22
ATOM     22  C   UNL     1      -6.340  -3.733  -4.282  0.00  0.00    +0.143 A 
ATOM     23  C   UNL     1      -7.009  -4.125  -5.427  0.00  0.00    +0.064 A 
ATOM     24  C   UNL     1      -8.151  -4.809  -4.973  0.00  0.00    +0.093 A 
ATOM     25  N   UNL     1      -8.124  -4.800  -3.657  0.00  0.00    -0.173 NA
ATOM     26  N   UNL     1      -7.081  -4.187  -3.226  0.00  0.00    -0.270 N 
ATOM     27  H   UNL     1      -6.854  -4.062  -2.292  0.00  0.00    +0.189 HD
BRANCH  24  28
ATOM     28  C   UNL     1      -9.199  -5.427  -5.824  0.00  0.00    +0.002 A 
ATOM     29  C   UNL     1      -9.098  -5.365  -7.212  0.00  0.00    +0.011 A 
ATOM     30  C   UNL     1     -10.074  -5.941  -7.999  0.00  0.00    +0.016 A 
ATOM     31  C   UNL     1     -11.152  -6.580  -7.411  0.00  0.00    +0.018 A 
ATOM     32  C   UNL     1     -11.257  -6.644  -6.033  0.00  0.00    +0.016 A 
ATOM     33  C   UNL     1     -10.283  -6.076  -5.237  0.00  0.00    +0.011 A 
ATOM     34 BR   UNL     1     -12.487  -7.367  -8.495  0.00  0.00    -0.050 Br
ENDBRANCH  24  28
ENDBRANCH  20  22
ENDBRANCH  19  20
ENDBRANCH  18  19
ENDBRANCH   2  18
TORSDOF 9
