REMARK  Name = ZINC37497696
REMARK  3 active torsions:
REMARK  status: ('A' for Active; 'I' for Inactive)
REMARK    1  A    between atoms: C_3  and  O_21
REMARK    2  A    between atoms: C_6  and  C_7
REMARK    3  A    between atoms: C_13  and  C_15
REMARK                            x       y       z     vdW  Elec       q    Type
REMARK                         _______ _______ _______ _____ _____    ______ ____
ROOT
ATOM      1  C   UNL     1      -0.621  -1.188   0.141  0.00  0.00    +0.022 C 
ATOM      2  C   UNL     1      -1.023  -1.965   1.397  0.00  0.00    +0.027 C 
ATOM      3  C   UNL     1      -2.468  -2.451   1.251  0.00  0.00    +0.109 C 
ATOM      4  N   UNL     1      -2.585  -3.218   0.003  0.00  0.00    -0.295 N 
ATOM      5  C   UNL     1      -2.142  -2.597  -1.252  0.00  0.00    +0.109 C 
ATOM      6  C   UNL     1      -0.700  -2.109  -1.078  0.00  0.00    +0.027 C 
ATOM      7  C   UNL     1      -3.090  -4.468   0.010  0.00  0.00    +0.282 C 
ATOM      8  O   UNL     1      -3.331  -5.021   1.067  0.00  0.00    -0.267 OA
ENDROOT
BRANCH   1  14
ATOM      9  C   UNL     1       1.041   0.680   0.250  0.00  0.00    +0.007 A 
ATOM     10  C   UNL     1       2.332   1.150   0.392  0.00  0.00    +0.045 A 
ATOM     11  C   UNL     1       3.377   0.257   0.579  0.00  0.00    +0.117 A 
ATOM     12  C   UNL     1       3.122  -1.106   0.625  0.00  0.00    +0.045 A 
ATOM     13  C   UNL     1       1.828  -1.571   0.482  0.00  0.00    +0.007 A 
ATOM     14  C   UNL     1       0.789  -0.678   0.295  0.00  0.00    -0.044 A 
BRANCH  11  15
ATOM     15  O   UNL     1       4.648   0.716   0.718  0.00  0.00    -0.507 OA
ATOM     16  H   UNL     1       4.902   0.899   1.633  0.00  0.00    +0.292 HD
ENDBRANCH  11  15
ENDBRANCH   1  14
BRANCH   7  17
ATOM     17  C   UNL     1      -3.348  -5.161  -1.255  0.00  0.00    +0.191 A 
ATOM     18  C   UNL     1      -3.715  -6.469  -1.393  0.00  0.00    +0.056 A 
ATOM     19  C   UNL     1      -3.854  -6.707  -2.769  0.00  0.00    +0.058 A 
ATOM     20  C   UNL     1      -3.569  -5.546  -3.404  0.00  0.00    +0.171 A 
ATOM     21  O   UNL     1      -3.271  -4.616  -2.488  0.00  0.00    -0.444 OA
ATOM     22 BR   UNL     1      -3.596  -5.280  -5.276  0.00  0.00    -0.008 Br
ENDBRANCH   7  17
TORSDOF 3
