REMARK  Name = ZINC12984686
REMARK  8 active torsions:
REMARK  status: ('A' for Active; 'I' for Inactive)
REMARK    1  A    between atoms: C_1  and  C_2
REMARK    2  A    between atoms: C_2  and  C_4
REMARK    3  A    between atoms: C_2  and  S_17
REMARK    4  A    between atoms: N_6  and  C_7
REMARK    5  A    between atoms: C_10  and  S_13
REMARK    6  A    between atoms: S_13  and  N_16
REMARK    7  A    between atoms: S_17  and  C_18
REMARK    8  A    between atoms: N_22  and  C_23
REMARK                            x       y       z     vdW  Elec       q    Type
REMARK                         _______ _______ _______ _____ _____    ______ ____
ROOT
ATOM      1  C   UNL     1       2.410  -2.734  -0.138  0.00  0.00    +0.230 C 
ATOM      2  O   UNL     1       3.452  -2.114  -0.144  0.00  0.00    -0.274 OA
ATOM      3  N   UNL     1       1.237  -2.079  -0.021  0.00  0.00    -0.285 N 
ATOM      4  H   UNL     1       0.298  -2.645   0.072  0.00  0.00    +0.155 HD
ENDROOT
BRANCH   3   5
ATOM      5  C   UNL     1       1.214  -0.680  -0.019  0.00  0.00    +0.034 A 
ATOM      6  C   UNL     1       2.137   0.032  -0.773  0.00  0.00    +0.025 A 
ATOM      7  C   UNL     1       2.112   1.413  -0.768  0.00  0.00    +0.030 A 
ATOM      8  C   UNL     1       1.169   2.086  -0.013  0.00  0.00    +0.105 A 
ATOM      9  C   UNL     1       0.249   1.380   0.739  0.00  0.00    +0.030 A 
ATOM     10  C   UNL     1       0.269  -0.001   0.738  0.00  0.00    +0.025 A 
BRANCH   8  11
ATOM     11  S   UNL     1       1.141   3.848  -0.009  0.00  0.00    +0.056 S 
ATOM     12  O   UNL     1       0.513   4.241   1.203  0.00  0.00    -0.153 OA
ATOM     13  O   UNL     1       2.449   4.276  -0.363  0.00  0.00    -0.153 OA
BRANCH  11  14
ATOM     14  N   UNL     1       0.139   4.324  -1.239  0.00  0.00    -0.204 NA
ATOM     15  H   UNL     1       0.094   5.423  -1.270  0.00  0.00    +0.144 HD
ATOM     16  H   UNL     1      -0.870   3.921  -1.067  0.00  0.00    +0.144 HD
ENDBRANCH  11  14
ENDBRANCH   8  11
ENDBRANCH   3   5
BRANCH   1  18
ATOM     17  C   UNL     1       2.228  -4.630  -1.725  0.00  0.00    +0.029 C 
ATOM     18  C   UNL     1       2.425  -4.236  -0.260  0.00  0.00    +0.137 C 
BRANCH  18  19
ATOM     19  S   UNL     1       4.015  -4.873   0.327  0.00  0.00    -0.072 S 
BRANCH  19  20
ATOM     20  C   UNL     1       3.709  -6.605   0.219  0.00  0.00    +0.210 A 
ATOM     21  N   UNL     1       2.598  -7.178  -0.189  0.00  0.00    -0.101 NA
ATOM     22  N   UNL     1       2.709  -8.457  -0.144  0.00  0.00    -0.022 NA
ATOM     23  N   UNL     1       3.877  -8.790   0.287  0.00  0.00    -0.043 NA
ATOM     24  N   UNL     1       4.576  -7.596   0.535  0.00  0.00    -0.217 N 
BRANCH  24  25
ATOM     25  C   UNL     1       5.947  -7.453   1.032  0.00  0.00    +0.112 C 
ATOM     26  C   UNL     1       6.915  -8.124   0.055  0.00  0.00    +0.027 C 
ATOM     27  C   UNL     1       8.347  -7.976   0.574  0.00  0.00    +0.002 C 
ATOM     28  C   UNL     1       8.464  -8.642   1.946  0.00  0.00    +0.000 C 
ATOM     29  C   UNL     1       7.496  -7.971   2.923  0.00  0.00    +0.002 C 
ATOM     30  C   UNL     1       6.064  -8.120   2.404  0.00  0.00    +0.027 C 
ENDBRANCH  24  25
ENDBRANCH  19  20
ENDBRANCH  18  19
ENDBRANCH   1  18
TORSDOF 7
