REMARK  Name = ZINC38655522
REMARK  8 active torsions:
REMARK  status: ('A' for Active; 'I' for Inactive)
REMARK    1  A    between atoms: C_1  and  C_2
REMARK    2  A    between atoms: C_5  and  N_8
REMARK    3  A    between atoms: N_8  and  C_9
REMARK    4  A    between atoms: C_12  and  N_29
REMARK    5  A    between atoms: C_19  and  S_25
REMARK    6  A    between atoms: N_29  and  C_30
REMARK    7  A    between atoms: C_30  and  C_31
REMARK    8  A    between atoms: C_30  and  C_32
REMARK                            x       y       z     vdW  Elec       q    Type
REMARK                         _______ _______ _______ _____ _____    ______ ____
ROOT
ATOM      1  C   UNL     1       0.039  -4.780   1.223  0.00  0.00    +0.043 A 
ATOM      2  C   UNL     1      -0.058  -4.007   2.385  0.00  0.00    +0.026 A 
ATOM      3  C   UNL     1      -0.077  -4.598   3.614  0.00  0.00    +0.025 A 
ATOM      4  C   UNL     1      -0.001  -5.989   3.739  0.00  0.00    +0.039 A 
ATOM      5  C   UNL     1       0.096  -6.784   2.593  0.00  0.00    +0.056 A 
ATOM      6  C   UNL     1       0.110  -6.173   1.320  0.00  0.00    +0.056 A 
ATOM      7  C   UNL     1       0.203  -7.007   0.111  0.00  0.00    +0.196 C 
ATOM      8  O   UNL     1       0.470  -6.505  -0.965  0.00  0.00    -0.287 OA
ATOM      9  C   UNL     1      -0.029  -8.464   0.220  0.00  0.00    +0.035 A 
ATOM     10  C   UNL     1      -0.231  -9.236  -0.920  0.00  0.00    +0.042 A 
ATOM     11  C   UNL     1      -0.447 -10.597  -0.799  0.00  0.00    +0.120 A 
ATOM     12  C   UNL     1      -0.465 -11.196   0.448  0.00  0.00    +0.030 A 
ATOM     13  C   UNL     1      -0.267 -10.443   1.592  0.00  0.00    +0.014 A 
ATOM     14  C   UNL     1      -0.048  -9.073   1.488  0.00  0.00    +0.033 A 
ATOM     15  C   UNL     1       0.176  -8.250   2.699  0.00  0.00    +0.196 C 
ATOM     16  O   UNL     1       0.409  -8.778   3.770  0.00  0.00    -0.287 OA
ENDROOT
BRANCH  11  17
ATOM     17  S   UNL     1      -0.702 -11.574  -2.243  0.00  0.00    +0.140 S 
ATOM     18  O   UNL     1      -1.566 -12.679  -1.858  0.00  0.00    -0.140 OA
ATOM     19  O   UNL     1      -1.331 -10.711  -3.231  0.00  0.00    -0.140 OA
ATOM     20  O   UNL     1       0.608 -12.034  -2.678  0.00  0.00    -0.043 OA
ENDBRANCH  11  17
BRANCH   1  21
ATOM     21  N   UNL     1       0.058  -4.167  -0.021  0.00  0.00    -0.314 N 
ATOM     22  H   UNL     1       0.880  -3.777  -0.356  0.00  0.00    +0.152 HD
BRANCH  21  27
ATOM     23  C   UNL     1      -4.669  -3.947  -3.146  0.00  0.00    +0.044 C 
ATOM     24  C   UNL     1      -3.413  -4.006  -2.316  0.00  0.00    -0.050 A 
ATOM     25  C   UNL     1      -2.256  -3.400  -2.771  0.00  0.00    +0.005 A 
ATOM     26  C   UNL     1      -1.103  -3.451  -2.012  0.00  0.00    +0.023 A 
ATOM     27  C   UNL     1      -1.107  -4.113  -0.790  0.00  0.00    +0.031 A 
ATOM     28  C   UNL     1      -2.271  -4.720  -0.336  0.00  0.00    +0.023 A 
ATOM     29  C   UNL     1      -3.421  -4.660  -1.097  0.00  0.00    +0.005 A 
ENDBRANCH  21  27
ENDBRANCH   1  21
BRANCH   4  30
ATOM     30  N   UNL     1      -0.020  -6.577   4.994  0.00  0.00    -0.341 N 
ATOM     31  H   UNL     1       0.093  -7.537   5.082  0.00  0.00    +0.146 HD
BRANCH  30  32
ATOM     32  C   UNL     1      -0.213  -5.750   6.187  0.00  0.00    +0.064 C 
ATOM     33  C   UNL     1      -1.709  -5.537   6.425  0.00  0.00    +0.027 C 
ATOM     34  C   UNL     1       0.401  -6.453   7.399  0.00  0.00    +0.027 C 
ENDBRANCH  30  32
ENDBRANCH   4  30
TORSDOF 5
