REMARK  Name = ZINC65359424
REMARK  11 active torsions:
REMARK  status: ('A' for Active; 'I' for Inactive)
REMARK    1  A    between atoms: C_1  and  C_2
REMARK    2  A    between atoms: N_5  and  C_8
REMARK    3  A    between atoms: C_8  and  C_9
REMARK    4  A    between atoms: C_8  and  C_10
REMARK    5  A    between atoms: C_10  and  N_11
REMARK    6  A    between atoms: N_14  and  C_15
REMARK    7  A    between atoms: C_18  and  S_21
REMARK    8  A    between atoms: S_21  and  N_24
REMARK    9  A    between atoms: N_24  and  C_25
REMARK   10  A    between atoms: N_24  and  O_26
REMARK   11  A    between atoms: O_26  and  C_27
REMARK                            x       y       z     vdW  Elec       q    Type
REMARK                         _______ _______ _______ _____ _____    ______ ____
ROOT
ATOM      1  N   UNL     1       1.952  -3.926   2.404  0.00  0.00    -0.301 N 
ATOM      2  C   UNL     1       2.596  -4.112   3.573  0.00  0.00    +0.304 C 
ATOM      3  O   UNL     1       3.694  -4.635   3.585  0.00  0.00    -0.253 OA
ATOM      4  N   UNL     1       2.024  -3.719   4.728  0.00  0.00    -0.269 N 
ATOM      5  H   UNL     1       1.076  -3.509   2.394  0.00  0.00    +0.150 HD
ATOM      6  H   UNL     1       1.181  -3.239   4.713  0.00  0.00    +0.156 HD
ENDROOT
BRANCH   4   7
ATOM      7  C   UNL     1       2.646  -4.003   5.949  0.00  0.00    +0.035 A 
ATOM      8  C   UNL     1       1.879  -4.309   7.066  0.00  0.00    +0.025 A 
ATOM      9  C   UNL     1       2.496  -4.589   8.269  0.00  0.00    +0.030 A 
ATOM     10  C   UNL     1       3.875  -4.566   8.363  0.00  0.00    +0.108 A 
ATOM     11  C   UNL     1       4.641  -4.261   7.253  0.00  0.00    +0.030 A 
ATOM     12  C   UNL     1       4.031  -3.985   6.045  0.00  0.00    +0.025 A 
BRANCH  10  13
ATOM     13  S   UNL     1       4.658  -4.924   9.900  0.00  0.00    +0.082 S 
ATOM     14  O   UNL     1       5.935  -4.302   9.861  0.00  0.00    -0.151 OA
ATOM     15  O   UNL     1       3.705  -4.643  10.916  0.00  0.00    -0.151 OA
BRANCH  13  16
ATOM     16  N   UNL     1       4.928  -6.557   9.943  0.00  0.00    -0.058 NA
ATOM     17  C   UNL     1       6.225  -7.096   9.527  0.00  0.00    +0.166 C 
BRANCH  16  18
ATOM     18  O   UNL     1       3.905  -7.433  10.383  0.00  0.00    -0.280 OA
ATOM     19  C   UNL     1       3.048  -7.896   9.338  0.00  0.00    +0.223 C 
ENDBRANCH  16  18
ENDBRANCH  13  16
ENDBRANCH  10  13
ENDBRANCH   4   7
BRANCH   1  20
ATOM     20  C   UNL     1       2.574  -4.354   1.148  0.00  0.00    +0.090 C 
BRANCH  20  21
ATOM     21  C   UNL     1       1.700  -3.916  -0.029  0.00  0.00    -0.054 C 
ATOM     22  C   UNL     1       2.405  -4.259  -1.343  0.00  0.00    -0.012 C 
BRANCH  21  27
ATOM     23  C   UNL     1       1.294   1.716  -0.831  0.00  0.00    +0.007 C 
ATOM     24  C   UNL     1       1.578   0.226  -1.026  0.00  0.00    -0.018 C 
ATOM     25  C   UNL     1       2.541  -0.259   0.061  0.00  0.00    -0.016 C 
ATOM     26  C   UNL     1       2.759  -1.766  -0.092  0.00  0.00    -0.078 C 
ATOM     27  N   UNL     1       1.475  -2.466   0.041  0.00  0.00    +0.382 N 
ATOM     28  C   UNL     1       0.572  -2.059  -1.042  0.00  0.00    -0.078 C 
ATOM     29  C   UNL     1       0.270  -0.563  -0.924  0.00  0.00    -0.016 C 
ATOM     30  H   UNL     1       1.058  -2.235   0.931  0.00  0.00    -0.081 HD
ENDBRANCH  21  27
ENDBRANCH  20  21
ENDBRANCH   1  20
TORSDOF 7
