REMARK  Name = ZINC38906205
REMARK  12 active torsions:
REMARK  status: ('A' for Active; 'I' for Inactive)
REMARK    1  A    between atoms: C_1  and  C_2
REMARK    2  A    between atoms: C_5  and  N_8
REMARK    3  A    between atoms: C_9  and  C_30
REMARK    4  A    between atoms: C_13  and  S_14
REMARK    5  A    between atoms: S_14  and  C_15
REMARK    6  A    between atoms: C_15  and  C_16
REMARK    7  A    between atoms: N_18  and  N_19
REMARK    8  A    between atoms: C_20  and  C_21
REMARK    9  A    between atoms: C_33  and  C_36
REMARK   10  A    between atoms: C_36  and  C_37
REMARK   11  A    between atoms: C_36  and  C_38
REMARK   12  A    between atoms: C_36  and  C_39
REMARK                            x       y       z     vdW  Elec       q    Type
REMARK                         _______ _______ _______ _____ _____    ______ ____
ROOT
ATOM      1  N   UNL     1       0.039  -4.193  -0.037  0.00  0.00    -0.254 N 
ATOM      2  C   UNL     1       0.172  -5.053   1.150  0.00  0.00    +0.213 C 
ATOM      3  N   UNL     1       0.158  -6.420   0.601  0.00  0.00    -0.242 N 
ATOM      4  N   UNL     1       0.027  -6.281  -0.787  0.00  0.00    -0.162 NA
ATOM      5  C   UNL     1      -0.044  -5.040  -1.133  0.00  0.00    +0.180 C 
ATOM      6  H   UNL     1       0.227  -7.249   1.099  0.00  0.00    +0.170 HD
ENDROOT
BRANCH   1  11
ATOM      7  C   UNL     1      -0.122   1.476  -0.118  0.00  0.00    +0.044 C 
ATOM      8  C   UNL     1      -0.079  -0.031  -0.097  0.00  0.00    -0.050 A 
ATOM      9  C   UNL     1       1.080  -0.682   0.282  0.00  0.00    +0.005 A 
ATOM     10  C   UNL     1       1.123  -2.063   0.302  0.00  0.00    +0.024 A 
ATOM     11  C   UNL     1      -0.001  -2.796  -0.057  0.00  0.00    +0.038 A 
ATOM     12  C   UNL     1      -1.164  -2.138  -0.436  0.00  0.00    +0.024 A 
ATOM     13  C   UNL     1      -1.201  -0.758  -0.449  0.00  0.00    +0.005 A 
ENDBRANCH   1  11
BRANCH   2  14
ATOM     14  C   UNL     1      -0.991  -4.845   2.086  0.00  0.00    -0.008 A 
ATOM     15  C   UNL     1      -0.777  -4.329   3.350  0.00  0.00    +0.007 A 
ATOM     16  C   UNL     1      -1.843  -4.138   4.209  0.00  0.00    +0.004 A 
ATOM     17  C   UNL     1      -3.124  -4.463   3.803  0.00  0.00    -0.042 A 
ATOM     18  C   UNL     1      -3.339  -4.979   2.538  0.00  0.00    +0.004 A 
ATOM     19  C   UNL     1      -2.273  -5.165   1.678  0.00  0.00    +0.007 A 
BRANCH  17  20
ATOM     20  C   UNL     1      -4.287  -4.256   4.739  0.00  0.00    -0.013 C 
ATOM     21  C   UNL     1      -4.382  -2.775   5.114  0.00  0.00    +0.015 C 
ATOM     22  C   UNL     1      -5.581  -4.692   4.050  0.00  0.00    +0.015 C 
ATOM     23  C   UNL     1      -4.077  -5.090   6.005  0.00  0.00    +0.015 C 
ENDBRANCH  17  20
ENDBRANCH   2  14
BRANCH   5  24
ATOM     24  S   UNL     1      -0.220  -4.489  -2.797  0.00  0.00    -0.079 S 
BRANCH  24  25
ATOM     25  C   UNL     1      -0.272  -6.022  -3.765  0.00  0.00    +0.174 C 
BRANCH  25  26
ATOM     26  C   UNL     1      -0.423  -5.688  -5.227  0.00  0.00    +0.242 C 
ATOM     27  O   UNL     1      -0.488  -4.531  -5.581  0.00  0.00    -0.273 OA
ATOM     28  N   UNL     1      -0.484  -6.677  -6.141  0.00  0.00    -0.206 N 
ATOM     29  H   UNL     1      -0.432  -7.603  -5.857  0.00  0.00    +0.177 HD
BRANCH  28  30
ATOM     30  N   UNL     1      -0.624  -6.367  -7.500  0.00  0.00    -0.188 NA
ATOM     31  C   UNL     1      -0.684  -7.327  -8.387  0.00  0.00    +0.136 C 
BRANCH  31  32
ATOM     32  C   UNL     1      -0.824  -7.017  -9.748  0.00  0.00    +0.000 C 
ATOM     33  C   UNL     1      -0.909  -7.912 -10.811  0.00  0.00    +0.004 A 
ATOM     34  C   UNL     1      -0.884  -9.323 -10.876  0.00  0.00    +0.010 A 
ATOM     35  C   UNL     1      -0.987  -9.944 -12.078  0.00  0.00    +0.001 A 
ATOM     36  C   UNL     1      -1.120  -9.221 -13.267  0.00  0.00    +0.002 A 
ATOM     37  C   UNL     1      -1.151  -7.867 -13.281  0.00  0.00    +0.026 A 
ATOM     38  C   UNL     1      -1.048  -7.145 -12.062  0.00  0.00    +0.043 A 
ATOM     39  N   UNL     1      -1.052  -5.853 -11.811  0.00  0.00    -0.380 N 
ATOM     40  C   UNL     1      -0.922  -5.640 -10.366  0.00  0.00    +0.150 C 
ATOM     41  H   UNL     1      -1.132  -5.152 -12.477  0.00  0.00    +0.160 HD
ENDBRANCH  31  32
ENDBRANCH  28  30
ENDBRANCH  25  26
ENDBRANCH  24  25
ENDBRANCH   5  24
TORSDOF 8
