REMARK  Name = ZINC09885388
REMARK  6 active torsions:
REMARK  status: ('A' for Active; 'I' for Inactive)
REMARK    1  A    between atoms: C_4  and  C_7
REMARK    2  A    between atoms: C_9  and  C_18
REMARK    3  A    between atoms: N_11  and  C_12
REMARK    4  A    between atoms: N_20  and  N_21
REMARK    5  A    between atoms: C_22  and  C_24
REMARK    6  A    between atoms: C_24  and  C_25
REMARK                            x       y       z     vdW  Elec       q    Type
REMARK                         _______ _______ _______ _____ _____    ______ ____
ROOT
ATOM      1  C   UNL     1       1.439   3.447   5.931  0.00  0.00    +0.299 C 
ATOM      2  O   UNL     1       2.414   2.752   6.143  0.00  0.00    -0.265 OA
ATOM      3  N   UNL     1       0.678   3.227   4.841  0.00  0.00    -0.228 N 
ATOM      4  H   UNL     1      -0.100   3.782   4.672  0.00  0.00    +0.173 HD
ENDROOT
BRANCH   1   7
ATOM      5  C   UNL     1       0.078   6.188   7.785  0.00  0.00    +0.164 A 
ATOM      6  N   UNL     1       0.046   5.373   6.750  0.00  0.00    -0.202 NA
ATOM      7  C   UNL     1       1.089   4.534   6.871  0.00  0.00    +0.239 A 
ATOM      8  N   UNL     1       1.748   4.849   7.966  0.00  0.00    -0.139 NA
ATOM      9  N   UNL     1       1.160   5.843   8.537  0.00  0.00    -0.212 N 
BRANCH   5  13
ATOM     10  C   UNL     1      -2.672   9.320   8.611  0.00  0.00    +0.000 A 
ATOM     11  C   UNL     1      -2.393   8.976   7.301  0.00  0.00    +0.001 A 
ATOM     12  C   UNL     1      -1.501   7.960   7.026  0.00  0.00    +0.011 A 
ATOM     13  C   UNL     1      -0.879   7.279   8.073  0.00  0.00    +0.019 A 
ATOM     14  C   UNL     1      -1.169   7.627   9.392  0.00  0.00    +0.011 A 
ATOM     15  C   UNL     1      -2.058   8.649   9.654  0.00  0.00    +0.001 A 
ENDBRANCH   5  13
BRANCH   9  16
ATOM     16  C   UNL     1       1.565   6.463   9.726  0.00  0.00    +0.068 A 
ATOM     17  C   UNL     1       1.583   7.848   9.817  0.00  0.00    +0.028 A 
ATOM     18  C   UNL     1       1.976   8.456  10.993  0.00  0.00    +0.002 A 
ATOM     19  C   UNL     1       2.364   7.687  12.075  0.00  0.00    +0.000 A 
ATOM     20  C   UNL     1       2.353   6.307  11.985  0.00  0.00    +0.002 A 
ATOM     21  C   UNL     1       1.955   5.693  10.814  0.00  0.00    +0.028 A 
ENDBRANCH   9  16
ENDBRANCH   1   7
BRANCH   3  22
ATOM     22  N   UNL     1       1.010   2.198   3.951  0.00  0.00    -0.234 N 
ATOM     23  C   UNL     1       0.249   1.978   2.861  0.00  0.00    +0.231 C 
ATOM     24  O   UNL     1      -0.723   2.671   2.650  0.00  0.00    -0.274 OA
ATOM     25  H   UNL     1       1.788   1.643   4.120  0.00  0.00    +0.173 HD
BRANCH  23  26
ATOM     26  C   UNL     1       0.607   0.870   1.903  0.00  0.00    +0.121 C 
BRANCH  26  27
ATOM     27  C   UNL     1      -0.410   0.836   0.761  0.00  0.00    +0.146 C 
ATOM     28  C   UNL     1      -0.003  -0.205  -0.249  0.00  0.00    +0.231 C 
ATOM     29  O   UNL     1       0.590   0.156  -1.244  0.00  0.00    -0.274 OA
ATOM     30  N   UNL     1      -0.261  -1.501  -0.103  0.00  0.00    -0.284 N 
ATOM     31  C   UNL     1      -1.025  -2.088   0.901  0.00  0.00    +0.047 A 
ATOM     32  C   UNL     1      -0.914  -3.457   1.127  0.00  0.00    +0.024 A 
ATOM     33  C   UNL     1      -1.645  -4.059   2.131  0.00  0.00    +0.002 A 
ATOM     34  C   UNL     1      -2.497  -3.311   2.923  0.00  0.00    +0.001 A 
ATOM     35  C   UNL     1      -2.621  -1.950   2.707  0.00  0.00    +0.016 A 
ATOM     36  C   UNL     1      -1.891  -1.342   1.700  0.00  0.00    +0.030 A 
ATOM     37  S   UNL     1      -2.050   0.394   1.414  0.00  0.00    -0.110 S 
ATOM     38  H   UNL     1       0.122  -2.099  -0.764  0.00  0.00    +0.155 HD
ENDBRANCH  26  27
ENDBRANCH  23  26
ENDBRANCH   3  22
TORSDOF 6
