REMARK  Name = ZINC67129321
REMARK  9 active torsions:
REMARK  status: ('A' for Active; 'I' for Inactive)
REMARK    1  A    between atoms: C_4  and  C_7
REMARK    2  A    between atoms: C_7  and  C_8
REMARK    3  A    between atoms: C_7  and  C_25
REMARK    4  A    between atoms: C_8  and  C_9
REMARK    5  A    between atoms: C_9  and  N_10
REMARK    6  A    between atoms: C_11  and  C_13
REMARK    7  A    between atoms: C_13  and  N_14
REMARK    8  A    between atoms: C_16  and  O_24
REMARK    9  A    between atoms: C_19  and  C_21
REMARK                            x       y       z     vdW  Elec       q    Type
REMARK                         _______ _______ _______ _____ _____    ______ ____
ROOT
ATOM      1  N   UNL     1       4.628  -3.135   2.724  0.00  0.00    -0.317 N 
ATOM      2  C   UNL     1       5.600  -3.979   3.125  0.00  0.00    +0.196 C 
ATOM      3  O   UNL     1       6.603  -4.111   2.455  0.00  0.00    -0.278 OA
ATOM      4  H   UNL     1       3.826  -3.030   3.260  0.00  0.00    +0.149 HD
ENDROOT
BRANCH   1   5
ATOM      5  C   UNL     1       4.784  -2.376   1.481  0.00  0.00    +0.105 C 
BRANCH   5   6
ATOM      6  C   UNL     1       3.549  -1.500   1.261  0.00  0.00    +0.031 C 
BRANCH   6   7
ATOM      7  C   UNL     1       3.711  -0.707  -0.038  0.00  0.00    +0.050 C 
BRANCH   7  11
ATOM      8  C   UNL     1       0.430   1.992  -0.479  0.00  0.00    +0.000 A 
ATOM      9  C   UNL     1       1.727   2.459  -0.578  0.00  0.00    +0.000 A 
ATOM     10  C   UNL     1       2.789   1.586  -0.435  0.00  0.00    +0.004 A 
ATOM     11  C   UNL     1       2.554   0.245  -0.193  0.00  0.00    -0.040 A 
ATOM     12  C   UNL     1       1.256  -0.222  -0.093  0.00  0.00    +0.004 A 
ATOM     13  C   UNL     1       0.195   0.652  -0.237  0.00  0.00    +0.000 A 
ENDBRANCH   7  11
BRANCH   7  14
ATOM     14  C   UNL     1       3.740  -1.658  -1.207  0.00  0.00    -0.040 A 
ATOM     15  C   UNL     1       2.732  -2.591  -1.363  0.00  0.00    +0.004 A 
ATOM     16  C   UNL     1       2.758  -3.463  -2.435  0.00  0.00    +0.000 A 
ATOM     17  C   UNL     1       3.791  -3.401  -3.351  0.00  0.00    +0.000 A 
ATOM     18  C   UNL     1       4.798  -2.467  -3.196  0.00  0.00    +0.000 A 
ATOM     19  C   UNL     1       4.770  -1.592  -2.126  0.00  0.00    +0.004 A 
ENDBRANCH   7  14
ENDBRANCH   6   7
ENDBRANCH   5   6
ENDBRANCH   1   5
BRANCH   2  20
ATOM     20  C   UNL     1       5.440  -4.760   4.403  0.00  0.00    +0.020 C 
BRANCH  20  21
ATOM     21  N   UNL     1       6.625  -5.601   4.615  0.00  0.00    +0.395 N 
ATOM     22  C   UNL     1       7.802  -4.758   4.916  0.00  0.00    -0.045 C 
ATOM     23  C   UNL     1       8.660  -5.526   5.938  0.00  0.00    +0.097 C 
ATOM     24  C   UNL     1       7.882  -6.832   6.217  0.00  0.00    +0.023 C 
ATOM     25  C   UNL     1       6.433  -6.467   5.806  0.00  0.00    +0.022 C 
ATOM     26  H   UNL     1       6.801  -6.167   3.799  0.00  0.00    -0.080 HD
BRANCH  25  27
ATOM     27  C   UNL     1       5.655  -7.706   5.444  0.00  0.00    +0.197 C 
ATOM     28  O   UNL     1       5.282  -7.875   4.302  0.00  0.00    -0.278 OA
ATOM     29  N   UNL     1       5.373  -8.625   6.388  0.00  0.00    -0.331 N 
ATOM     30  H   UNL     1       5.671  -8.489   7.301  0.00  0.00    +0.145 HD
ATOM     31  H   UNL     1       4.872  -9.422   6.155  0.00  0.00    +0.145 HD
ENDBRANCH  25  27
BRANCH  23  32
ATOM     32  O   UNL     1       9.945  -5.820   5.387  0.00  0.00    -0.394 OA
ATOM     33  H   UNL     1      10.529  -6.303   5.987  0.00  0.00    +0.210 HD
ENDBRANCH  23  32
ENDBRANCH  20  21
ENDBRANCH   2  20
TORSDOF 9
