REMARK  Name = ZINC20462802
REMARK  9 active torsions:
REMARK  status: ('A' for Active; 'I' for Inactive)
REMARK    1  A    between atoms: C_1  and  C_2
REMARK    2  A    between atoms: C_2  and  O_3
REMARK    3  A    between atoms: O_3  and  C_4
REMARK    4  A    between atoms: C_4  and  C_6
REMARK    5  A    between atoms: C_6  and  C_7
REMARK    6  A    between atoms: C_13  and  C_15
REMARK    7  A    between atoms: C_15  and  C_16
REMARK    8  A    between atoms: C_16  and  N_17
REMARK    9  A    between atoms: C_21  and  C_23
REMARK                            x       y       z     vdW  Elec       q    Type
REMARK                         _______ _______ _______ _____ _____    ______ ____
ROOT
ATOM      1  C   UNL     1       0.726   0.372  -0.625  0.00  0.00    +0.006 C 
ATOM      2  C   UNL     1       1.788   0.027   0.421  0.00  0.00    +0.023 C 
ATOM      3  C   UNL     1       1.545  -1.393   0.941  0.00  0.00    +0.109 C 
ATOM      4  N   UNL     1       1.502  -2.315  -0.203  0.00  0.00    -0.285 N 
ATOM      5  C   UNL     1       0.579  -2.026  -1.308  0.00  0.00    +0.113 C 
ATOM      6  C   UNL     1       0.833  -0.599  -1.803  0.00  0.00    +0.008 C 
ATOM      7  C   UNL     1       2.295  -3.404  -0.236  0.00  0.00    +0.305 C 
ATOM      8  O   UNL     1       2.390  -4.055  -1.259  0.00  0.00    -0.252 OA
ATOM      9  N   UNL     1       2.982  -3.772   0.864  0.00  0.00    -0.281 N 
ATOM     10  C   UNL     1       2.577  -3.307   2.200  0.00  0.00    +0.137 C 
ATOM     11  C   UNL     1       2.485  -4.532   3.125  0.00  0.00    +0.179 C 
ATOM     12  O   UNL     1       3.709  -5.267   3.053  0.00  0.00    -0.377 OA
ATOM     13  C   UNL     1       3.996  -5.800   1.757  0.00  0.00    +0.179 C 
ATOM     14  C   UNL     1       4.162  -4.645   0.762  0.00  0.00    +0.137 C 
ENDROOT
BRANCH   1  15
ATOM     15  C   UNL     1       0.945   1.802  -1.122  0.00  0.00    +0.124 C 
BRANCH  15  16
ATOM     16  C   UNL     1       0.716   2.768   0.012  0.00  0.00    +0.307 C 
ATOM     17  O   UNL     1       0.410   2.355   1.105  0.00  0.00    -0.251 OA
BRANCH  16  18
ATOM     18  O   UNL     1       0.853   4.088  -0.192  0.00  0.00    -0.465 OA
BRANCH  18  20
ATOM     19  C   UNL     1       0.820   6.416   0.522  0.00  0.00    +0.048 C 
ATOM     20  C   UNL     1       0.618   4.959   0.945  0.00  0.00    +0.229 C 
ENDBRANCH  18  20
ENDBRANCH  16  18
ENDBRANCH  15  16
ENDBRANCH   1  15
BRANCH   6  21
ATOM     21  C   UNL     1       2.234  -0.511  -2.411  0.00  0.00    -0.013 C 
BRANCH  21  22
ATOM     22  C   UNL     1       2.303  -1.388  -3.663  0.00  0.00    -0.077 C 
BRANCH  22  23
ATOM     23  N   UNL     1       3.648  -1.303  -4.247  0.00  0.00    +0.387 N 
ATOM     24  C   UNL     1       3.848  -0.004  -4.938  0.00  0.00    -0.078 C 
ATOM     25  C   UNL     1       5.013  -0.259  -5.918  0.00  0.00    -0.020 C 
ATOM     26  C   UNL     1       5.000  -1.782  -6.168  0.00  0.00    -0.008 C 
ATOM     27  C   UNL     1       3.829  -2.317  -5.317  0.00  0.00    +0.019 C 
ATOM     28  H   UNL     1       4.339  -1.447  -3.403  0.00  0.00    -0.081 HD
BRANCH  27  29
ATOM     29  C   UNL     1       4.182  -3.655  -4.720  0.00  0.00    +0.197 C 
ATOM     30  O   UNL     1       4.279  -3.775  -3.517  0.00  0.00    -0.278 OA
ATOM     31  N   UNL     1       4.389  -4.718  -5.522  0.00  0.00    -0.331 N 
ATOM     32  H   UNL     1       4.646  -5.694  -5.086  0.00  0.00    +0.145 HD
ATOM     33  H   UNL     1       4.301  -4.609  -6.613  0.00  0.00    +0.145 HD
ENDBRANCH  27  29
ENDBRANCH  22  23
ENDBRANCH  21  22
ENDBRANCH   6  21
TORSDOF 8
