REMARK  Name = ZINC03670590
REMARK  7 active torsions:
REMARK  status: ('A' for Active; 'I' for Inactive)
REMARK    1  A    between atoms: C_1  and  C_2
REMARK    2  A    between atoms: C_2  and  C_3
REMARK    3  A    between atoms: C_3  and  C_5
REMARK    4  A    between atoms: C_3  and  N_6
REMARK    5  A    between atoms: C_7  and  C_9
REMARK    6  A    between atoms: C_9  and  O_28
REMARK    7  A    between atoms: N_19  and  C_20
REMARK                            x       y       z     vdW  Elec       q    Type
REMARK                         _______ _______ _______ _____ _____    ______ ____
ROOT
ATOM      1  C   UNL     1      -1.193  -2.190  -0.109  0.00  0.00    +0.247 C 
ATOM      2  C   UNL     1      -2.535  -2.884  -0.090  0.00  0.00    +0.034 A 
ATOM      3  C   UNL     1      -2.634  -4.252  -0.196  0.00  0.00    +0.025 A 
ATOM      4  C   UNL     1      -3.882  -4.854  -0.175  0.00  0.00    +0.018 A 
ATOM      5  C   UNL     1      -5.022  -4.079  -0.049  0.00  0.00    +0.017 A 
ATOM      6  C   UNL     1      -4.924  -2.706   0.056  0.00  0.00    +0.025 A 
ATOM      7  C   UNL     1      -3.676  -2.098   0.036  0.00  0.00    +0.043 A 
ATOM      8  N   UNL     1      -3.556  -0.712   0.141  0.00  0.00    -0.269 N 
ATOM      9  C   UNL     1      -2.376  -0.079   0.132  0.00  0.00    +0.314 C 
ATOM     10  O   UNL     1      -2.366   1.132   0.234  0.00  0.00    -0.252 OA
ATOM     11  N   UNL     1      -1.200  -0.722   0.010  0.00  0.00    -0.214 N 
ATOM     12 BR   UNL     1      -4.027  -6.734  -0.318  0.00  0.00    -0.050 Br
ATOM     13  H   UNL     1      -4.364  -0.182   0.228  0.00  0.00    +0.156 HD
ENDROOT
BRANCH  11  14
ATOM     14  C   UNL     1       0.002  -0.004   0.002  0.00  0.00    +0.041 A 
ATOM     15  C   UNL     1       0.407   0.688   1.136  0.00  0.00    +0.025 A 
ATOM     16  C   UNL     1       1.593   1.395   1.126  0.00  0.00    +0.022 A 
ATOM     17  C   UNL     1       2.378   1.414  -0.014  0.00  0.00    +0.041 A 
ATOM     18  C   UNL     1       1.978   0.725  -1.145  0.00  0.00    +0.022 A 
ATOM     19  C   UNL     1       0.792   0.017  -1.140  0.00  0.00    +0.025 A 
ATOM     20 CL   UNL     1       3.869   2.304  -0.024  0.00  0.00    -0.084 Cl
ENDBRANCH  11  14
BRANCH   1  22
ATOM     21  N   UNL     1      -0.726  -2.500   2.301  0.00  0.00    -0.309 N 
ATOM     22  C   UNL     1      -0.368  -2.744   1.024  0.00  0.00    +0.269 C 
ATOM     23  O   UNL     1       0.619  -3.408   0.788  0.00  0.00    -0.270 OA
ATOM     24  H   UNL     1      -1.515  -1.968   2.490  0.00  0.00    +0.149 HD
BRANCH  21  25
ATOM     25  C   UNL     1       0.076  -3.038   3.402  0.00  0.00    +0.070 C 
ATOM     26  C   UNL     1      -0.369  -4.471   3.705  0.00  0.00    +0.028 C 
BRANCH  25  28
ATOM     27  C   UNL     1       0.441  -0.770   4.385  0.00  0.00    +0.005 C 
ATOM     28  C   UNL     1      -0.119  -2.170   4.647  0.00  0.00    +0.018 C 
ENDBRANCH  25  28
ENDBRANCH  21  25
ENDBRANCH   1  22
BRANCH   1  29
ATOM     29  O   UNL     1      -0.538  -2.530  -1.332  0.00  0.00    -0.360 OA
ATOM     30  H   UNL     1      -0.485  -3.481  -1.499  0.00  0.00    +0.213 HD
ENDBRANCH   1  29
TORSDOF 5
