REMARK  Name = ZINC48441116
REMARK  5 active torsions:
REMARK  status: ('A' for Active; 'I' for Inactive)
REMARK    1  A    between atoms: C_1  and  C_2
REMARK    2  A    between atoms: C_3  and  N_12
REMARK    3  A    between atoms: C_5  and  C_9
REMARK    4  A    between atoms: N_12  and  S_13
REMARK    5  A    between atoms: S_13  and  C_16
REMARK                            x       y       z     vdW  Elec       q    Type
REMARK                         _______ _______ _______ _____ _____    ______ ____
ROOT
ATOM      1  C   UNL     1      -0.018   1.503   0.010  0.00  0.00    +0.049 C 
ATOM      2  C   UNL     1       0.002  -0.004   0.002  0.00  0.00    +0.009 A 
ATOM      3  C   UNL     1       0.006  -0.690  -1.206  0.00  0.00    +0.081 A 
ATOM      4  C   UNL     1       0.025  -2.077  -1.217  0.00  0.00    +0.040 A 
ATOM      5  C   UNL     1       0.040  -2.779  -0.012  0.00  0.00    +0.041 A 
ATOM      6  C   UNL     1       0.036  -2.083   1.197  0.00  0.00    +0.051 A 
ATOM      7  C   UNL     1       0.023  -0.700   1.198  0.00  0.00    +0.129 A 
ATOM      8  F   UNL     1       0.025  -0.028   2.369  0.00  0.00    -0.205 F 
ENDROOT
BRANCH   5   9
ATOM      9  C   UNL     1       0.059  -4.258  -0.016  0.00  0.00    +0.242 C 
ATOM     10  O   UNL     1       0.062  -4.863  -1.071  0.00  0.00    -0.270 OA
ATOM     11  N   UNL     1       0.074  -4.935   1.149  0.00  0.00    -0.325 N 
ATOM     12  H   UNL     1       0.072  -4.452   1.990  0.00  0.00    +0.145 HD
ATOM     13  H   UNL     1       0.087  -5.905   1.146  0.00  0.00    +0.145 HD
ENDBRANCH   5   9
BRANCH   3  14
ATOM     14  N   UNL     1      -0.010   0.017  -2.411  0.00  0.00    -0.097 NA
BRANCH  14  15
ATOM     15  S   UNL     1      -0.006  -0.800  -3.851  0.00  0.00    +0.098 S 
ATOM     16  O   UNL     1       1.248  -1.462  -3.939  0.00  0.00    -0.148 OA
ATOM     17  O   UNL     1      -1.242  -1.497  -3.927  0.00  0.00    -0.148 OA
BRANCH  15  18
ATOM     18  C   UNL     1      -0.029   0.406  -5.135  0.00  0.00    +0.149 A 
ATOM     19  C   UNL     1       1.013   1.001  -5.766  0.00  0.00    +0.038 A 
ATOM     20  C   UNL     1       0.755   1.931  -6.756  0.00  0.00    +0.025 A 
ATOM     21  C   UNL     1      -0.533   2.220  -7.066  0.00  0.00    +0.057 A 
ATOM     22  S   UNL     1      -1.430   1.156  -5.948  0.00  0.00    -0.061 S 
ATOM     23 BR   UNL     1      -1.205   3.430  -8.355  0.00  0.00    -0.043 Br
ENDBRANCH  15  18
ENDBRANCH  14  15
ENDBRANCH   3  14
TORSDOF 4
