REMARK  Name = ZINC49609535
REMARK  11 active torsions:
REMARK  status: ('A' for Active; 'I' for Inactive)
REMARK    1  A    between atoms: C_1  and  C_2
REMARK    2  A    between atoms: C_2  and  C_4
REMARK    3  A    between atoms: C_2  and  N_14
REMARK    4  A    between atoms: C_8  and  S_10
REMARK    5  A    between atoms: S_10  and  N_13
REMARK    6  A    between atoms: N_14  and  C_15
REMARK    7  A    between atoms: C_15  and  C_16
REMARK    8  A    between atoms: N_18  and  C_19
REMARK    9  A    between atoms: C_19  and  C_20
REMARK   10  A    between atoms: C_20  and  S_21
REMARK   11  A    between atoms: S_21  and  C_22
REMARK                            x       y       z     vdW  Elec       q    Type
REMARK                         _______ _______ _______ _____ _____    ______ ____
ROOT
ATOM      1  N   UNL     1       0.690  -0.478  -1.207  0.00  0.00    +0.389 N 
ATOM      2  H   UNL     1       1.608  -0.063  -1.256  0.00  0.00    -0.084 HD
ATOM      3  H   UNL     1       0.776  -1.482  -1.172  0.00  0.00    -0.084 HD
ENDROOT
BRANCH   1   5
ATOM      4  C   UNL     1      -0.019   1.526   0.010  0.00  0.00    -0.009 C 
ATOM      5  C   UNL     1       0.002  -0.004   0.002  0.00  0.00    -0.043 C 
BRANCH   5   6
ATOM      6  C   UNL     1       0.731  -0.503   1.223  0.00  0.00    -0.060 A 
ATOM      7  C   UNL     1       2.113  -0.514   1.247  0.00  0.00    +0.002 A 
ATOM      8  C   UNL     1       2.782  -0.972   2.366  0.00  0.00    +0.002 A 
ATOM      9  C   UNL     1       2.068  -1.419   3.463  0.00  0.00    +0.028 A 
ATOM     10  C   UNL     1       0.686  -1.407   3.439  0.00  0.00    +0.105 A 
ATOM     11  C   UNL     1       0.018  -0.945   2.321  0.00  0.00    +0.030 A 
BRANCH  10  12
ATOM     12  S   UNL     1      -0.223  -1.978   4.837  0.00  0.00    +0.056 S 
ATOM     13  O   UNL     1      -1.500  -2.374   4.356  0.00  0.00    -0.153 OA
ATOM     14  O   UNL     1       0.633  -2.864   5.545  0.00  0.00    -0.153 OA
BRANCH  12  15
ATOM     15  N   UNL     1      -0.474  -0.672   5.824  0.00  0.00    -0.204 NA
ATOM     16  H   UNL     1      -0.133   0.200   5.571  0.00  0.00    +0.144 HD
ATOM     17  H   UNL     1      -0.962  -0.779   6.655  0.00  0.00    +0.144 HD
ENDBRANCH  12  15
ENDBRANCH  10  12
ENDBRANCH   5   6
ENDBRANCH   1   5
BRANCH   1  18
ATOM     18  C   UNL     1      -0.086  -0.093  -2.394  0.00  0.00    +0.016 C 
BRANCH  18  19
ATOM     19  C   UNL     1       0.620  -0.579  -3.634  0.00  0.00    +0.196 C 
ATOM     20  O   UNL     1       1.665  -1.186  -3.538  0.00  0.00    -0.278 OA
ATOM     21  N   UNL     1       0.089  -0.339  -4.849  0.00  0.00    -0.316 N 
ATOM     22  H   UNL     1      -0.748   0.146  -4.925  0.00  0.00    +0.149 HD
BRANCH  21  23
ATOM     23  C   UNL     1       0.774  -0.812  -6.054  0.00  0.00    +0.115 C 
BRANCH  23  24
ATOM     24  C   UNL     1      -0.033  -0.411  -7.290  0.00  0.00    +0.093 C 
BRANCH  24  25
ATOM     25  S   UNL     1       0.816  -0.996  -8.783  0.00  0.00    -0.124 S 
BRANCH  25  26
ATOM     26  C   UNL     1      -0.224  -0.464 -10.101  0.00  0.00    +0.008 A 
ATOM     27  C   UNL     1      -1.390   0.242  -9.827  0.00  0.00    +0.016 A 
ATOM     28  C   UNL     1      -2.203   0.658 -10.863  0.00  0.00    +0.021 A 
ATOM     29  C   UNL     1      -1.859   0.372 -12.173  0.00  0.00    +0.041 A 
ATOM     30  C   UNL     1      -0.699  -0.330 -12.449  0.00  0.00    +0.021 A 
ATOM     31  C   UNL     1       0.122  -0.744 -11.418  0.00  0.00    +0.016 A 
ATOM     32 CL   UNL     1      -2.884   0.896 -13.472  0.00  0.00    -0.084 Cl
ENDBRANCH  25  26
ENDBRANCH  24  25
ENDBRANCH  23  24
ENDBRANCH  21  23
ENDBRANCH  18  19
ENDBRANCH   1  18
TORSDOF 10
