REMARK  Name = ZINC43746308
REMARK  4 active torsions:
REMARK  status: ('A' for Active; 'I' for Inactive)
REMARK    1  A    between atoms: C_1  and  O_2
REMARK    2  A    between atoms: O_2  and  C_3
REMARK    3  A    between atoms: C_7  and  C_9
REMARK    4  A    between atoms: C_9  and  C_11
REMARK                            x       y       z     vdW  Elec       q    Type
REMARK                         _______ _______ _______ _____ _____    ______ ____
ROOT
ATOM      1  C   UNL     1      -3.940  -4.738   0.072  0.00  0.00    +0.066 C 
ATOM      2  C   UNL     1      -4.425  -4.846   1.529  0.00  0.00    -0.055 C 
ATOM      3  C   UNL     1      -5.302  -3.639   1.888  0.00  0.00    -0.016 C 
ATOM      4  C   UNL     1      -6.678  -4.240   2.258  0.00  0.00    -0.020 C 
ATOM      5  C   UNL     1      -6.676  -5.593   1.507  0.00  0.00    -0.076 C 
ATOM      6  N   UNL     1      -5.252  -6.071   1.615  0.00  0.00    +0.395 N 
ATOM      7  C   UNL     1      -4.949  -6.919   0.451  0.00  0.00    +0.060 C 
ATOM      8  C   UNL     1      -3.916  -6.197  -0.409  0.00  0.00    +0.085 C 
ATOM      9  C   UNL     1      -2.544  -6.793  -0.265  0.00  0.00    -0.011 A 
ATOM     10  C   UNL     1      -1.706  -6.993   0.809  0.00  0.00    +0.006 A 
ATOM     11  C   UNL     1      -0.468  -7.580   0.620  0.00  0.00    +0.000 A 
ATOM     12  C   UNL     1      -0.075  -7.965  -0.649  0.00  0.00    +0.002 A 
ATOM     13  C   UNL     1      -0.911  -7.767  -1.727  0.00  0.00    +0.023 A 
ATOM     14  C   UNL     1      -2.160  -7.176  -1.547  0.00  0.00    +0.038 A 
ATOM     15  N   UNL     1      -3.167  -6.872  -2.465  0.00  0.00    -0.285 N 
ATOM     16  C   UNL     1      -4.232  -6.293  -1.877  0.00  0.00    +0.228 C 
ATOM     17  O   UNL     1      -5.249  -5.922  -2.424  0.00  0.00    -0.275 OA
ATOM     18  C   UNL     1      -6.199  -7.215  -0.335  0.00  0.00    -0.025 A 
ATOM     19  C   UNL     1      -7.109  -6.419  -0.995  0.00  0.00    +0.005 A 
ATOM     20  C   UNL     1      -8.187  -6.993  -1.645  0.00  0.00    +0.002 A 
ATOM     21  C   UNL     1      -8.348  -8.367  -1.631  0.00  0.00    +0.022 A 
ATOM     22  C   UNL     1      -7.438  -9.168  -0.972  0.00  0.00    +0.062 A 
ATOM     23  C   UNL     1      -6.349  -8.597  -0.314  0.00  0.00    +0.054 A 
ATOM     24  N   UNL     1      -5.309  -9.185   0.410  0.00  0.00    -0.285 N 
ATOM     25  C   UNL     1      -4.446  -8.271   0.891  0.00  0.00    +0.212 C 
ATOM     26  O   UNL     1      -3.454  -8.493   1.552  0.00  0.00    -0.277 OA
ATOM     27 CL   UNL     1      -7.650 -10.891  -0.962  0.00  0.00    -0.082 Cl
ATOM     28  H   UNL     1      -3.107  -7.056  -3.415  0.00  0.00    +0.155 HD
ATOM     29  H   UNL     1      -5.220 -10.140   0.550  0.00  0.00    +0.155 HD
ATOM     30  H   UNL     1      -5.091  -6.557   2.484  0.00  0.00    -0.079 HD
ENDROOT
BRANCH   1  31
ATOM     31  C   UNL     1      -2.559  -4.138   0.016  0.00  0.00    +0.166 C 
ATOM     32  O   UNL     1      -1.843  -4.170   0.995  0.00  0.00    -0.292 OA
BRANCH  31  37
ATOM     33  C   UNL     1      -0.315  -2.474  -2.493  0.00  0.00    +0.121 A 
ATOM     34  C   UNL     1      -1.179  -2.333  -3.571  0.00  0.00    +0.045 A 
ATOM     35  C   UNL     1      -2.485  -2.778  -3.480  0.00  0.00    +0.004 A 
ATOM     36  C   UNL     1      -2.940  -3.365  -2.317  0.00  0.00    +0.011 A 
ATOM     37  C   UNL     1      -2.078  -3.512  -1.226  0.00  0.00    +0.021 A 
ATOM     38  C   UNL     1      -0.756  -3.067  -1.323  0.00  0.00    +0.057 A 
BRANCH  33  40
ATOM     39  C   UNL     1       1.357  -1.434  -3.826  0.00  0.00    +0.277 C 
ATOM     40  O   UNL     1       0.968  -2.035  -2.589  0.00  0.00    -0.495 OA
ENDBRANCH  33  40
ENDBRANCH  31  37
ENDBRANCH   1  31
TORSDOF 3
