REMARK  Name = ZINC27807004
REMARK  7 active torsions:
REMARK  status: ('A' for Active; 'I' for Inactive)
REMARK    1  A    between atoms: C_1  and  C_2
REMARK    2  A    between atoms: C_2  and  C_4
REMARK    3  A    between atoms: C_2  and  O_10
REMARK    4  A    between atoms: O_10  and  C_11
REMARK    5  A    between atoms: C_11  and  C_13
REMARK    6  A    between atoms: C_16  and  C_19
REMARK    7  A    between atoms: C_19  and  N_20
REMARK                            x       y       z     vdW  Elec       q    Type
REMARK                         _______ _______ _______ _____ _____    ______ ____
ROOT
ATOM      1  C   UNL     1       0.040  -2.773  -0.013  0.00  0.00    +0.059 A 
ATOM      2  C   UNL     1       0.042  -2.078   1.198  0.00  0.00    +0.015 A 
ATOM      3  C   UNL     1       0.023  -0.699   1.198  0.00  0.00    +0.006 A 
ATOM      4  C   UNL     1       0.002  -0.004   0.002  0.00  0.00    -0.030 A 
ATOM      5  C   UNL     1      -0.006  -0.686  -1.202  0.00  0.00    +0.006 A 
ATOM      6  C   UNL     1       0.019  -2.065  -1.217  0.00  0.00    +0.015 A 
ENDROOT
BRANCH   1   7
ATOM      7  C   UNL     1       0.060  -4.250  -0.021  0.00  0.00    +0.340 C 
ATOM      8  O   UNL     1       0.079  -4.863   1.027  0.00  0.00    -0.245 OA
BRANCH   7   9
ATOM      9  O   UNL     1       0.058  -4.918  -1.192  0.00  0.00    -0.449 OA
BRANCH   9  11
ATOM     10  C   UNL     1       1.529  -6.857  -1.114  0.00  0.00    +0.062 C 
ATOM     11  C   UNL     1       0.079  -6.368  -1.124  0.00  0.00    +0.259 C 
BRANCH  11  12
ATOM     12  C   UNL     1      -0.635  -6.937  -2.322  0.00  0.00    +0.261 C 
ATOM     13  O   UNL     1      -1.035  -6.199  -3.197  0.00  0.00    -0.271 OA
ATOM     14  N   UNL     1      -0.830  -8.267  -2.422  0.00  0.00    -0.237 N 
ATOM     15  C   UNL     1      -1.468  -8.776  -3.494  0.00  0.00    +0.303 C 
ATOM     16  O   UNL     1      -1.869  -8.036  -4.371  0.00  0.00    -0.253 OA
ATOM     17  N   UNL     1      -1.663 -10.106  -3.594  0.00  0.00    -0.313 N 
ATOM     18  H   UNL     1      -0.467  -8.937  -1.628  0.00  0.00    +0.159 HD
ATOM     19  H   UNL     1      -2.184 -10.522  -4.468  0.00  0.00    +0.146 HD
ATOM     20  H   UNL     1      -1.300 -10.776  -2.800  0.00  0.00    +0.146 HD
ENDBRANCH  11  12
ENDBRANCH   9  11
ENDBRANCH   7   9
ENDBRANCH   1   7
BRANCH   4  21
ATOM     21  C   UNL     1      -0.018   1.503   0.010  0.00  0.00    +0.152 C 
BRANCH  21  22
ATOM     22  N   UNL     1       1.356   2.010  -0.000  0.00  0.00    -0.230 N 
ATOM     23  C   UNL     1       2.079   2.273   1.104  0.00  0.00    +0.254 C 
ATOM     24  O   UNL     1       1.701   2.129   2.249  0.00  0.00    -0.270 OA
ATOM     25  C   UNL     1       3.410   2.763   0.689  0.00  0.00    +0.049 A 
ATOM     26  C   UNL     1       4.544   3.177   1.370  0.00  0.00    +0.014 A 
ATOM     27  C   UNL     1       5.658   3.594   0.658  0.00  0.00    +0.001 A 
ATOM     28  C   UNL     1       5.645   3.601  -0.724  0.00  0.00    +0.001 A 
ATOM     29  C   UNL     1       4.518   3.190  -1.418  0.00  0.00    +0.014 A 
ATOM     30  C   UNL     1       3.397   2.770  -0.720  0.00  0.00    +0.049 A 
ATOM     31  C   UNL     1       2.060   2.279  -1.115  0.00  0.00    +0.254 C 
ATOM     32  O   UNL     1       1.663   2.142  -2.254  0.00  0.00    -0.270 OA
ENDBRANCH  21  22
ENDBRANCH   4  21
TORSDOF 6
