REMARK  Name = ZINC13640108
REMARK  8 active torsions:
REMARK  status: ('A' for Active; 'I' for Inactive)
REMARK    1  A    between atoms: C_1  and  C_2
REMARK    2  A    between atoms: C_2  and  O_3
REMARK    3  A    between atoms: O_3  and  C_4
REMARK    4  A    between atoms: C_7  and  N_10
REMARK    5  A    between atoms: C_11  and  C_13
REMARK    6  A    between atoms: C_20  and  C_29
REMARK    7  A    between atoms: C_32  and  O_36
REMARK    8  A    between atoms: C_34  and  O_35
REMARK                            x       y       z     vdW  Elec       q    Type
REMARK                         _______ _______ _______ _____ _____    ______ ____
ROOT
ATOM      1  C   UNL     1      -1.561   6.405  -1.800  0.00  0.00    +0.058 A 
ATOM      2  C   UNL     1      -2.952   6.335  -1.764  0.00  0.00    +0.015 A 
ATOM      3  C   UNL     1      -3.574   5.199  -1.293  0.00  0.00    +0.001 A 
ATOM      4  C   UNL     1      -2.813   4.129  -0.851  0.00  0.00    +0.006 A 
ATOM      5  C   UNL     1      -1.437   4.183  -0.877  0.00  0.00    -0.019 A 
ATOM      6  C   UNL     1      -0.778   5.318  -1.358  0.00  0.00    +0.044 A 
ATOM      7  N   UNL     1       0.598   5.439  -1.452  0.00  0.00    -0.336 N 
ATOM      8  C   UNL     1       1.410   4.319  -0.906  0.00  0.00    +0.108 C 
ATOM      9  C   UNL     1       0.681   3.045  -1.280  0.00  0.00    +0.029 C 
ATOM     10  C   UNL     1      -0.606   3.056  -0.398  0.00  0.00    +0.049 C 
ATOM     11  C   UNL     1      -1.073   1.649  -0.476  0.00  0.00    -0.023 C 
ATOM     12  C   UNL     1      -0.018   0.864  -0.668  0.00  0.00    -0.030 C 
ATOM     13  C   UNL     1       1.250   1.713  -0.780  0.00  0.00    +0.033 C 
ATOM     14  H   UNL     1       0.877   5.668  -2.395  0.00  0.00    +0.147 HD
ENDROOT
BRANCH   8  15
ATOM     15  C   UNL     1       1.525   4.424   0.593  0.00  0.00    +0.015 A 
ATOM     16  C   UNL     1       0.589   5.146   1.308  0.00  0.00    +0.012 A 
ATOM     17  C   UNL     1       0.691   5.244   2.682  0.00  0.00    +0.046 A 
ATOM     18  C   UNL     1       1.735   4.616   3.348  0.00  0.00    +0.120 A 
ATOM     19  C   UNL     1       2.675   3.891   2.633  0.00  0.00    +0.091 A 
ATOM     20  C   UNL     1       2.567   3.790   1.254  0.00  0.00    +0.125 A 
BRANCH  20  21
ATOM     21  O   UNL     1       3.484   3.075   0.551  0.00  0.00    -0.506 OA
ATOM     22  H   UNL     1       4.247   3.593   0.258  0.00  0.00    +0.292 HD
ENDBRANCH  20  21
BRANCH  18  23
ATOM     23  O   UNL     1       1.835   4.713   4.700  0.00  0.00    -0.507 OA
ATOM     24  H   UNL     1       1.370   4.014   5.180  0.00  0.00    +0.292 HD
ENDBRANCH  18  23
ENDBRANCH   8  15
BRANCH   1  26
ATOM     25  N   UNL     1      -1.645   8.666  -2.726  0.00  0.00    -0.281 N 
ATOM     26  C   UNL     1      -0.902   7.624  -2.303  0.00  0.00    +0.250 C 
ATOM     27  O   UNL     1       0.312   7.690  -2.336  0.00  0.00    -0.270 OA
ATOM     28  H   UNL     1      -2.611   8.586  -2.771  0.00  0.00    +0.155 HD
BRANCH  25  32
ATOM     29  C   UNL     1       0.206  12.232  -3.837  0.00  0.00    +0.121 A 
ATOM     30  C   UNL     1      -0.952  11.822  -4.481  0.00  0.00    +0.047 A 
ATOM     31  C   UNL     1      -1.566  10.641  -4.114  0.00  0.00    +0.027 A 
ATOM     32  C   UNL     1      -1.023   9.864  -3.099  0.00  0.00    +0.034 A 
ATOM     33  C   UNL     1       0.133  10.278  -2.451  0.00  0.00    +0.027 A 
ATOM     34  C   UNL     1       0.749  11.456  -2.824  0.00  0.00    +0.047 A 
BRANCH  29  35
ATOM     35  O   UNL     1       0.809  13.396  -4.200  0.00  0.00    -0.492 OA
BRANCH  35  37
ATOM     36  C   UNL     1       2.530  15.085  -4.036  0.00  0.00    +0.048 C 
ATOM     37  C   UNL     1       1.998  13.757  -3.494  0.00  0.00    +0.225 C 
ENDBRANCH  35  37
ENDBRANCH  29  35
ENDBRANCH  25  32
ENDBRANCH   1  26
TORSDOF 7
