REMARK  Name = ZINC09128198
REMARK  8 active torsions:
REMARK  status: ('A' for Active; 'I' for Inactive)
REMARK    1  A    between atoms: C_1  and  C_2
REMARK    2  A    between atoms: C_7  and  S_8
REMARK    3  A    between atoms: S_8  and  C_9
REMARK    4  A    between atoms: C_9  and  C_10
REMARK    5  A    between atoms: C_10  and  O_12
REMARK    6  A    between atoms: O_12  and  C_13
REMARK    7  A    between atoms: C_13  and  C_14
REMARK    8  A    between atoms: N_16  and  C_17
REMARK                            x       y       z     vdW  Elec       q    Type
REMARK                         _______ _______ _______ _____ _____    ______ ____
ROOT
ATOM      1  C   UNL     1       0.107  -1.705   8.813  0.00  0.00    +0.255 C 
ATOM      2  O   UNL     1       0.111  -2.885   8.531  0.00  0.00    -0.272 OA
ATOM      3  N   UNL     1       0.116  -1.321  10.105  0.00  0.00    -0.283 N 
ATOM      4  H   UNL     1       0.180  -0.379  10.330  0.00  0.00    +0.155 HD
ENDROOT
BRANCH   3   5
ATOM      5  C   UNL     1       0.033  -2.280  11.122  0.00  0.00    +0.036 A 
ATOM      6  C   UNL     1      -0.663  -1.994  12.291  0.00  0.00    +0.025 A 
ATOM      7  C   UNL     1      -0.748  -2.935  13.297  0.00  0.00    +0.029 A 
ATOM      8  C   UNL     1      -0.139  -4.171  13.142  0.00  0.00    +0.067 A 
ATOM      9  C   UNL     1       0.561  -4.462  11.969  0.00  0.00    +0.069 A 
ATOM     10  C   UNL     1       0.640  -3.516  10.958  0.00  0.00    +0.051 A 
ATOM     11  N   UNL     1       1.053  -5.758  12.104  0.00  0.00    -0.306 N 
ATOM     12  H   UNL     1       1.581  -6.236  11.446  0.00  0.00    +0.170 HD
ATOM     13  C   UNL     1       0.672  -6.234  13.304  0.00  0.00    +0.325 A 
ATOM     14  O   UNL     1       0.938  -7.340  13.736  0.00  0.00    -0.247 OA
ATOM     15  N   UNL     1      -0.049  -5.301  13.954  0.00  0.00    -0.306 N 
ATOM     16  H   UNL     1      -0.439  -5.397  14.838  0.00  0.00    +0.170 HD
ENDBRANCH   3   5
BRANCH   1  17
ATOM     17  C   UNL     1       0.091  -0.669   7.719  0.00  0.00    +0.328 C 
BRANCH  17  18
ATOM     18  O   UNL     1       0.084  -1.320   6.447  0.00  0.00    -0.455 OA
BRANCH  18  19
ATOM     19  C   UNL     1       0.070  -0.533   5.359  0.00  0.00    +0.318 C 
ATOM     20  O   UNL     1       0.064   0.668   5.483  0.00  0.00    -0.250 OA
BRANCH  19  21
ATOM     21  C   UNL     1       0.061  -1.149   3.984  0.00  0.00    +0.194 C 
BRANCH  21  22
ATOM     22  S   UNL     1       0.042   0.165   2.733  0.00  0.00    -0.114 S 
BRANCH  22  29
ATOM     23  C   UNL     1       0.011   1.504   0.010  0.00  0.00    +0.045 C 
ATOM     24  C   UNL     1       0.019  -0.003   0.002  0.00  0.00    -0.036 A 
ATOM     25  C   UNL     1       0.018  -0.687  -1.197  0.00  0.00    +0.019 A 
ATOM     26  C   UNL     1       0.026  -2.071  -1.206  0.00  0.00    +0.018 A 
ATOM     27  C   UNL     1       0.035  -2.773  -0.013  0.00  0.00    +0.016 A 
ATOM     28  C   UNL     1       0.035  -2.095   1.189  0.00  0.00    +0.016 A 
ATOM     29  C   UNL     1       0.034  -0.705   1.201  0.00  0.00    +0.011 A 
ATOM     30 BR   UNL     1       0.025  -3.004  -2.850  0.00  0.00    -0.050 Br
ENDBRANCH  22  29
ENDBRANCH  21  22
ENDBRANCH  19  21
ENDBRANCH  18  19
ENDBRANCH  17  18
ENDBRANCH   1  17
TORSDOF 7
