REMARK  Name = ZINC02622146
REMARK  8 active torsions:
REMARK  status: ('A' for Active; 'I' for Inactive)
REMARK    1  A    between atoms: C_4  and  C_7
REMARK    2  A    between atoms: C_7  and  N_8
REMARK    3  A    between atoms: N_8  and  C_9
REMARK    4  A    between atoms: N_8  and  S_16
REMARK    5  A    between atoms: C_9  and  C_10
REMARK    6  A    between atoms: S_16  and  C_19
REMARK    7  A    between atoms: N_23  and  S_24
REMARK    8  A    between atoms: S_24  and  C_27
REMARK                            x       y       z     vdW  Elec       q    Type
REMARK                         _______ _______ _______ _____ _____    ______ ____
ROOT
ATOM      1  S   UNL     1       1.087  -2.355   0.005  0.00  0.00    +0.063 S 
ATOM      2  O   UNL     1       2.232  -2.971   0.578  0.00  0.00    -0.153 OA
ATOM      3  O   UNL     1      -0.212  -2.491   0.565  0.00  0.00    -0.153 OA
ENDROOT
BRANCH   1   4
ATOM      4  C   UNL     1       1.427  -0.627  -0.063  0.00  0.00    +0.121 A 
ATOM      5  C   UNL     1       2.748  -0.182  -0.236  0.00  0.00    +0.033 A 
ATOM      6  C   UNL     1       3.007   1.151  -0.288  0.00  0.00    +0.050 A 
ATOM      7  C   UNL     1       1.938   2.069  -0.168  0.00  0.00    +0.153 A 
ATOM      8  N   UNL     1       2.168   3.365  -0.216  0.00  0.00    -0.110 NA
ATOM      9  N   UNL     1       0.657   1.601  -0.000  0.00  0.00    -0.343 N 
ATOM     10  H   UNL     1      -0.080   2.227   0.078  0.00  0.00    +0.167 HD
ATOM     11  C   UNL     1       0.416   0.260   0.050  0.00  0.00    +0.113 A 
BRANCH   8  12
ATOM     12  S   UNL     1       0.912   4.435  -0.076  0.00  0.00    +0.107 S 
ATOM     13  O   UNL     1       0.097   4.258  -1.226  0.00  0.00    -0.146 OA
ATOM     14  O   UNL     1       0.406   4.296   1.245  0.00  0.00    -0.146 OA
BRANCH  12  15
ATOM     15  C   UNL     1       1.594   6.056  -0.186  0.00  0.00    +0.151 A 
ATOM     16  C   UNL     1       1.798   6.823  -1.284  0.00  0.00    +0.038 A 
ATOM     17  C   UNL     1       2.350   8.082  -1.130  0.00  0.00    +0.030 A 
ATOM     18  C   UNL     1       2.680   8.506   0.115  0.00  0.00    +0.080 A 
ATOM     19  S   UNL     1       2.201   7.111   1.120  0.00  0.00    -0.056 S 
ATOM     20 CL   UNL     1       3.384  10.016   0.604  0.00  0.00    -0.076 Cl
ENDBRANCH  12  15
ENDBRANCH   8  12
ENDBRANCH   1   4
BRANCH   1  21
ATOM     21  N   UNL     1       0.989  -2.897  -1.556  0.00  0.00    -0.168 NA
BRANCH  21  22
ATOM     22  C   UNL     1       2.208  -3.248  -2.288  0.00  0.00    +0.145 C 
BRANCH  22  26
ATOM     23  C   UNL     1       2.910  -7.449  -1.952  0.00  0.00    +0.000 A 
ATOM     24  C   UNL     1       2.149  -6.956  -2.996  0.00  0.00    +0.000 A 
ATOM     25  C   UNL     1       1.922  -5.597  -3.104  0.00  0.00    +0.005 A 
ATOM     26  C   UNL     1       2.456  -4.730  -2.169  0.00  0.00    -0.032 A 
ATOM     27  C   UNL     1       3.221  -5.222  -1.129  0.00  0.00    +0.005 A 
ATOM     28  C   UNL     1       3.444  -6.582  -1.017  0.00  0.00    +0.000 A 
ENDBRANCH  22  26
ENDBRANCH  21  22
BRANCH  21  29
ATOM     29  C   UNL     1      -0.318  -3.025  -2.207  0.00  0.00    +0.145 C 
BRANCH  29  30
ATOM     30  C   UNL     1      -0.586  -1.799  -3.042  0.00  0.00    -0.032 A 
ATOM     31  C   UNL     1      -1.283  -0.734  -2.503  0.00  0.00    +0.005 A 
ATOM     32  C   UNL     1      -1.524   0.392  -3.268  0.00  0.00    +0.000 A 
ATOM     33  C   UNL     1      -1.077   0.449  -4.575  0.00  0.00    +0.000 A 
ATOM     34  C   UNL     1      -0.384  -0.619  -5.115  0.00  0.00    +0.000 A 
ATOM     35  C   UNL     1      -0.138  -1.742  -4.349  0.00  0.00    +0.005 A 
ENDBRANCH  29  30
ENDBRANCH  21  29
ENDBRANCH   1  21
TORSDOF 8
