REMARK  Name = ZINC09465739
REMARK  5 active torsions:
REMARK  status: ('A' for Active; 'I' for Inactive)
REMARK    1  A    between atoms: C_4  and  C_7
REMARK    2  A    between atoms: C_7  and  C_29
REMARK    3  A    between atoms: N_10  and  C_14
REMARK    4  A    between atoms: C_14  and  N_60
REMARK    5  A    between atoms: C_20  and  C_22
REMARK                            x       y       z     vdW  Elec       q    Type
REMARK                         _______ _______ _______ _____ _____    ______ ____
ROOT
ATOM      1  C   UNL     1       2.164   3.320   4.093  0.00  0.00    +0.164 C 
ATOM      2  C   UNL     1       1.048   2.726   3.256  0.00  0.00    +0.254 C 
ATOM      3  O   UNL     1       0.443   1.697   3.467  0.00  0.00    -0.272 OA
ATOM      4  N   UNL     1       0.871   3.579   2.228  0.00  0.00    -0.241 N 
ATOM      5  C   UNL     1       1.706   4.621   2.301  0.00  0.00    +0.308 C 
ATOM      6  O   UNL     1       1.732   5.525   1.490  0.00  0.00    -0.252 OA
ATOM      7  N   UNL     1       2.514   4.558   3.375  0.00  0.00    -0.278 N 
ATOM      8  H   UNL     1       3.194   5.202   3.628  0.00  0.00    +0.152 HD
ENDROOT
BRANCH   1  12
ATOM      9  C   UNL     1       5.514   0.674   4.246  0.00  0.00    +0.000 A 
ATOM     10  C   UNL     1       4.230   0.163   4.250  0.00  0.00    +0.000 A 
ATOM     11  C   UNL     1       3.146   1.020   4.200  0.00  0.00    +0.006 A 
ATOM     12  C   UNL     1       3.346   2.386   4.147  0.00  0.00    -0.011 A 
ATOM     13  C   UNL     1       4.631   2.897   4.138  0.00  0.00    +0.006 A 
ATOM     14  C   UNL     1       5.715   2.041   4.192  0.00  0.00    +0.000 A 
ENDBRANCH   1  12
BRANCH   1  15
ATOM     15  C   UNL     1       1.674   3.633   5.483  0.00  0.00    -0.011 A 
ATOM     16  C   UNL     1       1.707   2.659   6.463  0.00  0.00    +0.006 A 
ATOM     17  C   UNL     1       1.261   2.947   7.740  0.00  0.00    +0.000 A 
ATOM     18  C   UNL     1       0.774   4.207   8.033  0.00  0.00    +0.000 A 
ATOM     19  C   UNL     1       0.736   5.180   7.052  0.00  0.00    +0.000 A 
ATOM     20  C   UNL     1       1.186   4.892   5.776  0.00  0.00    +0.006 A 
ENDBRANCH   1  15
BRANCH   4  21
ATOM     21  C   UNL     1      -0.118   3.390   1.163  0.00  0.00    +0.043 C 
BRANCH  21  29
ATOM     22  C   UNL     1       0.498   1.191   0.359  0.00  0.00    -0.057 C 
ATOM     23  C   UNL     1       1.291   0.456  -0.727  0.00  0.00    +0.089 C 
ATOM     24  N   UNL     1       0.739   0.819  -2.041  0.00  0.00    -0.301 N 
ATOM     25  C   UNL     1       0.573   2.246  -2.356  0.00  0.00    +0.089 C 
ATOM     26  C   UNL     1      -0.196   2.911  -1.209  0.00  0.00    -0.057 C 
ATOM     27  C   UNL     1       0.395  -0.131  -2.933  0.00  0.00    +0.248 C 
ATOM     28  O   UNL     1       0.606  -1.302  -2.686  0.00  0.00    -0.270 OA
ATOM     29  N   UNL     1       0.517   2.641   0.060  0.00  0.00    +0.392 N 
ATOM     30  H   UNL     1       1.492   2.948  -0.034  0.00  0.00    -0.079 HD
BRANCH  27  31
ATOM     31  C   UNL     1      -0.239   0.252  -4.212  0.00  0.00    +0.055 A 
ATOM     32  C   UNL     1       0.353   1.219  -5.027  0.00  0.00    +0.014 A 
ATOM     33  C   UNL     1      -0.241   1.567  -6.222  0.00  0.00    +0.001 A 
ATOM     34  C   UNL     1      -1.427   0.969  -6.610  0.00  0.00    +0.001 A 
ATOM     35  C   UNL     1      -2.023   0.015  -5.806  0.00  0.00    +0.021 A 
ATOM     36  C   UNL     1      -1.437  -0.348  -4.609  0.00  0.00    +0.053 A 
ATOM     37 CL   UNL     1      -2.186  -1.546  -3.600  0.00  0.00    -0.083 Cl
ENDBRANCH  27  31
ENDBRANCH  21  29
ENDBRANCH   4  21
TORSDOF 5
