REMARK  Name = ZINC15957299
REMARK  7 active torsions:
REMARK  status: ('A' for Active; 'I' for Inactive)
REMARK    1  A    between atoms: C_1  and  O_2
REMARK    2  A    between atoms: O_2  and  C_3
REMARK    3  A    between atoms: C_6  and  C_9
REMARK    4  A    between atoms: C_9  and  N_10
REMARK    5  A    between atoms: C_15  and  C_33
REMARK    6  A    between atoms: C_33  and  C_34
REMARK    7  A    between atoms: C_34  and  C_35
REMARK                            x       y       z     vdW  Elec       q    Type
REMARK                         _______ _______ _______ _____ _____    ______ ____
ROOT
ATOM      1  N   UNL     1       3.923  -2.713  -4.080  0.00  0.00    -0.237 N 
ATOM      2  C   UNL     1       4.865  -1.806  -4.362  0.00  0.00    +0.227 C 
ATOM      3  O   UNL     1       4.667  -0.730  -4.883  0.00  0.00    -0.275 OA
ATOM      4  C   UNL     1       6.214  -2.333  -3.931  0.00  0.00    +0.107 C 
ATOM      5  C   UNL     1       6.739  -1.487  -2.752  0.00  0.00    +0.068 C 
ATOM      6  N   UNL     1       6.161  -2.123  -1.538  0.00  0.00    -0.295 NA
ATOM      7  C   UNL     1       6.224  -3.568  -1.824  0.00  0.00    +0.136 C 
ATOM      8  C   UNL     1       5.880  -3.725  -3.326  0.00  0.00    +0.122 C 
ATOM      9  C   UNL     1       4.381  -3.826  -3.494  0.00  0.00    +0.229 C 
ATOM     10  O   UNL     1       3.700  -4.769  -3.153  0.00  0.00    -0.275 OA
ATOM     11  C   UNL     1       5.278  -4.345  -0.954  0.00  0.00    +0.005 A 
ATOM     12  C   UNL     1       3.913  -4.314  -0.772  0.00  0.00    +0.008 A 
ATOM     13  C   UNL     1       3.314  -5.176   0.129  0.00  0.00    +0.002 A 
ATOM     14  C   UNL     1       4.088  -6.070   0.846  0.00  0.00    +0.022 A 
ATOM     15  C   UNL     1       5.456  -6.106   0.666  0.00  0.00    +0.062 A 
ATOM     16  C   UNL     1       6.067  -5.241  -0.239  0.00  0.00    +0.057 A 
ATOM     17  N   UNL     1       7.411  -5.090  -0.593  0.00  0.00    -0.282 N 
ATOM     18  C   UNL     1       7.587  -4.128  -1.519  0.00  0.00    +0.243 C 
ATOM     19  O   UNL     1       8.639  -3.780  -2.011  0.00  0.00    -0.273 OA
ATOM     20 CL   UNL     1       6.418  -7.233   1.572  0.00  0.00    -0.082 Cl
ATOM     21  H   UNL     1       6.701  -1.893  -0.717  0.00  0.00    +0.123 HD
ATOM     22  H   UNL     1       8.133  -5.616  -0.214  0.00  0.00    +0.155 HD
ENDROOT
BRANCH   1  23
ATOM     23  C   UNL     1       2.505  -2.503  -4.381  0.00  0.00    +0.151 C 
BRANCH  23  27
ATOM     24  C   UNL     1       0.606  -0.607  -1.056  0.00  0.00    +0.120 A 
ATOM     25  C   UNL     1       1.173   0.161  -2.062  0.00  0.00    +0.046 A 
ATOM     26  C   UNL     1       1.786  -0.455  -3.136  0.00  0.00    +0.009 A 
ATOM     27  C   UNL     1       1.835  -1.835  -3.209  0.00  0.00    -0.029 A 
ATOM     28  C   UNL     1       1.270  -2.602  -2.207  0.00  0.00    +0.009 A 
ATOM     29  C   UNL     1       0.661  -1.992  -1.128  0.00  0.00    +0.046 A 
BRANCH  24  31
ATOM     30  C   UNL     1      -0.017   1.425   0.010  0.00  0.00    +0.277 C 
ATOM     31  O   UNL     1       0.002  -0.004   0.002  0.00  0.00    -0.495 OA
ENDBRANCH  24  31
ENDBRANCH  23  27
ENDBRANCH   1  23
BRANCH   5  32
ATOM     32  C   UNL     1       6.256  -0.040  -2.878  0.00  0.00    +0.028 C 
BRANCH  32  33
ATOM     33  C   UNL     1       6.887   0.807  -1.771  0.00  0.00    +0.097 C 
BRANCH  33  34
ATOM     34  C   UNL     1       6.412   2.231  -1.895  0.00  0.00    +0.211 C 
ATOM     35  O   UNL     1       5.644   2.539  -2.782  0.00  0.00    -0.276 OA
ATOM     36  N   UNL     1       6.840   3.163  -1.021  0.00  0.00    -0.329 N 
ATOM     37  H   UNL     1       7.454   2.917  -0.312  0.00  0.00    +0.145 HD
ATOM     38  H   UNL     1       6.534   4.080  -1.101  0.00  0.00    +0.145 HD
ENDBRANCH  33  34
ENDBRANCH  32  33
ENDBRANCH   5  32
TORSDOF 6
