REMARK  Name = ZINC35322501
REMARK  4 active torsions:
REMARK  status: ('A' for Active; 'I' for Inactive)
REMARK    1  A    between atoms: C_6  and  N_7
REMARK    2  A    between atoms: N_11  and  C_12
REMARK    3  A    between atoms: C_12  and  C_13
REMARK    4  A    between atoms: N_15  and  C_16
REMARK                            x       y       z     vdW  Elec       q    Type
REMARK                         _______ _______ _______ _____ _____    ______ ____
ROOT
ATOM      1  C   UNL     1      -0.017   1.385   0.010  0.00  0.00    +0.024 A 
ATOM      2  C   UNL     1       1.165   2.096   0.002  0.00  0.00    +0.025 A 
ATOM      3  C   UNL     1       2.386   1.427  -0.013  0.00  0.00    +0.041 A 
ATOM      4  C   UNL     1       2.396   0.038  -0.021  0.00  0.00    -0.015 A 
ATOM      5  C   UNL     1       1.219  -0.676  -0.013  0.00  0.00    +0.028 A 
ATOM      6  C   UNL     1       0.002  -0.004   0.002  0.00  0.00    +0.025 A 
ATOM      7  C   UNL     1       3.849  -0.378  -0.038  0.00  0.00    +0.133 C 
ATOM      8  C   UNL     1       4.608   0.932  -0.038  0.00  0.00    +0.225 C 
ATOM      9  O   UNL     1       5.813   1.066  -0.049  0.00  0.00    -0.275 OA
ATOM     10  N   UNL     1       3.695   1.918  -0.024  0.00  0.00    -0.262 N 
ENDROOT
BRANCH   6  11
ATOM     11  N   UNL     1      -1.198  -0.723   0.010  0.00  0.00    -0.358 N 
ATOM     12  H   UNL     1      -2.046  -0.252   0.020  0.00  0.00    +0.142 HD
ATOM     13  H   UNL     1      -1.182  -1.693   0.004  0.00  0.00    +0.142 HD
ENDBRANCH   6  11
BRANCH  10  14
ATOM     14  C   UNL     1       4.033   3.344  -0.021  0.00  0.00    +0.209 C 
BRANCH  14  15
ATOM     15  C   UNL     1       4.163   3.826   1.401  0.00  0.00    +0.231 C 
ATOM     16  O   UNL     1       3.990   3.055   2.321  0.00  0.00    -0.274 OA
ATOM     17  N   UNL     1       4.471   5.114   1.651  0.00  0.00    -0.311 N 
ATOM     18  H   UNL     1       4.610   5.731   0.915  0.00  0.00    +0.149 HD
BRANCH  17  19
ATOM     19  C   UNL     1       4.597   5.583   3.033  0.00  0.00    +0.073 C 
ATOM     20  C   UNL     1       3.222   6.036   3.564  0.00  0.00    +0.022 C 
ATOM     21  C   UNL     1       3.543   7.267   4.448  0.00  0.00    +0.002 C 
ATOM     22  C   UNL     1       4.670   7.973   3.654  0.00  0.00    +0.002 C 
ATOM     23  C   UNL     1       5.518   6.814   3.090  0.00  0.00    +0.022 C 
ENDBRANCH  17  19
ENDBRANCH  14  15
ENDBRANCH  10  14
TORSDOF 4
