REMARK  Name = ZINC12368218
REMARK  11 active torsions:
REMARK  status: ('A' for Active; 'I' for Inactive)
REMARK    1  A    between atoms: C_1  and  O_2
REMARK    2  A    between atoms: O_2  and  C_3
REMARK    3  A    between atoms: C_3  and  C_5
REMARK    4  A    between atoms: C_5  and  C_7
REMARK    5  A    between atoms: C_5  and  N_17
REMARK    6  A    between atoms: C_7  and  C_8
REMARK    7  A    between atoms: N_17  and  S_18
REMARK    8  A    between atoms: S_18  and  C_21
REMARK    9  A    between atoms: C_24  and  C_26
REMARK   10  A    between atoms: C_26  and  N_27
REMARK   11  A    between atoms: C_28  and  C_30
REMARK                            x       y       z     vdW  Elec       q    Type
REMARK                         _______ _______ _______ _____ _____    ______ ____
ROOT
ATOM      1  S   UNL     1      -3.410  -2.927  -1.410  0.00  0.00    +0.065 S 
ATOM      2  O   UNL     1      -4.728  -3.337  -1.069  0.00  0.00    -0.153 OA
ATOM      3  O   UNL     1      -3.154  -1.843  -2.292  0.00  0.00    -0.153 OA
ENDROOT
BRANCH   1   4
ATOM      4  C   UNL     1      -2.606  -4.337  -2.096  0.00  0.00    +0.143 A 
ATOM      5  C   UNL     1      -2.885  -5.651  -1.916  0.00  0.00    +0.037 A 
ATOM      6  C   UNL     1      -2.111  -6.595  -2.563  0.00  0.00    +0.015 A 
ATOM      7  C   UNL     1      -1.096  -6.180  -3.360  0.00  0.00    +0.009 A 
ATOM      8  S   UNL     1      -1.216  -4.404  -3.215  0.00  0.00    -0.072 S 
BRANCH   7   9
ATOM      9  C   UNL     1      -0.122  -7.002  -4.163  0.00  0.00    +0.147 C 
BRANCH   9  10
ATOM     10  N   UNL     1      -0.667  -7.234  -5.503  0.00  0.00    -0.307 N 
ATOM     11  C   UNL     1       0.035  -7.951  -6.402  0.00  0.00    +0.244 C 
ATOM     12  O   UNL     1       1.122  -8.406  -6.101  0.00  0.00    -0.270 OA
ATOM     13  H   UNL     1      -1.534  -6.872  -5.743  0.00  0.00    +0.149 HD
BRANCH  11  14
ATOM     14  C   UNL     1      -0.515  -8.185  -7.754  0.00  0.00    +0.037 A 
ATOM     15  C   UNL     1      -1.760  -7.660  -8.104  0.00  0.00    +0.013 A 
ATOM     16  C   UNL     1      -2.268  -7.882  -9.368  0.00  0.00    +0.001 A 
ATOM     17  C   UNL     1      -1.546  -8.624 -10.287  0.00  0.00    +0.000 A 
ATOM     18  C   UNL     1      -0.312  -9.147  -9.945  0.00  0.00    +0.001 A 
ATOM     19  C   UNL     1       0.210  -8.928  -8.687  0.00  0.00    +0.013 A 
ENDBRANCH  11  14
ENDBRANCH   9  10
ENDBRANCH   7   9
ENDBRANCH   1   4
BRANCH   1  20
ATOM     20  N   UNL     1      -2.643  -2.570   0.013  0.00  0.00    -0.175 NA
ATOM     21  H   UNL     1      -3.120  -2.648   0.855  0.00  0.00    +0.149 HD
BRANCH  20  22
ATOM     22  C   UNL     1      -1.244  -2.135   0.003  0.00  0.00    +0.189 C 
BRANCH  22  23
ATOM     23  C   UNL     1      -1.185  -0.630   0.010  0.00  0.00    +0.326 C 
ATOM     24  O   UNL     1      -2.208   0.015   0.023  0.00  0.00    -0.249 OA
BRANCH  23  26
ATOM     25  C   UNL     1      -0.017   1.425   0.010  0.00  0.00    +0.280 C 
ATOM     26  O   UNL     1       0.002  -0.004   0.002  0.00  0.00    -0.467 OA
ENDBRANCH  23  26
ENDBRANCH  22  23
BRANCH  22  27
ATOM     27  C   UNL     1      -0.531  -2.680   1.242  0.00  0.00    +0.069 C 
BRANCH  27  28
ATOM     28  C   UNL     1      -0.482  -4.184   1.173  0.00  0.00    -0.020 A 
ATOM     29  C   UNL     1       0.524  -4.992   0.479  0.00  0.00    +0.003 A 
ATOM     30  C   UNL     1       1.659  -4.691  -0.275  0.00  0.00    +0.010 A 
ATOM     31  C   UNL     1       2.411  -5.702  -0.803  0.00  0.00    +0.001 A 
ATOM     32  C   UNL     1       2.055  -7.028  -0.596  0.00  0.00    +0.002 A 
ATOM     33  C   UNL     1       0.938  -7.348   0.145  0.00  0.00    +0.026 A 
ATOM     34  C   UNL     1       0.159  -6.335   0.692  0.00  0.00    +0.047 A 
ATOM     35  N   UNL     1      -0.985  -6.327   1.459  0.00  0.00    -0.360 N 
ATOM     36  C   UNL     1      -1.348  -5.038   1.741  0.00  0.00    +0.087 A 
ATOM     37  H   UNL     1      -1.460  -7.118   1.759  0.00  0.00    +0.165 HD
ENDBRANCH  27  28
ENDBRANCH  22  27
ENDBRANCH  20  22
ENDBRANCH   1  20
TORSDOF 10
