REMARK  Name = ZINC36217495
REMARK  14 active torsions:
REMARK  status: ('A' for Active; 'I' for Inactive)
REMARK    1  A    between atoms: C_1  and  C_2
REMARK    2  A    between atoms: C_6  and  C_8
REMARK    3  A    between atoms: C_8  and  N_9
REMARK    4  A    between atoms: C_10  and  C_34
REMARK    5  A    between atoms: C_12  and  C_17
REMARK    6  A    between atoms: C_20  and  N_23
REMARK    7  A    between atoms: C_24  and  C_26
REMARK    8  A    between atoms: C_29  and  O_32
REMARK    9  A    between atoms: O_32  and  C_33
REMARK   10  A    between atoms: N_36  and  C_37
REMARK   11  A    between atoms: C_37  and  C_38
REMARK   12  A    between atoms: C_38  and  C_39
REMARK   13  A    between atoms: C_39  and  C_40
REMARK   14  A    between atoms: C_39  and  C_41
REMARK                            x       y       z     vdW  Elec       q    Type
REMARK                         _______ _______ _______ _____ _____    ______ ____
ROOT
ATOM      1  N   UNL     1       1.478  -2.961   3.070  0.00  0.00    -0.248 N 
ATOM      2  C   UNL     1       2.209  -4.196   2.724  0.00  0.00    +0.210 C 
ATOM      3  C   UNL     1       3.684  -3.765   2.910  0.00  0.00    +0.238 C 
ATOM      4  O   UNL     1       3.562  -2.672   3.840  0.00  0.00    -0.440 OA
ATOM      5  C   UNL     1       2.341  -2.132   3.687  0.00  0.00    +0.405 C 
ATOM      6  O   UNL     1       2.046  -1.016   4.067  0.00  0.00    -0.226 OA
ENDROOT
BRANCH   3   7
ATOM      7  C   UNL     1       4.501  -4.886   3.499  0.00  0.00    -0.005 A 
ATOM      8  C   UNL     1       4.451  -5.135   4.859  0.00  0.00    +0.009 A 
ATOM      9  C   UNL     1       5.199  -6.161   5.402  0.00  0.00    +0.024 A 
ATOM     10  C   UNL     1       6.001  -6.943   4.582  0.00  0.00    +0.034 A 
ATOM     11  C   UNL     1       6.048  -6.691   3.217  0.00  0.00    +0.024 A 
ATOM     12  C   UNL     1       5.295  -5.667   2.679  0.00  0.00    +0.009 A 
BRANCH  10  13
ATOM     13  N   UNL     1       6.760  -7.983   5.129  0.00  0.00    -0.282 N 
ATOM     14  C   UNL     1       7.959  -8.294   4.598  0.00  0.00    +0.248 C 
ATOM     15  O   UNL     1       8.424  -7.611   3.706  0.00  0.00    -0.270 OA
ATOM     16  H   UNL     1       6.423  -8.480   5.891  0.00  0.00    +0.155 HD
BRANCH  14  17
ATOM     17  C   UNL     1       8.707  -9.463   5.099  0.00  0.00    +0.037 A 
ATOM     18  C   UNL     1       8.171 -10.253   6.120  0.00  0.00    +0.016 A 
ATOM     19  C   UNL     1       8.872 -11.343   6.585  0.00  0.00    +0.046 A 
ATOM     20  C   UNL     1      10.111 -11.659   6.040  0.00  0.00    +0.120 A 
ATOM     21  C   UNL     1      10.647 -10.876   5.024  0.00  0.00    +0.046 A 
ATOM     22  C   UNL     1       9.950  -9.788   4.549  0.00  0.00    +0.016 A 
BRANCH  20  23
ATOM     23  O   UNL     1      10.799 -12.734   6.500  0.00  0.00    -0.495 OA
ATOM     24  C   UNL     1      12.066 -13.002   5.896  0.00  0.00    +0.277 C 
ENDBRANCH  20  23
ENDBRANCH  14  17
ENDBRANCH  10  13
ENDBRANCH   3   7
BRANCH   2  25
ATOM     25  C   UNL     1       1.849  -5.315   3.667  0.00  0.00    +0.238 C 
ATOM     26  O   UNL     1       1.335  -5.065   4.736  0.00  0.00    -0.274 OA
ATOM     27  N   UNL     1       2.099  -6.593   3.321  0.00  0.00    -0.314 N 
ATOM     28  H   UNL     1       2.510  -6.793   2.465  0.00  0.00    +0.149 HD
BRANCH  27  29
ATOM     29  C   UNL     1       1.749  -7.682   4.237  0.00  0.00    +0.104 C 
BRANCH  29  30
ATOM     30  C   UNL     1       2.135  -9.022   3.608  0.00  0.00    +0.022 C 
BRANCH  30  31
ATOM     31  C   UNL     1       1.769 -10.158   4.565  0.00  0.00    -0.016 C 
ATOM     32  C   UNL     1       0.250 -10.213   4.736  0.00  0.00    +0.007 C 
ATOM     33  C   UNL     1       2.267 -11.487   3.993  0.00  0.00    +0.007 C 
ENDBRANCH  30  31
ENDBRANCH  29  30
ENDBRANCH  27  29
ENDBRANCH   2  25
BRANCH   1  34
ATOM     34  C   UNL     1       0.067  -2.685   2.788  0.00  0.00    +0.147 C 
BRANCH  34  40
ATOM     35  C   UNL     1      -0.063   1.447  -0.032  0.00  0.00    +0.044 C 
ATOM     36  C   UNL     1      -0.119  -0.054   0.087  0.00  0.00    -0.050 A 
ATOM     37  C   UNL     1      -0.283  -0.831  -1.045  0.00  0.00    +0.003 A 
ATOM     38  C   UNL     1      -0.335  -2.208  -0.936  0.00  0.00    +0.001 A 
ATOM     39  C   UNL     1      -0.221  -2.808   0.305  0.00  0.00    +0.005 A 
ATOM     40  C   UNL     1      -0.056  -2.031   1.436  0.00  0.00    -0.030 A 
ATOM     41  C   UNL     1      -0.001  -0.654   1.326  0.00  0.00    +0.008 A 
ENDBRANCH  34  40
ENDBRANCH   1  34
TORSDOF 10
