REMARK  Name = ZINC12467940
REMARK  6 active torsions:
REMARK  status: ('A' for Active; 'I' for Inactive)
REMARK    1  A    between atoms: C_1  and  O_2
REMARK    2  A    between atoms: O_2  and  C_3
REMARK    3  A    between atoms: C_8  and  N_9
REMARK    4  A    between atoms: C_10  and  C_12
REMARK    5  A    between atoms: C_17  and  C_32
REMARK    6  A    between atoms: C_20  and  C_23
REMARK                            x       y       z     vdW  Elec       q    Type
REMARK                         _______ _______ _______ _____ _____    ______ ____
ROOT
ATOM      1  C   UNL     1      -0.634  -4.934   0.784  0.00  0.00    +0.149 A 
ATOM      2  C   UNL     1      -0.743  -6.343   0.785  0.00  0.00    +0.078 A 
ATOM      3  C   UNL     1      -1.448  -6.696   1.878  0.00  0.00    +0.119 A 
ATOM      4  N   UNL     1      -1.783  -5.558   2.555  0.00  0.00    -0.238 N 
ATOM      5  N   UNL     1      -1.257  -4.473   1.855  0.00  0.00    -0.164 NA
ATOM      6  C   UNL     1      -2.560  -5.549   3.797  0.00  0.00    +0.215 C 
ATOM      7  C   UNL     1      -3.308  -6.880   3.924  0.00  0.00    +0.063 C 
ATOM      8  C   UNL     1      -2.340  -8.047   3.702  0.00  0.00    +0.104 C 
ATOM      9  N   UNL     1      -1.818  -7.968   2.323  0.00  0.00    -0.322 N 
ATOM     10  H   UNL     1      -1.737  -8.754   1.759  0.00  0.00    +0.148 HD
ENDROOT
BRANCH   8  11
ATOM     11  C   UNL     1      -1.201  -7.953   4.684  0.00  0.00    -0.024 A 
ATOM     12  C   UNL     1      -0.155  -7.080   4.447  0.00  0.00    +0.009 A 
ATOM     13  C   UNL     1       0.891  -6.990   5.345  0.00  0.00    +0.050 A 
ATOM     14  C   UNL     1       0.895  -7.775   6.486  0.00  0.00    +0.166 A 
ATOM     15  C   UNL     1      -0.158  -8.655   6.725  0.00  0.00    +0.167 A 
ATOM     16  C   UNL     1      -1.206  -8.736   5.824  0.00  0.00    +0.055 A 
ATOM     17  O   UNL     1       0.077  -9.308   7.901  0.00  0.00    -0.453 OA
ATOM     18  C   UNL     1       1.479  -9.118   8.172  0.00  0.00    +0.466 C 
ATOM     19  O   UNL     1       1.790  -7.877   7.512  0.00  0.00    -0.453 OA
ENDBRANCH   8  11
BRANCH   1  21
ATOM     20  N   UNL     1       0.095  -2.777  -0.113  0.00  0.00    -0.277 N 
ATOM     21  C   UNL     1       0.061  -4.119  -0.233  0.00  0.00    +0.268 C 
ATOM     22  O   UNL     1       0.601  -4.659  -1.179  0.00  0.00    -0.268 OA
ATOM     23  H   UNL     1      -0.265  -2.352   0.681  0.00  0.00    +0.155 HD
BRANCH  20  29
ATOM     24  C   UNL     1       1.159  -0.731  -0.849  0.00  0.00    +0.141 A 
ATOM     25  C   UNL     1       1.712   0.034  -1.862  0.00  0.00    +0.047 A 
ATOM     26  C   UNL     1       1.756  -0.456  -3.154  0.00  0.00    +0.004 A 
ATOM     27  C   UNL     1       1.248  -1.710  -3.439  0.00  0.00    +0.002 A 
ATOM     28  C   UNL     1       0.694  -2.480  -2.434  0.00  0.00    +0.027 A 
ATOM     29  C   UNL     1       0.652  -1.997  -1.134  0.00  0.00    +0.076 A 
BRANCH  24  31
ATOM     30  C   UNL     1       1.653   1.056   0.641  0.00  0.00    +0.277 C 
ATOM     31  O   UNL     1       1.115  -0.250   0.422  0.00  0.00    -0.493 OA
ENDBRANCH  24  31
ENDBRANCH  20  29
ENDBRANCH   1  21
BRANCH   6  32
ATOM     32  C   UNL     1      -3.563  -4.394   3.766  0.00  0.00    +0.412 C 
ATOM     33  F   UNL     1      -4.428  -4.557   2.678  0.00  0.00    -0.168 F 
ATOM     34  F   UNL     1      -4.304  -4.388   4.953  0.00  0.00    -0.168 F 
ATOM     35  F   UNL     1      -2.877  -3.183   3.639  0.00  0.00    -0.168 F 
ENDBRANCH   6  32
TORSDOF 5
