REMARK  Name = ZINC41006571
REMARK  9 active torsions:
REMARK  status: ('A' for Active; 'I' for Inactive)
REMARK    1  A    between atoms: C_1  and  C_2
REMARK    2  A    between atoms: C_7  and  N_8
REMARK    3  A    between atoms: C_9  and  C_11
REMARK    4  A    between atoms: C_13  and  C_33
REMARK    5  A    between atoms: C_15  and  C_23
REMARK    6  A    between atoms: C_17  and  C_21
REMARK    7  A    between atoms: C_17  and  O_22
REMARK    8  A    between atoms: N_25  and  C_26
REMARK    9  A    between atoms: C_31  and  C_32
REMARK                            x       y       z     vdW  Elec       q    Type
REMARK                         _______ _______ _______ _____ _____    ______ ____
ROOT
ATOM      1  C   UNL     1      -0.158   0.014   4.764  0.00  0.00    +0.149 C 
ATOM      2  C   UNL     1      -0.262  -0.950   5.951  0.00  0.00    +0.053 C 
ATOM      3  C   UNL     1      -0.611  -0.164   7.215  0.00  0.00    +0.115 C 
ATOM      4  C   UNL     1      -1.990   0.481   7.061  0.00  0.00    +0.082 C 
ATOM      5  C   UNL     1      -1.951   1.499   5.917  0.00  0.00    +0.110 C 
ATOM      6  C   UNL     1      -1.442   0.808   4.670  0.00  0.00    +0.148 C 
ATOM      7  O   UNL     1      -2.048   0.884   3.628  0.00  0.00    -0.296 OA
ATOM      8  C   UNL     1      -3.026  -0.600   6.747  0.00  0.00    +0.042 C 
ENDROOT
BRANCH   2   9
ATOM      9  C   UNL     1       1.057  -1.653   6.144  0.00  0.00    -0.035 A 
ATOM     10  C   UNL     1       2.164  -0.946   6.499  0.00  0.00    +0.004 A 
ATOM     11  C   UNL     1       3.392  -1.579   6.682  0.00  0.00    +0.001 A 
ATOM     12  C   UNL     1       3.520  -2.923   6.511  0.00  0.00    +0.008 A 
ATOM     13  C   UNL     1       2.399  -3.687   6.145  0.00  0.00    -0.018 A 
ATOM     14  C   UNL     1       1.148  -3.044   5.965  0.00  0.00    -0.014 A 
ATOM     15  C   UNL     1       0.026  -3.809   5.604  0.00  0.00    +0.009 A 
ATOM     16  C   UNL     1       0.152  -5.154   5.439  0.00  0.00    +0.001 A 
ATOM     17  C   UNL     1       1.381  -5.787   5.623  0.00  0.00    +0.001 A 
ATOM     18  C   UNL     1       2.492  -5.077   5.959  0.00  0.00    +0.008 A 
ENDBRANCH   2   9
BRANCH   1  20
ATOM     19  N   UNL     1       0.161  -0.122   2.315  0.00  0.00    -0.285 N 
ATOM     20  C   UNL     1       0.049  -0.768   3.493  0.00  0.00    +0.228 C 
ATOM     21  O   UNL     1       0.114  -1.978   3.529  0.00  0.00    -0.275 OA
ATOM     22  H   UNL     1       0.178   0.848   2.293  0.00  0.00    +0.155 HD
BRANCH  19  29
ATOM     23  C   UNL     1      -1.067   0.953  -0.015  0.00  0.00    +0.045 C 
ATOM     24  C   UNL     1      -0.333  -0.362  -0.037  0.00  0.00    -0.029 A 
ATOM     25  C   UNL     1      -0.235  -1.081  -1.212  0.00  0.00    +0.005 A 
ATOM     26  C   UNL     1       0.439  -2.288  -1.233  0.00  0.00    +0.000 A 
ATOM     27  C   UNL     1       1.018  -2.779  -0.077  0.00  0.00    +0.002 A 
ATOM     28  C   UNL     1       0.925  -2.065   1.101  0.00  0.00    +0.023 A 
ATOM     29  C   UNL     1       0.253  -0.850   1.124  0.00  0.00    +0.036 A 
ENDBRANCH  19  29
ENDBRANCH   1  20
BRANCH   3  30
ATOM     30  C   UNL     1      -0.626  -1.098   8.398  0.00  0.00    +0.224 C 
ATOM     31  O   UNL     1      -0.382  -2.276   8.243  0.00  0.00    -0.275 OA
ATOM     32  N   UNL     1      -0.912  -0.625   9.627  0.00  0.00    -0.285 N 
ATOM     33  H   UNL     1      -1.026   0.328   9.765  0.00  0.00    +0.155 HD
BRANCH  32  34
ATOM     34  C   UNL     1      -1.043  -1.509  10.704  0.00  0.00    +0.036 A 
ATOM     35  C   UNL     1      -1.393  -2.834  10.478  0.00  0.00    +0.023 A 
ATOM     36  C   UNL     1      -1.522  -3.703  11.543  0.00  0.00    +0.002 A 
ATOM     37  C   UNL     1      -1.302  -3.256  12.833  0.00  0.00    +0.000 A 
ATOM     38  C   UNL     1      -0.954  -1.938  13.061  0.00  0.00    +0.005 A 
ATOM     39  C   UNL     1      -0.817  -1.065  12.000  0.00  0.00    -0.029 A 
ATOM     40  C   UNL     1      -0.430   0.371  12.249  0.00  0.00    +0.045 C 
ENDBRANCH  32  34
ENDBRANCH   3  30
BRANCH   4  41
ATOM     41  O   UNL     1      -2.345   1.143   8.276  0.00  0.00    -0.388 OA
ATOM     42  H   UNL     1      -3.210   1.575   8.251  0.00  0.00    +0.210 HD
ENDBRANCH   4  41
TORSDOF 6
