REMARK  Name = ZINC60361378
REMARK  6 active torsions:
REMARK  status: ('A' for Active; 'I' for Inactive)
REMARK    1  A    between atoms: N_8  and  C_16
REMARK    2  A    between atoms: C_16  and  C_17
REMARK    3  A    between atoms: N_19  and  C_20
REMARK    4  A    between atoms: C_25  and  C_26
REMARK    5  A    between atoms: N_28  and  C_29
REMARK    6  A    between atoms: C_29  and  C_30
REMARK                            x       y       z     vdW  Elec       q    Type
REMARK                         _______ _______ _______ _____ _____    ______ ____
ROOT
ATOM      1  C   UNL     1       2.118  -4.778  -2.483  0.00  0.00    +0.201 C 
ATOM      2  O   UNL     1       1.951  -4.114  -3.484  0.00  0.00    -0.278 OA
ATOM      3  N   UNL     1       2.473  -6.074  -2.585  0.00  0.00    -0.286 N 
ATOM      4  H   UNL     1       2.685  -6.584  -1.788  0.00  0.00    +0.155 HD
ENDROOT
BRANCH   3   5
ATOM      5  C   UNL     1       2.537  -6.682  -3.837  0.00  0.00    +0.045 A 
ATOM      6  C   UNL     1       1.776  -6.192  -4.890  0.00  0.00    +0.024 A 
ATOM      7  C   UNL     1       1.840  -6.796  -6.129  0.00  0.00    +0.002 A 
ATOM      8  C   UNL     1       2.662  -7.893  -6.333  0.00  0.00    +0.001 A 
ATOM      9  C   UNL     1       3.425  -8.392  -5.300  0.00  0.00    +0.015 A 
ATOM     10  C   UNL     1       3.374  -7.788  -4.042  0.00  0.00    +0.058 A 
BRANCH  10  11
ATOM     11  C   UNL     1       4.193  -8.314  -2.933  0.00  0.00    +0.246 C 
ATOM     12  O   UNL     1       4.077  -7.847  -1.816  0.00  0.00    -0.270 OA
ATOM     13  N   UNL     1       5.070  -9.313  -3.158  0.00  0.00    -0.304 N 
ATOM     14  H   UNL     1       5.163  -9.685  -4.048  0.00  0.00    +0.149 HD
BRANCH  13  15
ATOM     15  C   UNL     1       5.883  -9.835  -2.057  0.00  0.00    +0.179 C 
BRANCH  15  16
ATOM     16  C   UNL     1       6.774 -10.937  -2.569  0.00  0.00    +0.122 A 
ATOM     17  C   UNL     1       8.018 -10.780  -3.057  0.00  0.00    +0.046 A 
ATOM     18  C   UNL     1       8.481 -12.066  -3.419  0.00  0.00    +0.041 A 
ATOM     19  C   UNL     1       7.493 -12.931  -3.130  0.00  0.00    +0.195 A 
ATOM     20  O   UNL     1       6.464 -12.243  -2.610  0.00  0.00    -0.466 OA
ENDBRANCH  15  16
ENDBRANCH  13  15
ENDBRANCH  10  11
ENDBRANCH   3   5
BRANCH   1  21
ATOM     21  C   UNL     1       1.927  -4.154  -1.124  0.00  0.00    +0.020 C 
BRANCH  21  29
ATOM     22  C   UNL     1      -0.018   1.381   0.005  0.00  0.00    +0.000 A 
ATOM     23  C   UNL     1       1.167   2.094   0.013  0.00  0.00    +0.001 A 
ATOM     24  C   UNL     1       2.377   1.427  -0.002  0.00  0.00    +0.009 A 
ATOM     25  C   UNL     1       2.393   0.040  -0.018  0.00  0.00    -0.016 A 
ATOM     26  C   UNL     1       1.197  -0.679  -0.007  0.00  0.00    -0.056 A 
ATOM     27  C   UNL     1      -0.005  -0.004  -0.006  0.00  0.00    +0.002 A 
ATOM     28  C   UNL     1       1.246  -2.180   0.034  0.00  0.00    -0.041 C 
ATOM     29  N   UNL     1       1.545  -2.745  -1.282  0.00  0.00    +0.391 N 
ATOM     30  C   UNL     1       2.636  -2.023  -1.938  0.00  0.00    -0.041 C 
ATOM     31  C   UNL     1       3.777  -1.759  -0.995  0.00  0.00    -0.056 A 
ATOM     32  C   UNL     1       3.662  -0.726  -0.062  0.00  0.00    -0.016 A 
ATOM     33  C   UNL     1       4.715  -0.441   0.797  0.00  0.00    +0.009 A 
ATOM     34  C   UNL     1       5.870  -1.198   0.735  0.00  0.00    +0.001 A 
ATOM     35  C   UNL     1       5.973  -2.233  -0.176  0.00  0.00    +0.000 A 
ATOM     36  C   UNL     1       4.929  -2.514  -1.041  0.00  0.00    +0.002 A 
ATOM     37  H   UNL     1       0.719  -2.691  -1.859  0.00  0.00    -0.080 HD
ENDBRANCH  21  29
ENDBRANCH   1  21
TORSDOF 6
