REMARK  Name = ZINC35513398
REMARK  9 active torsions:
REMARK  status: ('A' for Active; 'I' for Inactive)
REMARK    1  A    between atoms: C_1  and  C_2
REMARK    2  A    between atoms: C_2  and  O_3
REMARK    3  A    between atoms: O_3  and  C_4
REMARK    4  A    between atoms: C_7  and  C_10
REMARK    5  A    between atoms: C_28  and  C_37
REMARK    6  A    between atoms: C_29  and  C_31
REMARK    7  A    between atoms: C_31  and  O_33
REMARK    8  A    between atoms: O_33  and  C_34
REMARK    9  A    between atoms: C_34  and  C_35
REMARK                            x       y       z     vdW  Elec       q    Type
REMARK                         _______ _______ _______ _____ _____    ______ ____
ROOT
ATOM      1  C   UNL     1      -2.001  -6.092  -0.011  0.00  0.00    +0.151 C 
ATOM      2  C   UNL     1      -2.322  -6.579   1.364  0.00  0.00    +0.072 A 
ATOM      3  C   UNL     1      -1.561  -6.511   2.615  0.00  0.00    +0.199 A 
ATOM      4  O   UNL     1      -0.546  -5.848   2.744  0.00  0.00    -0.287 OA
ATOM      5  C   UNL     1      -2.145  -7.325   3.711  0.00  0.00    +0.067 A 
ATOM      6  C   UNL     1      -1.436  -7.525   4.896  0.00  0.00    +0.053 A 
ATOM      7  C   UNL     1      -1.992  -8.289   5.901  0.00  0.00    +0.124 A 
ATOM      8  C   UNL     1      -3.250  -8.855   5.730  0.00  0.00    +0.042 A 
ATOM      9  C   UNL     1      -3.957  -8.662   4.566  0.00  0.00    +0.050 A 
ATOM     10  C   UNL     1      -3.418  -7.892   3.535  0.00  0.00    +0.140 A 
ATOM     11  O   UNL     1      -4.139  -7.711   2.405  0.00  0.00    -0.450 OA
ATOM     12  C   UNL     1      -3.553  -7.171   1.319  0.00  0.00    +0.199 A 
ATOM     13  C   UNL     1      -4.053  -7.093  -0.064  0.00  0.00    +0.289 C 
ATOM     14  O   UNL     1      -5.120  -7.531  -0.443  0.00  0.00    -0.266 OA
ATOM     15  N   UNL     1      -3.152  -6.464  -0.849  0.00  0.00    -0.232 N 
ATOM     16  C   UNL     1      -3.288  -6.212  -2.201  0.00  0.00    +0.169 A 
ATOM     17  N   UNL     1      -4.300  -6.519  -2.993  0.00  0.00    -0.229 NA
ATOM     18  C   UNL     1      -4.291  -6.214  -4.265  0.00  0.00    +0.062 A 
ATOM     19  C   UNL     1      -3.162  -5.553  -4.732  0.00  0.00    +0.120 A 
ATOM     20  S   UNL     1      -2.205  -5.434  -3.229  0.00  0.00    -0.045 S 
ATOM     21  C   UNL     1      -5.441  -6.562  -5.174  0.00  0.00    +0.067 C 
ATOM     22  F   UNL     1      -1.312  -8.486   7.052  0.00  0.00    -0.205 F 
ENDROOT
BRANCH   1  26
ATOM     23  C   UNL     1      -1.498  -1.848   0.006  0.00  0.00    +0.121 A 
ATOM     24  C   UNL     1      -0.388  -2.679  -0.003  0.00  0.00    +0.046 A 
ATOM     25  C   UNL     1      -0.553  -4.051  -0.008  0.00  0.00    +0.009 A 
ATOM     26  C   UNL     1      -1.823  -4.596  -0.005  0.00  0.00    -0.022 A 
ATOM     27  C   UNL     1      -2.932  -3.769   0.004  0.00  0.00    +0.009 A 
ATOM     28  C   UNL     1      -2.772  -2.397   0.016  0.00  0.00    +0.046 A 
BRANCH  23  29
ATOM     29  O   UNL     1      -1.339  -0.499   0.012  0.00  0.00    -0.492 OA
BRANCH  29  31
ATOM     30  C   UNL     1      -0.019   1.526   0.010  0.00  0.00    +0.048 C 
ATOM     31  C   UNL     1       0.002  -0.004   0.002  0.00  0.00    +0.225 C 
ENDBRANCH  29  31
ENDBRANCH  23  29
ENDBRANCH   1  26
BRANCH  19  32
ATOM     32  C   UNL     1      -2.846  -5.081  -6.079  0.00  0.00    +0.348 C 
ATOM     33  O   UNL     1      -3.639  -5.255  -6.985  0.00  0.00    -0.244 OA
BRANCH  32  34
ATOM     34  O   UNL     1      -1.676  -4.454  -6.317  0.00  0.00    -0.457 OA
BRANCH  34  35
ATOM     35  C   UNL     1      -1.434  -4.020  -7.657  0.00  0.00    +0.259 C 
BRANCH  35  36
ATOM     36  C   UNL     1      -0.088  -3.345  -7.731  0.00  0.00    +0.006 C 
ATOM     37  C   UNL     1       0.732  -3.626  -8.713  0.00  0.00    +0.007 C 
ENDBRANCH  35  36
ENDBRANCH  34  35
ENDBRANCH  32  34
ENDBRANCH  19  32
TORSDOF 7
