REMARK  Name = ZINC06537096
REMARK  4 active torsions:
REMARK  status: ('A' for Active; 'I' for Inactive)
REMARK    1  A    between atoms: C_4  and  N_9
REMARK    2  A    between atoms: C_5  and  C_6
REMARK    3  A    between atoms: C_10  and  C_12
REMARK    4  A    between atoms: C_18  and  C_20
REMARK                            x       y       z     vdW  Elec       q    Type
REMARK                         _______ _______ _______ _____ _____    ______ ____
ROOT
ATOM      1  N   UNL     1       2.076   4.189   0.004  0.00  0.00    -0.279 N 
ATOM      2  C   UNL     1       1.753   5.498   0.013  0.00  0.00    +0.221 C 
ATOM      3  O   UNL     1       0.588   5.835   0.026  0.00  0.00    -0.275 OA
ATOM      4  H   UNL     1       3.008   3.920  -0.007  0.00  0.00    +0.155 HD
ENDROOT
BRANCH   2   5
ATOM      5  C   UNL     1       2.839   6.542   0.008  0.00  0.00    +0.089 C 
ATOM      6  C   UNL     1       3.695   6.382  -1.251  0.00  0.00    +0.013 C 
ATOM      7  C   UNL     1       2.815   6.555  -2.491  0.00  0.00    +0.001 C 
ATOM      8  C   UNL     1       2.183   7.948  -2.478  0.00  0.00    +0.001 C 
ATOM      9  C   UNL     1       1.327   8.108  -1.219  0.00  0.00    +0.015 C 
ATOM     10  C   UNL     1       2.207   7.936   0.021  0.00  0.00    +0.114 C 
BRANCH  10  11
ATOM     11  C   UNL     1       1.365   8.094   1.260  0.00  0.00    +0.360 C 
ATOM     12  O   UNL     1       1.279   7.185   2.052  0.00  0.00    -0.246 OA
ATOM     13  O   UNL     1       0.711   9.243   1.485  0.00  0.00    -0.246 OA
ENDBRANCH  10  11
ENDBRANCH   2   5
BRANCH   1  17
ATOM     14  C   UNL     1      -0.013   1.076   0.008  0.00  0.00    +0.022 A 
ATOM     15  C   UNL     1      -1.170   1.761   0.017  0.00  0.00    +0.048 A 
ATOM     16  S   UNL     1      -0.639   3.461   0.026  0.00  0.00    -0.081 S 
ATOM     17  C   UNL     1       1.077   3.228   0.009  0.00  0.00    +0.084 A 
ATOM     18  C   UNL     1       1.209   1.845   0.000  0.00  0.00    +0.065 A 
BRANCH  18  19
ATOM     19  C   UNL     1       2.525   1.198  -0.015  0.00  0.00    +0.244 C 
ATOM     20  O   UNL     1       3.536   1.876  -0.020  0.00  0.00    -0.270 OA
ATOM     21  N   UNL     1       2.615  -0.146  -0.022  0.00  0.00    -0.325 N 
ATOM     22  H   UNL     1       1.809  -0.686  -0.018  0.00  0.00    +0.145 HD
ATOM     23  H   UNL     1       3.485  -0.574  -0.032  0.00  0.00    +0.145 HD
ENDBRANCH  18  19
ENDBRANCH   1  17
TORSDOF 4
