REMARK  Name = ZINC33790552
REMARK  8 active torsions:
REMARK  status: ('A' for Active; 'I' for Inactive)
REMARK    1  A    between atoms: C_1  and  O_2
REMARK    2  A    between atoms: O_2  and  C_3
REMARK    3  A    between atoms: C_6  and  C_18
REMARK    4  A    between atoms: C_8  and  C_9
REMARK    5  A    between atoms: C_9  and  O_10
REMARK    6  A    between atoms: O_10  and  C_11
REMARK    7  A    between atoms: C_32  and  N_36
REMARK    8  A    between atoms: C_33  and  C_34
REMARK                            x       y       z     vdW  Elec       q    Type
REMARK                         _______ _______ _______ _____ _____    ______ ____
ROOT
ATOM      1  C   UNL     1       1.527   0.036   6.140  0.00  0.00    +0.105 C 
ATOM      2  C   UNL     1       2.930   0.568   6.243  0.00  0.00    +0.092 A 
ATOM      3  C   UNL     1       4.001  -0.259   6.074  0.00  0.00    +0.152 A 
ATOM      4  C   UNL     1       5.350   0.317   6.186  0.00  0.00    +0.060 A 
ATOM      5  C   UNL     1       6.488  -0.476   6.025  0.00  0.00    +0.015 A 
ATOM      6  C   UNL     1       7.736   0.096   6.136  0.00  0.00    +0.001 A 
ATOM      7  C   UNL     1       7.865   1.450   6.407  0.00  0.00    +0.004 A 
ATOM      8  C   UNL     1       6.749   2.244   6.568  0.00  0.00    +0.047 A 
ATOM      9  C   UNL     1       5.481   1.688   6.460  0.00  0.00    +0.143 A 
ATOM     10  O   UNL     1       4.377   2.449   6.616  0.00  0.00    -0.422 OA
ATOM     11  C   UNL     1       3.143   1.931   6.517  0.00  0.00    +0.345 A 
ATOM     12  O   UNL     1       2.179   2.662   6.667  0.00  0.00    -0.245 OA
ATOM     13  O   UNL     1       3.844  -1.570   5.810  0.00  0.00    -0.440 OA
ATOM     14  C   UNL     1       2.672  -2.174   6.078  0.00  0.00    +0.199 C 
ATOM     15  C   UNL     1       1.534  -1.464   6.246  0.00  0.00    +0.098 C 
ENDROOT
BRANCH   1  19
ATOM     16  C   UNL     1      -0.149   1.182   2.380  0.00  0.00    +0.126 A 
ATOM     17  C   UNL     1       0.991   0.392   2.421  0.00  0.00    +0.046 A 
ATOM     18  C   UNL     1       1.534   0.027   3.637  0.00  0.00    +0.008 A 
ATOM     19  C   UNL     1       0.936   0.440   4.814  0.00  0.00    -0.034 A 
ATOM     20  C   UNL     1      -0.203   1.222   4.776  0.00  0.00    +0.015 A 
ATOM     21  C   UNL     1      -0.747   1.594   3.561  0.00  0.00    +0.032 A 
BRANCH  16  23
ATOM     22  C   UNL     1      -0.013   1.086   0.008  0.00  0.00    +0.277 C 
ATOM     23  O   UNL     1      -0.682   1.547   1.184  0.00  0.00    -0.495 OA
ENDBRANCH  16  23
BRANCH  21  24
ATOM     24  C   UNL     1      -1.989   2.447   3.520  0.00  0.00    +0.268 C 
BRANCH  24  25
ATOM     25  O   UNL     1      -2.411   2.738   4.854  0.00  0.00    -0.487 OA
BRANCH  25  26
ATOM     26  C   UNL     1      -3.525   3.503   4.996  0.00  0.00    +0.121 A 
ATOM     27  C   UNL     1      -4.195   3.969   3.874  0.00  0.00    +0.047 A 
ATOM     28  C   UNL     1      -5.330   4.743   4.019  0.00  0.00    +0.023 A 
ATOM     29  C   UNL     1      -5.793   5.062   5.284  0.00  0.00    +0.041 A 
ATOM     30  C   UNL     1      -5.123   4.603   6.404  0.00  0.00    +0.023 A 
ATOM     31  C   UNL     1      -3.991   3.825   6.262  0.00  0.00    +0.047 A 
ATOM     32 CL   UNL     1      -7.216   6.040   5.464  0.00  0.00    -0.084 Cl
ENDBRANCH  25  26
ENDBRANCH  24  25
ENDBRANCH  21  24
ENDBRANCH   1  19
BRANCH  14  33
ATOM     33  N   UNL     1       2.632  -3.542   6.183  0.00  0.00    -0.328 N 
ATOM     34  H   UNL     1       1.680  -4.049   6.402  0.00  0.00    +0.145 HD
ATOM     35  H   UNL     1       3.551  -4.131   6.048  0.00  0.00    +0.145 HD
ENDBRANCH  14  33
BRANCH  15  36
ATOM     36  C   UNL     1       0.313  -2.156   6.530  0.00  0.00    +0.101 C 
ATOM     37  N   UNL     1      -0.656  -2.705   6.756  0.00  0.00    -0.191 NA
ENDBRANCH  15  36
TORSDOF 7
