REMARK  Name = ZINC12587319
REMARK  10 active torsions:
REMARK  status: ('A' for Active; 'I' for Inactive)
REMARK    1  A    between atoms: C_1  and  C_2
REMARK    2  A    between atoms: C_7  and  C_8
REMARK    3  A    between atoms: C_9  and  C_21
REMARK    4  A    between atoms: N_11  and  C_13
REMARK    5  A    between atoms: C_21  and  N_55
REMARK    6  A    between atoms: C_22  and  C_23
REMARK    7  A    between atoms: C_22  and  N_55
REMARK    8  A    between atoms: C_23  and  C_24
REMARK    9  A    between atoms: C_25  and  C_31
REMARK   10  A    between atoms: C_29  and  C_30
REMARK                            x       y       z     vdW  Elec       q    Type
REMARK                         _______ _______ _______ _____ _____    ______ ____
ROOT
ATOM      1  C   UNL     1       0.015  -0.009   0.111  0.00  0.00    +0.095 A 
ATOM      2  C   UNL     1       1.147  -0.815  -0.118  0.00  0.00    -0.019 A 
ATOM      3  C   UNL     1       0.736  -2.101  -0.183  0.00  0.00    +0.117 A 
ATOM      4  N   UNL     1      -0.611  -2.116  -0.012  0.00  0.00    -0.236 N 
ATOM      5  N   UNL     1      -1.040  -0.795   0.170  0.00  0.00    -0.166 NA
ENDROOT
BRANCH   4   6
ATOM      6  C   UNL     1      -1.429  -3.255  -0.016  0.00  0.00    +0.101 A 
ATOM      7  C   UNL     1      -0.872  -4.511  -0.214  0.00  0.00    +0.033 A 
ATOM      8  C   UNL     1      -1.678  -5.632  -0.212  0.00  0.00    +0.040 A 
ATOM      9  C   UNL     1      -3.044  -5.505  -0.025  0.00  0.00    +0.126 A 
ATOM     10  C   UNL     1      -3.605  -4.253   0.167  0.00  0.00    +0.078 A 
ATOM     11  C   UNL     1      -2.801  -3.128   0.172  0.00  0.00    +0.151 A 
ATOM     12  F   UNL     1      -3.348  -1.907   0.359  0.00  0.00    -0.203 F 
ATOM     13  F   UNL     1      -3.831  -6.603  -0.029  0.00  0.00    -0.205 F 
ENDBRANCH   4   6
BRANCH   1  20
ATOM     14  C   UNL     1      -1.858   1.574  -1.424  0.00  0.00    +0.044 C 
ATOM     15  C   UNL     1      -0.887   2.238  -0.482  0.00  0.00    -0.041 A 
ATOM     16  C   UNL     1      -0.890   3.612  -0.341  0.00  0.00    +0.004 A 
ATOM     17  C   UNL     1       0.003   4.223   0.519  0.00  0.00    +0.000 A 
ATOM     18  C   UNL     1       0.901   3.463   1.247  0.00  0.00    +0.001 A 
ATOM     19  C   UNL     1       0.909   2.089   1.119  0.00  0.00    +0.010 A 
ATOM     20  C   UNL     1       0.011   1.468   0.253  0.00  0.00    +0.005 A 
ENDBRANCH   1  20
BRANCH   2  21
ATOM     21  C   UNL     1       2.567  -0.330  -0.262  0.00  0.00    -0.043 C 
BRANCH  21  22
ATOM     22  N   UNL     1       3.125  -0.064   1.078  0.00  0.00    +0.382 N 
ATOM     23  H   UNL     1       3.106  -0.930   1.630  0.00  0.00    -0.085 HD
ATOM     24  H   UNL     1       2.557   0.652   1.545  0.00  0.00    -0.085 HD
BRANCH  22  25
ATOM     25  C   UNL     1       4.516   0.413   0.968  0.00  0.00    -0.077 C 
BRANCH  25  26
ATOM     26  C   UNL     1       5.067   0.679   2.370  0.00  0.00    +0.020 C 
BRANCH  26  27
ATOM     27  C   UNL     1       6.489   1.168   2.267  0.00  0.00    -0.006 A 
ATOM     28  C   UNL     1       6.881   2.458   2.157  0.00  0.00    +0.036 A 
ATOM     29  N   UNL     1       8.229   2.474   2.091  0.00  0.00    -0.281 N 
ATOM     30  H   UNL     1       8.805   3.287   2.006  0.00  0.00    +0.189 HD
ATOM     31  N   UNL     1       8.680   1.149   2.162  0.00  0.00    -0.179 NA
ATOM     32  C   UNL     1       7.636   0.368   2.274  0.00  0.00    +0.063 A 
ATOM     33  C   UNL     1       7.665  -1.135   2.386  0.00  0.00    +0.068 C 
ATOM     34  C   UNL     1       5.976   3.662   2.116  0.00  0.00    +0.065 C 
ENDBRANCH  26  27
ENDBRANCH  25  26
ENDBRANCH  22  25
ENDBRANCH  21  22
ENDBRANCH   2  21
TORSDOF 7
