REMARK  Name = ZINC08914629
REMARK  9 active torsions:
REMARK  status: ('A' for Active; 'I' for Inactive)
REMARK    1  A    between atoms: C_1  and  N_57
REMARK    2  A    between atoms: C_2  and  N_57
REMARK    3  A    between atoms: C_3  and  C_4
REMARK    4  A    between atoms: C_3  and  N_57
REMARK    5  A    between atoms: C_4  and  C_5
REMARK    6  A    between atoms: C_5  and  N_6
REMARK    7  A    between atoms: C_7  and  C_26
REMARK    8  A    between atoms: C_10  and  C_11
REMARK    9  A    between atoms: C_10  and  O_21
REMARK                            x       y       z     vdW  Elec       q    Type
REMARK                         _______ _______ _______ _____ _____    ______ ____
ROOT
ATOM      1  N   UNL     1       4.439  -4.335   0.227  0.00  0.00    -0.284 N 
ATOM      2  C   UNL     1       4.927  -2.956   0.142  0.00  0.00    +0.144 C 
ATOM      3  C   UNL     1       3.707  -2.070   0.048  0.00  0.00    +0.071 C 
ATOM      4  C   UNL     1       3.687  -0.691  -0.047  0.00  0.00    +0.133 C 
ATOM      5  C   UNL     1       2.598  -2.928   0.071  0.00  0.00    +0.249 C 
ATOM      6  O   UNL     1       1.430  -2.588   0.010  0.00  0.00    -0.282 OA
ATOM      7  C   UNL     1       3.096  -4.326   0.183  0.00  0.00    +0.288 C 
ATOM      8  O   UNL     1       2.391  -5.314   0.228  0.00  0.00    -0.266 OA
ENDROOT
BRANCH   4   9
ATOM      9  C   UNL     1       2.413   0.014  -0.255  0.00  0.00    +0.021 A 
ATOM     10  C   UNL     1       1.568  -0.359  -1.307  0.00  0.00    +0.015 A 
ATOM     11  C   UNL     1       0.378   0.304  -1.500  0.00  0.00    +0.050 A 
ATOM     12  C   UNL     1       0.009   1.345  -0.653  0.00  0.00    +0.162 A 
ATOM     13  C   UNL     1       0.844   1.720   0.398  0.00  0.00    +0.163 A 
ATOM     14  C   UNL     1       2.042   1.060   0.597  0.00  0.00    +0.061 A 
ATOM     15  O   UNL     1       0.493   2.730   1.240  0.00  0.00    -0.485 OA
ATOM     16  C   UNL     1      -0.538   3.615   0.788  0.00  0.00    +0.270 C 
ATOM     17  C   UNL     1      -1.684   2.767   0.218  0.00  0.00    +0.270 C 
ATOM     18  O   UNL     1      -1.168   1.990  -0.868  0.00  0.00    -0.485 OA
ENDBRANCH   4   9
BRANCH   2  19
ATOM     19  C   UNL     1       5.719  -2.615   1.378  0.00  0.00    -0.021 A 
ATOM     20  C   UNL     1       5.301  -3.072   2.614  0.00  0.00    +0.007 A 
ATOM     21  C   UNL     1       6.029  -2.765   3.748  0.00  0.00    +0.022 A 
ATOM     22  C   UNL     1       7.170  -1.989   3.648  0.00  0.00    +0.059 A 
ATOM     23  C   UNL     1       7.586  -1.526   2.411  0.00  0.00    +0.060 A 
ATOM     24  C   UNL     1       6.859  -1.840   1.276  0.00  0.00    +0.027 A 
ATOM     25 CL   UNL     1       9.018  -0.554   2.284  0.00  0.00    -0.082 Cl
ATOM     26 CL   UNL     1       8.081  -1.596   5.073  0.00  0.00    -0.082 Cl
ENDBRANCH   2  19
BRANCH   4  27
ATOM     27  O   UNL     1       4.838   0.009   0.051  0.00  0.00    -0.506 OA
ATOM     28  H   UNL     1       4.643   0.985  -0.039  0.00  0.00    +0.292 HD
ENDBRANCH   4  27
BRANCH   1  29
ATOM     29  C   UNL     1       5.278  -5.530   0.337  0.00  0.00    +0.107 C 
BRANCH  29  30
ATOM     30  C   UNL     1       5.617  -6.046  -1.064  0.00  0.00    +0.000 C 
BRANCH  30  31
ATOM     31  C   UNL     1       6.494  -7.294  -0.950  0.00  0.00    -0.078 C 
BRANCH  31  34
ATOM     32  C   UNL     1       7.667  -6.831  -3.017  0.00  0.00    -0.097 C 
ATOM     33  C   UNL     1       7.456  -9.111  -2.229  0.00  0.00    -0.097 C 
ATOM     34  N   UNL     1       6.795  -7.791  -2.309  0.00  0.00    +0.376 N 
ATOM     35  H   UNL     1       5.915  -7.890  -2.830  0.00  0.00    -0.083 HD
ENDBRANCH  31  34
ENDBRANCH  30  31
ENDBRANCH  29  30
ENDBRANCH   1  29
TORSDOF 7
