REMARK  Name = ZINC11558162
REMARK  11 active torsions:
REMARK  status: ('A' for Active; 'I' for Inactive)
REMARK    1  A    between atoms: C_1  and  C_2
REMARK    2  A    between atoms: C_2  and  C_4
REMARK    3  A    between atoms: C_2  and  N_19
REMARK    4  A    between atoms: N_6  and  C_7
REMARK    5  A    between atoms: C_7  and  C_8
REMARK    6  A    between atoms: C_8  and  C_10
REMARK    7  A    between atoms: C_8  and  N_59
REMARK    8  A    between atoms: N_19  and  S_20
REMARK    9  A    between atoms: S_20  and  C_23
REMARK   10  A    between atoms: C_26  and  N_29
REMARK   11  A    between atoms: C_30  and  C_32
REMARK                            x       y       z     vdW  Elec       q    Type
REMARK                         _______ _______ _______ _____ _____    ______ ____
ROOT
ATOM      1  C   UNL     1      -5.926   0.469  -2.546  0.00  0.00    +0.035 C 
ATOM      2  C   UNL     1      -5.371   1.819  -3.002  0.00  0.00    +0.159 C 
ENDROOT
BRANCH   2   3
ATOM      3  C   UNL     1      -3.902   1.681  -3.310  0.00  0.00    +0.231 C 
ATOM      4  O   UNL     1      -3.491   1.925  -4.425  0.00  0.00    -0.274 OA
ATOM      5  N   UNL     1      -3.046   1.286  -2.347  0.00  0.00    -0.315 N 
ATOM      6  H   UNL     1      -3.375   1.091  -1.456  0.00  0.00    +0.149 HD
BRANCH   5   7
ATOM      7  C   UNL     1      -1.618   1.151  -2.647  0.00  0.00    +0.096 C 
BRANCH   7   8
ATOM      8  C   UNL     1      -0.895   0.568  -1.431  0.00  0.00    +0.016 C 
BRANCH   8  13
ATOM      9  C   UNL     1       1.295   0.066  -0.492  0.00  0.00    -0.078 C 
ATOM     10  C   UNL     1       2.732   0.598  -0.682  0.00  0.00    -0.020 C 
ATOM     11  C   UNL     1       2.582   1.827  -1.607  0.00  0.00    -0.020 C 
ATOM     12  C   UNL     1       1.069   1.930  -1.897  0.00  0.00    -0.078 C 
ATOM     13  N   UNL     1       0.583   0.571  -1.672  0.00  0.00    +0.387 N 
ATOM     14  H   UNL     1       0.792  -0.016  -2.487  0.00  0.00    -0.081 HD
ENDBRANCH   8  13
BRANCH   8  15
ATOM     15  C   UNL     1      -1.376  -0.840  -1.188  0.00  0.00    +0.093 A 
ATOM     16  C   UNL     1      -2.283  -1.213  -0.267  0.00  0.00    +0.043 A 
ATOM     17  C   UNL     1      -2.436  -2.613  -0.387  0.00  0.00    +0.041 A 
ATOM     18  C   UNL     1      -1.608  -3.013  -1.369  0.00  0.00    +0.195 A 
ATOM     19  O   UNL     1      -0.969  -1.935  -1.851  0.00  0.00    -0.469 OA
ENDBRANCH   8  15
ENDBRANCH   7   8
ENDBRANCH   5   7
ENDBRANCH   2   3
BRANCH   2  20
ATOM     20  N   UNL     1      -6.083   2.258  -4.205  0.00  0.00    -0.178 NA
ATOM     21  H   UNL     1      -5.795   1.950  -5.079  0.00  0.00    +0.149 HD
BRANCH  20  22
ATOM     22  S   UNL     1      -7.378   3.281  -4.073  0.00  0.00    +0.059 S 
ATOM     23  O   UNL     1      -7.829   3.539  -5.396  0.00  0.00    -0.153 OA
ATOM     24  O   UNL     1      -8.227   2.735  -3.072  0.00  0.00    -0.153 OA
BRANCH  22  25
ATOM     25  C   UNL     1      -6.773   4.810  -3.441  0.00  0.00    +0.105 A 
ATOM     26  C   UNL     1      -6.733   5.024  -2.075  0.00  0.00    +0.030 A 
ATOM     27  C   UNL     1      -6.254   6.220  -1.576  0.00  0.00    +0.025 A 
ATOM     28  C   UNL     1      -5.822   7.211  -2.447  0.00  0.00    +0.033 A 
ATOM     29  C   UNL     1      -5.869   6.995  -3.818  0.00  0.00    +0.025 A 
ATOM     30  C   UNL     1      -6.344   5.796  -4.311  0.00  0.00    +0.030 A 
BRANCH  28  31
ATOM     31  N   UNL     1      -5.341   8.425  -1.945  0.00  0.00    -0.286 N 
ATOM     32  C   UNL     1      -5.541   9.566  -2.633  0.00  0.00    +0.214 C 
ATOM     33  O   UNL     1      -6.214   9.556  -3.643  0.00  0.00    -0.276 OA
ATOM     34  C   UNL     1      -4.929  10.856  -2.149  0.00  0.00    +0.109 C 
ATOM     35  H   UNL     1      -4.863   8.446  -1.101  0.00  0.00    +0.155 HD
ENDBRANCH  28  31
ENDBRANCH  22  25
ENDBRANCH  20  22
ENDBRANCH   2  20
TORSDOF 9
