REMARK  Name = ZINC12942287
REMARK  11 active torsions:
REMARK  status: ('A' for Active; 'I' for Inactive)
REMARK    1  A    between atoms: C_1  and  C_2
REMARK    2  A    between atoms: C_2  and  C_3
REMARK    3  A    between atoms: C_8  and  N_9
REMARK    4  A    between atoms: C_10  and  C_12
REMARK    5  A    between atoms: C_12  and  N_59
REMARK    6  A    between atoms: C_13  and  N_59
REMARK    7  A    between atoms: C_14  and  C_15
REMARK    8  A    between atoms: C_14  and  N_59
REMARK    9  A    between atoms: N_17  and  C_18
REMARK   10  A    between atoms: C_23  and  C_28
REMARK   11  A    between atoms: C_25  and  C_27
REMARK                            x       y       z     vdW  Elec       q    Type
REMARK                         _______ _______ _______ _____ _____    ______ ____
ROOT
ATOM      1  C   UNL     1       4.422  -4.245  -1.627  0.00  0.00    -0.095 C 
ATOM      2  N   UNL     1       3.828  -4.692  -0.350  0.00  0.00    +0.389 N 
ATOM      3  H   UNL     1       4.362  -4.286   0.427  0.00  0.00    -0.081 HD
ENDROOT
BRANCH   2   4
ATOM      4  C   UNL     1       2.425  -4.236  -0.258  0.00  0.00    +0.019 C 
BRANCH   4   6
ATOM      5  N   UNL     1       1.237  -2.079  -0.021  0.00  0.00    -0.287 N 
ATOM      6  C   UNL     1       2.409  -2.734  -0.137  0.00  0.00    +0.201 C 
ATOM      7  O   UNL     1       3.452  -2.114  -0.144  0.00  0.00    -0.278 OA
ATOM      8  H   UNL     1       0.408  -2.578   0.051  0.00  0.00    +0.155 HD
BRANCH   5  14
ATOM      9  C   UNL     1       0.158   0.007  -0.583  0.00  0.00    -0.026 A 
ATOM     10  C   UNL     1       0.140   1.388  -0.563  0.00  0.00    +0.005 A 
ATOM     11  C   UNL     1       1.173   2.086   0.034  0.00  0.00    +0.000 A 
ATOM     12  C   UNL     1       2.228   1.404   0.613  0.00  0.00    +0.002 A 
ATOM     13  C   UNL     1       2.252   0.024   0.597  0.00  0.00    +0.023 A 
ATOM     14  C   UNL     1       1.216  -0.680  -0.003  0.00  0.00    +0.036 A 
BRANCH   9  16
ATOM     15  C   UNL     1      -1.999  -1.147  -0.174  0.00  0.00    +0.009 C 
ATOM     16  C   UNL     1      -0.969  -0.753  -1.234  0.00  0.00    +0.033 C 
ENDBRANCH   9  16
ENDBRANCH   5  14
ENDBRANCH   4   6
ENDBRANCH   2   4
BRANCH   2  17
ATOM     17  C   UNL     1       3.887  -6.166  -0.254  0.00  0.00    +0.019 C 
BRANCH  17  18
ATOM     18  C   UNL     1       5.328  -6.588  -0.128  0.00  0.00    +0.197 C 
ATOM     19  O   UNL     1       6.207  -5.752  -0.135  0.00  0.00    -0.278 OA
ATOM     20  N   UNL     1       5.640  -7.893  -0.006  0.00  0.00    -0.314 N 
ATOM     21  H   UNL     1       4.937  -8.562  -0.000  0.00  0.00    +0.149 HD
BRANCH  20  22
ATOM     22  C   UNL     1       7.042  -8.303   0.116  0.00  0.00    +0.076 C 
ATOM     23  C   UNL     1       7.473  -8.215   1.581  0.00  0.00    +0.022 C 
ATOM     24  C   UNL     1       8.936  -8.643   1.709  0.00  0.00    +0.002 C 
ATOM     25  C   UNL     1       9.091 -10.084   1.218  0.00  0.00    +0.003 C 
ATOM     26  C   UNL     1       8.660 -10.172  -0.247  0.00  0.00    -0.009 C 
ATOM     27  C   UNL     1       7.196  -9.744  -0.375  0.00  0.00    +0.009 C 
ATOM     28  C   UNL     1       6.765  -9.832  -1.840  0.00  0.00    +0.009 C 
ATOM     29  C   UNL     1       8.814 -11.613  -0.738  0.00  0.00    +0.008 C 
ENDBRANCH  20  22
ENDBRANCH  17  18
ENDBRANCH   2  17
TORSDOF 7
