REMARK  Name = ZINC39637325
REMARK  5 active torsions:
REMARK  status: ('A' for Active; 'I' for Inactive)
REMARK    1  A    between atoms: C_1  and  C_2
REMARK    2  A    between atoms: C_7  and  N_12
REMARK    3  A    between atoms: C_9  and  C_11
REMARK    4  A    between atoms: C_13  and  C_15
REMARK    5  A    between atoms: C_26  and  C_28
REMARK                            x       y       z     vdW  Elec       q    Type
REMARK                         _______ _______ _______ _____ _____    ______ ____
ROOT
ATOM      1  C   UNL     1       2.589  -4.543   4.111  0.00  0.00    +0.100 C 
ATOM      2  C   UNL     1       3.805  -3.592   4.172  0.00  0.00    +0.121 C 
ATOM      3  N   UNL     1       4.953  -4.473   4.494  0.00  0.00    -0.296 N 
ATOM      4  C   UNL     1       4.707  -5.703   3.704  0.00  0.00    +0.115 C 
ATOM      5  C   UNL     1       3.184  -5.927   3.804  0.00  0.00    -0.004 C 
ATOM      6  C   UNL     1       2.867  -6.902   4.933  0.00  0.00    -0.010 C 
ATOM      7  C   UNL     1       3.420  -8.285   4.578  0.00  0.00    -0.082 C 
ATOM      8  N   UNL     1       2.817  -8.747   3.322  0.00  0.00    +0.379 N 
ATOM      9  C   UNL     1       3.204  -7.855   2.223  0.00  0.00    -0.082 C 
ATOM     10  C   UNL     1       2.642  -6.453   2.478  0.00  0.00    -0.010 C 
ATOM     11  C   UNL     1       5.987  -4.214   5.318  0.00  0.00    +0.249 C 
ATOM     12  O   UNL     1       6.906  -5.005   5.408  0.00  0.00    -0.270 OA
ATOM     13  H   UNL     1       3.137  -9.683   3.122  0.00  0.00    -0.086 HD
ATOM     14  H   UNL     1       1.813  -8.750   3.414  0.00  0.00    -0.086 HD
ENDROOT
BRANCH  11  15
ATOM     15  C   UNL     1       6.005  -2.969   6.113  0.00  0.00    +0.073 A 
ATOM     16  C   UNL     1       5.473  -1.791   5.583  0.00  0.00    +0.016 A 
ATOM     17  C   UNL     1       5.491  -0.632   6.329  0.00  0.00    +0.002 A 
ATOM     18  C   UNL     1       6.036  -0.631   7.602  0.00  0.00    +0.023 A 
ATOM     19  C   UNL     1       6.566  -1.792   8.136  0.00  0.00    +0.077 A 
ATOM     20  C   UNL     1       6.549  -2.965   7.400  0.00  0.00    +0.154 A 
ATOM     21  F   UNL     1       7.062  -4.100   7.923  0.00  0.00    -0.203 F 
ATOM     22 CL   UNL     1       7.246  -1.780   9.733  0.00  0.00    -0.081 Cl
ENDBRANCH  11  15
BRANCH   1  24
ATOM     23  N   UNL     1       0.329  -4.375   3.121  0.00  0.00    -0.312 N 
ATOM     24  C   UNL     1       1.648  -4.120   3.013  0.00  0.00    +0.218 C 
ATOM     25  O   UNL     1       2.077  -3.552   2.032  0.00  0.00    -0.275 OA
ATOM     26  H   UNL     1      -0.015  -4.830   3.906  0.00  0.00    +0.149 HD
BRANCH  23  32
ATOM     27  C   UNL     1      -4.354  -3.168   2.089  0.00  0.00    +0.008 C 
ATOM     28  C   UNL     1      -2.948  -3.352   1.513  0.00  0.00    -0.009 C 
ATOM     29  C   UNL     1      -2.979  -4.428   0.426  0.00  0.00    +0.003 C 
ATOM     30  C   UNL     1      -1.573  -4.612  -0.149  0.00  0.00    +0.002 C 
ATOM     31  C   UNL     1      -0.617  -5.041   0.966  0.00  0.00    +0.022 C 
ATOM     32  C   UNL     1      -0.587  -3.965   2.053  0.00  0.00    +0.076 C 
ATOM     33  C   UNL     1      -1.992  -3.781   2.629  0.00  0.00    +0.009 C 
ATOM     34  C   UNL     1      -2.473  -5.102   3.232  0.00  0.00    +0.009 C 
ENDBRANCH  23  32
ENDBRANCH   1  24
TORSDOF 3
