REMARK  Name = ZINC40645247
REMARK  8 active torsions:
REMARK  status: ('A' for Active; 'I' for Inactive)
REMARK    1  A    between atoms: C_1  and  C_2
REMARK    2  A    between atoms: C_2  and  C_32
REMARK    3  A    between atoms: C_4  and  N_10
REMARK    4  A    between atoms: C_6  and  C_8
REMARK    5  A    between atoms: C_6  and  C_9
REMARK    6  A    between atoms: C_12  and  N_29
REMARK    7  A    between atoms: C_13  and  O_17
REMARK    8  A    between atoms: O_17  and  C_18
REMARK                            x       y       z     vdW  Elec       q    Type
REMARK                         _______ _______ _______ _____ _____    ______ ____
ROOT
ATOM      1  N   UNL     1       2.728  -0.941  -2.521  0.00  0.00    -0.324 N 
ATOM      2  C   UNL     1       3.912  -0.442  -3.042  0.00  0.00    +0.156 A 
ATOM      3  C   UNL     1       4.364  -0.858  -4.292  0.00  0.00    +0.227 A 
ATOM      4  C   UNL     1       5.556  -0.329  -4.771  0.00  0.00    +0.256 A 
ATOM      5  N   UNL     1       6.218   0.551  -4.024  0.00  0.00    -0.199 NA
ATOM      6  C   UNL     1       5.759   0.920  -2.846  0.00  0.00    +0.227 A 
ATOM      7  N   UNL     1       4.630   0.446  -2.359  0.00  0.00    -0.218 NA
ATOM      8  H   UNL     1       2.210  -1.587  -3.026  0.00  0.00    +0.148 HD
ENDROOT
BRANCH   1  12
ATOM      9  C   UNL     1       0.251   1.304   0.346  0.00  0.00    -0.010 C 
ATOM     10  C   UNL     1       0.228  -0.225   0.243  0.00  0.00    -0.072 C 
ATOM     11  C   UNL     1       0.741  -0.656  -1.128  0.00  0.00    +0.009 C 
ATOM     12  C   UNL     1       2.258  -0.490  -1.205  0.00  0.00    +0.069 C 
ATOM     13  C   UNL     1       2.889  -1.362  -0.119  0.00  0.00    +0.009 C 
ATOM     14  C   UNL     1       2.393  -0.936   1.259  0.00  0.00    -0.072 C 
ATOM     15  N   UNL     1       0.946  -0.840   1.345  0.00  0.00    +0.386 N 
ATOM     16  C   UNL     1       3.064   0.379   1.668  0.00  0.00    -0.010 C 
ATOM     17  C   UNL     1       2.853  -2.013   2.268  0.00  0.00    -0.010 C 
ATOM     18  C   UNL     1      -1.251  -0.664   0.342  0.00  0.00    -0.010 C 
ATOM     19  H   UNL     1       0.709  -0.335   2.204  0.00  0.00    -0.084 HD
ATOM     20  H   UNL     1       0.571  -1.783   1.485  0.00  0.00    -0.084 HD
ENDBRANCH   1  12
BRANCH   3  21
ATOM     21  N   UNL     1       3.595  -1.839  -5.090  0.00  0.00    +0.065 N 
ATOM     22  O   UNL     1       2.751  -1.458  -5.868  0.00  0.00    -0.126 OA
ATOM     23  O   UNL     1       3.810  -3.022  -4.964  0.00  0.00    -0.126 OA
ENDBRANCH   3  21
BRANCH   4  24
ATOM     24  O   UNL     1       6.037  -0.703  -5.981  0.00  0.00    -0.434 OA
BRANCH  24  25
ATOM     25  C   UNL     1       7.150  -0.077  -6.446  0.00  0.00    +0.156 A 
ATOM     26  C   UNL     1       7.035   1.011  -7.281  0.00  0.00    +0.049 A 
ATOM     27  C   UNL     1       8.166   1.662  -7.765  0.00  0.00    +0.019 A 
ATOM     28  C   UNL     1       9.417   1.240  -7.425  0.00  0.00    +0.027 A 
ATOM     29  C   UNL     1       9.574   0.133  -6.575  0.00  0.00    +0.018 A 
ATOM     30  C   UNL     1       8.431  -0.535  -6.072  0.00  0.00    +0.114 A 
ATOM     31  N   UNL     1       8.576  -1.585  -5.259  0.00  0.00    -0.251 NA
ATOM     32  C   UNL     1       9.764  -2.016  -4.908  0.00  0.00    +0.111 A 
ATOM     33  C   UNL     1      10.929  -1.402  -5.362  0.00  0.00    +0.020 A 
ATOM     34  C   UNL     1      10.851  -0.330  -6.204  0.00  0.00    +0.013 A 
ATOM     35 BR   UNL     1      10.937   2.142  -8.098  0.00  0.00    -0.050 Br
ENDBRANCH  24  25
ENDBRANCH   4  24
TORSDOF 4
