REMARK  Name = ZINC36313811
REMARK  19 active torsions:
REMARK  status: ('A' for Active; 'I' for Inactive)
REMARK    1  A    between atoms: C_1  and  C_2
REMARK    2  A    between atoms: C_2  and  C_3
REMARK    3  A    between atoms: C_3  and  C_4
REMARK    4  A    between atoms: C_4  and  O_5
REMARK    5  A    between atoms: O_5  and  C_6
REMARK    6  A    between atoms: C_6  and  C_7
REMARK    7  A    between atoms: C_7  and  C_9
REMARK    8  A    between atoms: C_7  and  O_36
REMARK    9  A    between atoms: C_9  and  N_10
REMARK   10  A    between atoms: N_10  and  C_11
REMARK   11  A    between atoms: N_10  and  C_32
REMARK   12  A    between atoms: C_11  and  C_12
REMARK   13  A    between atoms: C_13  and  C_26
REMARK   14  A    between atoms: N_15  and  C_25
REMARK   15  A    between atoms: C_16  and  O_17
REMARK   16  A    between atoms: O_17  and  C_18
REMARK   17  A    between atoms: C_32  and  C_33
REMARK   18  A    between atoms: C_33  and  C_34
REMARK   19  A    between atoms: C_33  and  C_35
REMARK                            x       y       z     vdW  Elec       q    Type
REMARK                         _______ _______ _______ _____ _____    ______ ____
ROOT
ATOM      1  C   UNL     1      -5.331  -8.015   1.470  0.00  0.00    +0.025 A 
ATOM      2  C   UNL     1      -3.975  -8.276   1.743  0.00  0.00    +0.098 A 
ATOM      3  N   UNL     1      -3.837  -8.410   3.045  0.00  0.00    -0.168 NA
ATOM      4  N   UNL     1      -5.094  -8.240   3.639  0.00  0.00    -0.235 N 
ATOM      5  C   UNL     1      -5.995  -7.993   2.654  0.00  0.00    +0.221 A 
ATOM      6  C   UNL     1      -5.385  -8.311   5.073  0.00  0.00    +0.176 C 
ENDROOT
BRANCH   2   7
ATOM      7  C   UNL     1      -2.888  -8.381   0.737  0.00  0.00    +0.002 A 
ATOM      8  C   UNL     1      -3.098  -9.084  -0.447  0.00  0.00    +0.010 A 
ATOM      9  C   UNL     1      -2.085  -9.179  -1.379  0.00  0.00    +0.001 A 
ATOM     10  C   UNL     1      -0.862  -8.578  -1.139  0.00  0.00    +0.000 A 
ATOM     11  C   UNL     1      -0.649  -7.879   0.035  0.00  0.00    +0.001 A 
ATOM     12  C   UNL     1      -1.657  -7.773   0.972  0.00  0.00    +0.010 A 
ENDBRANCH   2   7
BRANCH   1  13
ATOM     13  C   UNL     1      -5.936  -7.793   0.108  0.00  0.00    -0.035 C 
BRANCH  13  14
ATOM     14  N   UNL     1      -6.038  -6.351  -0.154  0.00  0.00    +0.384 N 
ATOM     15  H   UNL     1      -6.540  -5.907   0.601  0.00  0.00    -0.081 HD
BRANCH  14  16
ATOM     16  C   UNL     1      -4.691  -5.775  -0.253  0.00  0.00    -0.044 C 
BRANCH  16  17
ATOM     17  C   UNL     1      -4.796  -4.255  -0.401  0.00  0.00    +0.124 C 
BRANCH  17  18
ATOM     18  O   UNL     1      -5.359  -3.699   0.789  0.00  0.00    -0.391 OA
ATOM     19  H   UNL     1      -4.842  -3.873   1.587  0.00  0.00    +0.210 HD
ENDBRANCH  17  18
BRANCH  17  20
ATOM     20  C   UNL     1      -3.402  -3.668  -0.629  0.00  0.00    +0.189 C 
BRANCH  20  21
ATOM     21  O   UNL     1      -3.512  -2.266  -0.883  0.00  0.00    -0.377 OA
BRANCH  21  22
ATOM     22  C   UNL     1      -2.260  -1.616  -1.111  0.00  0.00    +0.160 C 
BRANCH  22  23
ATOM     23  C   UNL     1      -2.497  -0.127  -1.370  0.00  0.00    +0.028 C 
BRANCH  23  25
ATOM     24  C   UNL     1      -1.394   2.057  -1.874  0.00  0.00    +0.004 C 
ATOM     25  C   UNL     1      -1.156   0.568  -1.614  0.00  0.00    -0.001 C 
ENDBRANCH  23  25
ENDBRANCH  22  23
ENDBRANCH  21  22
ENDBRANCH  20  21
ENDBRANCH  17  20
ENDBRANCH  16  17
ENDBRANCH  14  16
BRANCH  14  26
ATOM     26  C   UNL     1      -6.759  -6.133  -1.415  0.00  0.00    -0.075 C 
BRANCH  26  27
ATOM     27  C   UNL     1      -8.206  -6.607  -1.265  0.00  0.00    -0.034 C 
ATOM     28  C   UNL     1      -8.906  -5.776  -0.188  0.00  0.00    +0.005 C 
ATOM     29  C   UNL     1      -8.939  -6.438  -2.597  0.00  0.00    +0.005 C 
ENDBRANCH  26  27
ENDBRANCH  14  26
ENDBRANCH  13  14
ENDBRANCH   1  13
BRANCH   5  30
ATOM     30  O   UNL     1      -7.323  -7.766   2.822  0.00  0.00    -0.435 OA
BRANCH  30  31
ATOM     31  C   UNL     1      -8.154  -8.842   2.860  0.00  0.00    +0.165 A 
ATOM     32  C   UNL     1      -7.630 -10.126   2.835  0.00  0.00    +0.049 A 
ATOM     33  C   UNL     1      -8.476 -11.217   2.875  0.00  0.00    +0.004 A 
ATOM     34  C   UNL     1      -9.845 -11.031   2.939  0.00  0.00    +0.003 A 
ATOM     35  C   UNL     1     -10.372  -9.753   2.964  0.00  0.00    +0.042 A 
ATOM     36  C   UNL     1      -9.529  -8.657   2.931  0.00  0.00    +0.165 A 
ATOM     37  F   UNL     1     -10.043  -7.407   2.961  0.00  0.00    -0.202 F 
ENDBRANCH  30  31
ENDBRANCH   5  30
TORSDOF 15
