REMARK  Name = ZINC04110236
REMARK  11 active torsions:
REMARK  status: ('A' for Active; 'I' for Inactive)
REMARK    1  A    between atoms: C_1  and  C_2
REMARK    2  A    between atoms: C_5  and  S_8
REMARK    3  A    between atoms: S_8  and  N_11
REMARK    4  A    between atoms: N_14  and  C_15
REMARK    5  A    between atoms: C_15  and  C_16
REMARK    6  A    between atoms: C_17  and  O_23
REMARK    7  A    between atoms: O_23  and  C_24
REMARK    8  A    between atoms: C_27  and  C_33
REMARK    9  A    between atoms: C_30  and  C_32
REMARK   10  A    between atoms: C_33  and  C_34
REMARK   11  A    between atoms: C_33  and  C_35
REMARK                            x       y       z     vdW  Elec       q    Type
REMARK                         _______ _______ _______ _____ _____    ______ ____
ROOT
ATOM      1  C   UNL     1       2.368   1.403   0.171  0.00  0.00    +0.030 A 
ATOM      2  C   UNL     1       1.167   2.098   0.186  0.00  0.00    +0.127 A 
ATOM      3  C   UNL     1      -0.025   1.416   0.381  0.00  0.00    +0.046 A 
ATOM      4  C   UNL     1      -0.014   0.046   0.560  0.00  0.00    +0.005 A 
ATOM      5  C   UNL     1       1.183  -0.645   0.545  0.00  0.00    +0.020 A 
ATOM      6  C   UNL     1       2.374   0.033   0.351  0.00  0.00    +0.049 A 
ATOM      7 CL   UNL     1       3.875  -0.838   0.334  0.00  0.00    -0.083 Cl
ENDROOT
BRANCH   1   8
ATOM      8  C   UNL     1       3.664   2.142  -0.041  0.00  0.00    +0.146 C 
BRANCH   8  12
ATOM      9  N   UNL     1       5.358   2.872  -3.222  0.00  0.00    -0.169 N 
ATOM     10  C   UNL     1       5.082   2.818  -1.904  0.00  0.00    +0.319 C 
ATOM     11  O   UNL     1       5.843   3.325  -1.103  0.00  0.00    -0.251 OA
ATOM     12  N   UNL     1       3.964   2.201  -1.474  0.00  0.00    -0.294 N 
ATOM     13  H   UNL     1       4.751   2.467  -3.862  0.00  0.00    +0.178 HD
ATOM     14  H   UNL     1       3.357   1.796  -2.114  0.00  0.00    +0.151 HD
BRANCH   9  15
ATOM     15  S   UNL     1       6.732   3.630  -3.751  0.00  0.00    +0.076 S 
ATOM     16  O   UNL     1       6.751   3.497  -5.165  0.00  0.00    -0.150 OA
ATOM     17  O   UNL     1       6.772   4.895  -3.104  0.00  0.00    -0.150 OA
BRANCH  15  22
ATOM     18  C   UNL     1      11.428   0.474  -1.654  0.00  0.00    +0.044 C 
ATOM     19  C   UNL     1      10.255   1.263  -2.178  0.00  0.00    -0.050 A 
ATOM     20  C   UNL     1       9.707   0.952  -3.409  0.00  0.00    +0.005 A 
ATOM     21  C   UNL     1       8.632   1.675  -3.889  0.00  0.00    +0.029 A 
ATOM     22  C   UNL     1       8.103   2.709  -3.139  0.00  0.00    +0.109 A 
ATOM     23  C   UNL     1       8.655   3.023  -1.911  0.00  0.00    +0.029 A 
ATOM     24  C   UNL     1       9.728   2.298  -1.428  0.00  0.00    +0.005 A 
ENDBRANCH  15  22
ENDBRANCH   9  15
ENDBRANCH   8  12
ENDBRANCH   1   8
BRANCH   2  25
ATOM     25  O   UNL     1       1.159   3.446   0.009  0.00  0.00    -0.486 OA
BRANCH  25  26
ATOM     26  C   UNL     1      -0.118   4.079  -0.087  0.00  0.00    +0.208 C 
ATOM     27  C   UNL     1      -0.621   4.516   1.313  0.00  0.00    +0.082 C 
ATOM     28  C   UNL     1      -0.731   6.067   1.167  0.00  0.00    +0.076 C 
ATOM     29  C   UNL     1       0.738   6.587   1.147  0.00  0.00    +0.038 C 
ATOM     30  C   UNL     1       1.238   6.146  -0.252  0.00  0.00    +0.041 C 
ATOM     31  C   UNL     1      -0.008   5.431  -0.855  0.00  0.00    +0.104 C 
ATOM     32  O   UNL     1      -1.099   6.196  -0.246  0.00  0.00    -0.363 OA
ATOM     33  C   UNL     1      -0.027   5.321  -2.381  0.00  0.00    +0.045 C 
BRANCH  28  34
ATOM     34  C   UNL     1      -1.657   6.755   2.172  0.00  0.00    +0.015 C 
ATOM     35  C   UNL     1      -1.699   8.257   1.882  0.00  0.00    +0.010 C 
ATOM     36  C   UNL     1      -3.066   6.172   2.050  0.00  0.00    +0.010 C 
ENDBRANCH  28  34
ENDBRANCH  25  26
ENDBRANCH   2  25
TORSDOF 7
