REMARK  Name = ZINC22751914
REMARK  9 active torsions:
REMARK  status: ('A' for Active; 'I' for Inactive)
REMARK    1  A    between atoms: C_1  and  C_2
REMARK    2  A    between atoms: C_2  and  C_36
REMARK    3  A    between atoms: C_6  and  C_25
REMARK    4  A    between atoms: C_11  and  S_13
REMARK    5  A    between atoms: S_13  and  C_14
REMARK    6  A    between atoms: C_14  and  C_15
REMARK    7  A    between atoms: C_18  and  N_21
REMARK    8  A    between atoms: C_28  and  O_32
REMARK    9  A    between atoms: C_29  and  O_31
REMARK                            x       y       z     vdW  Elec       q    Type
REMARK                         _______ _______ _______ _____ _____    ______ ____
ROOT
ATOM      1  C   UNL     1      -0.019   1.526   0.010  0.00  0.00    +0.011 C 
ATOM      2  C   UNL     1       0.002  -0.004   0.002  0.00  0.00    -0.023 C 
ATOM      3  C   UNL     1       0.742  -0.503  -1.241  0.00  0.00    +0.058 C 
ATOM      4  C   UNL     1       2.168  -0.005  -1.216  0.00  0.00    +0.020 C 
ATOM      5  C   UNL     1       2.816   0.182  -0.046  0.00  0.00    +0.041 C 
ATOM      6  C   UNL     1       4.249   0.663   0.011  0.00  0.00    +0.176 C 
ATOM      7  N   UNL     1       4.650   1.189  -1.288  0.00  0.00    -0.220 N 
ATOM      8  C   UNL     1       3.945   0.982  -2.427  0.00  0.00    +0.219 A 
ATOM      9  N   UNL     1       4.571   1.575  -3.406  0.00  0.00    -0.187 NA
ATOM     10  C   UNL     1       5.675   2.173  -2.935  0.00  0.00    +0.211 A 
ATOM     11  N   UNL     1       5.758   1.960  -1.639  0.00  0.00    -0.141 NA
ATOM     12  N   UNL     1       2.768   0.251  -2.425  0.00  0.00    -0.287 N 
ATOM     13  C   UNL     1       2.173  -0.060   1.181  0.00  0.00    +0.164 C 
ATOM     14  O   UNL     1       2.788   0.104   2.217  0.00  0.00    -0.292 OA
ATOM     15  C   UNL     1       0.742  -0.517   1.242  0.00  0.00    +0.086 C 
ATOM     16  C   UNL     1      -1.431  -0.539  -0.001  0.00  0.00    +0.011 C 
ATOM     17  H   UNL     1       2.379  -0.071  -3.253  0.00  0.00    +0.155 HD
ENDROOT
BRANCH   6  18
ATOM     18  C   UNL     1       5.148  -0.488   0.381  0.00  0.00    -0.015 A 
ATOM     19  C   UNL     1       5.206  -1.607  -0.429  0.00  0.00    +0.010 A 
ATOM     20  C   UNL     1       6.029  -2.666  -0.093  0.00  0.00    +0.049 A 
ATOM     21  C   UNL     1       6.799  -2.607   1.057  0.00  0.00    +0.158 A 
ATOM     22  C   UNL     1       6.742  -1.480   1.872  0.00  0.00    +0.159 A 
ATOM     23  C   UNL     1       5.918  -0.421   1.528  0.00  0.00    +0.055 A 
BRANCH  22  24
ATOM     24  O   UNL     1       7.496  -1.418   3.002  0.00  0.00    -0.503 OA
ATOM     25  H   UNL     1       8.373  -1.033   2.869  0.00  0.00    +0.292 HD
ENDBRANCH  22  24
BRANCH  21  26
ATOM     26  O   UNL     1       7.609  -3.647   1.389  0.00  0.00    -0.503 OA
ATOM     27  H   UNL     1       8.503  -3.582   1.025  0.00  0.00    +0.292 HD
ENDBRANCH  21  26
ENDBRANCH   6  18
BRANCH  10  28
ATOM     28  S   UNL     1       6.828   3.095  -3.896  0.00  0.00    -0.080 S 
BRANCH  28  29
ATOM     29  C   UNL     1       6.158   3.017  -5.580  0.00  0.00    +0.112 C 
BRANCH  29  30
ATOM     30  C   UNL     1       7.062   3.777  -6.516  0.00  0.00    -0.037 A 
ATOM     31  C   UNL     1       6.852   5.125  -6.737  0.00  0.00    +0.007 A 
ATOM     32  C   UNL     1       7.682   5.822  -7.596  0.00  0.00    +0.033 A 
ATOM     33  C   UNL     1       8.721   5.170  -8.234  0.00  0.00    +0.126 A 
ATOM     34  C   UNL     1       8.931   3.822  -8.012  0.00  0.00    +0.033 A 
ATOM     35  C   UNL     1       8.104   3.126  -7.150  0.00  0.00    +0.007 A 
BRANCH  33  36
ATOM     36  N   UNL     1       9.608   5.916  -9.154  0.00  0.00    +0.056 N 
ATOM     37  O   UNL     1       9.424   7.095  -9.348  0.00  0.00    -0.126 OA
ATOM     38  O   UNL     1      10.517   5.347  -9.711  0.00  0.00    -0.126 OA
ENDBRANCH  33  36
ENDBRANCH  29  30
ENDBRANCH  28  29
ENDBRANCH  10  28
TORSDOF 7
