REMARK  Name = ZINC47128961
REMARK  6 active torsions:
REMARK  status: ('A' for Active; 'I' for Inactive)
REMARK    1  A    between atoms: C_1  and  C_2
REMARK    2  A    between atoms: N_14  and  C_15
REMARK    3  A    between atoms: C_15  and  C_17
REMARK    4  A    between atoms: C_15  and  C_18
REMARK    5  A    between atoms: C_21  and  N_24
REMARK    6  A    between atoms: N_27  and  C_28
REMARK                            x       y       z     vdW  Elec       q    Type
REMARK                         _______ _______ _______ _____ _____    ______ ____
ROOT
ATOM      1  C   UNL     1       3.152   0.780   3.677  0.00  0.00    +0.102 C 
ATOM      2  C   UNL     1       2.369   1.390   4.841  0.00  0.00    +0.033 C 
ENDROOT
BRANCH   1  15
ATOM      3  C   UNL     1      -0.228   1.377   0.206  0.00  0.00    +0.033 C 
ATOM      4  C   UNL     1      -0.240  -0.150   0.292  0.00  0.00    +0.105 C 
ATOM      5  C   UNL     1      -1.661  -0.641   0.563  0.00  0.00    -0.017 A 
ATOM      6  C   UNL     1      -2.773  -0.189  -0.145  0.00  0.00    +0.013 A 
ATOM      7  C   UNL     1      -4.003  -0.671   0.146  0.00  0.00    +0.046 A 
ATOM      8  S   UNL     1      -3.645  -1.818   1.468  0.00  0.00    -0.101 S 
ATOM      9  C   UNL     1      -1.891  -1.566   1.535  0.00  0.00    -0.004 A 
ATOM     10  C   UNL     1      -0.894  -2.210   2.443  0.00  0.00    +0.062 C 
ATOM     11  C   UNL     1       0.513  -1.986   1.869  0.00  0.00    +0.115 C 
ATOM     12  N   UNL     1       0.609  -0.593   1.407  0.00  0.00    -0.278 N 
ATOM     13  C   UNL     1       1.462   0.266   1.999  0.00  0.00    +0.303 C 
ATOM     14  O   UNL     1       1.476   1.435   1.665  0.00  0.00    -0.253 OA
ATOM     15  N   UNL     1       2.300  -0.171   2.960  0.00  0.00    -0.293 N 
ATOM     16  H   UNL     1       2.338  -1.116   3.177  0.00  0.00    +0.151 HD
ENDBRANCH   1  15
BRANCH   1  17
ATOM     17  C   UNL     1       4.367   0.065   4.208  0.00  0.00    -0.027 A 
ATOM     18  C   UNL     1       4.242  -1.206   4.739  0.00  0.00    +0.007 A 
ATOM     19  C   UNL     1       5.354  -1.865   5.227  0.00  0.00    +0.023 A 
ATOM     20  C   UNL     1       6.598  -1.250   5.185  0.00  0.00    +0.035 A 
ATOM     21  C   UNL     1       6.720   0.027   4.652  0.00  0.00    +0.023 A 
ATOM     22  C   UNL     1       5.606   0.678   4.160  0.00  0.00    +0.007 A 
BRANCH  20  23
ATOM     23  N   UNL     1       7.726  -1.914   5.679  0.00  0.00    -0.269 N 
ATOM     24  C   UNL     1       7.790  -3.260   5.631  0.00  0.00    +0.304 C 
ATOM     25  O   UNL     1       6.917  -3.890   5.068  0.00  0.00    -0.253 OA
ATOM     26  N   UNL     1       8.822  -3.906   6.209  0.00  0.00    -0.296 N 
ATOM     27  H   UNL     1       8.461  -1.407   6.056  0.00  0.00    +0.156 HD
ATOM     28  H   UNL     1       9.519  -3.403   6.659  0.00  0.00    +0.151 HD
BRANCH  26  29
ATOM     29  C   UNL     1       8.892  -5.368   6.157  0.00  0.00    +0.075 C 
ATOM     30  C   UNL     1       9.287  -6.103   7.440  0.00  0.00    +0.024 C 
ATOM     31  C   UNL     1      10.274  -6.014   6.275  0.00  0.00    +0.024 C 
ENDBRANCH  26  29
ENDBRANCH  20  23
ENDBRANCH   1  17
TORSDOF 4
