REMARK  Name = ZINC39932453
REMARK  9 active torsions:
REMARK  status: ('A' for Active; 'I' for Inactive)
REMARK    1  A    between atoms: C_1  and  C_2
REMARK    2  A    between atoms: C_2  and  O_3
REMARK    3  A    between atoms: O_3  and  C_4
REMARK    4  A    between atoms: C_4  and  C_6
REMARK    5  A    between atoms: C_7  and  C_31
REMARK    6  A    between atoms: C_11  and  N_23
REMARK    7  A    between atoms: C_12  and  C_14
REMARK    8  A    between atoms: C_14  and  C_16
REMARK    9  A    between atoms: C_24  and  C_26
REMARK                            x       y       z     vdW  Elec       q    Type
REMARK                         _______ _______ _______ _____ _____    ______ ____
ROOT
ATOM      1  C   UNL     1      -2.835  -2.433   0.092  0.00  0.00    +0.066 C 
ATOM      2  C   UNL     1      -2.931  -3.762  -0.042  0.00  0.00    +0.016 C 
ATOM      3  N   UNL     1      -4.146  -4.402  -0.099  0.00  0.00    -0.312 N 
ATOM      4  C   UNL     1      -5.257  -3.617  -0.278  0.00  0.00    +0.076 A 
ATOM      5  C   UNL     1      -5.285  -2.232  -0.158  0.00  0.00    +0.015 A 
ATOM      6  C   UNL     1      -6.502  -1.618  -0.386  0.00  0.00    +0.049 A 
ATOM      7  C   UNL     1      -7.611  -2.404  -0.712  0.00  0.00    +0.082 A 
ATOM      8  S   UNL     1      -6.920  -4.052  -0.696  0.00  0.00    -0.068 S 
ATOM      9  C   UNL     1      -4.002  -1.499   0.219  0.00  0.00    +0.098 C 
ATOM     10  C   UNL     1      -1.669  -4.581  -0.134  0.00  0.00    +0.061 C 
ATOM     11  H   UNL     1      -4.216  -5.365  -0.016  0.00  0.00    +0.152 HD
ENDROOT
BRANCH   9  12
ATOM     12  C   UNL     1      -4.099  -1.008   1.640  0.00  0.00    +0.002 A 
ATOM     13  C   UNL     1      -4.041   0.263   2.110  0.00  0.00    +0.012 A 
ATOM     14  C   UNL     1      -4.155   0.480   3.470  0.00  0.00    +0.008 A 
ATOM     15  C   UNL     1      -4.321  -0.583   4.294  0.00  0.00    +0.045 A 
ATOM     16  S   UNL     1      -4.328  -1.946   3.141  0.00  0.00    -0.101 S 
ENDBRANCH   9  12
BRANCH   6  17
ATOM     17  N   UNL     1      -6.621  -0.235  -0.291  0.00  0.00    -0.357 N 
ATOM     18  H   UNL     1      -5.847   0.304  -0.064  0.00  0.00    +0.142 HD
ATOM     19  H   UNL     1      -7.478   0.189  -0.452  0.00  0.00    +0.142 HD
ENDBRANCH   6  17
BRANCH   1  20
ATOM     20  C   UNL     1      -1.540  -1.869   0.121  0.00  0.00    +0.338 C 
ATOM     21  O   UNL     1      -1.078  -1.352  -0.879  0.00  0.00    -0.245 OA
BRANCH  20  22
ATOM     22  O   UNL     1      -0.814  -1.905   1.258  0.00  0.00    -0.462 OA
BRANCH  22  24
ATOM     23  C   UNL     1       1.153  -1.451   2.587  0.00  0.00    +0.048 C 
ATOM     24  C   UNL     1       0.487  -1.316   1.216  0.00  0.00    +0.229 C 
ENDBRANCH  22  24
ENDBRANCH  20  22
ENDBRANCH   1  20
BRANCH   7  25
ATOM     25  C   UNL     1      -8.932  -2.002  -0.982  0.00  0.00    +0.202 C 
ATOM     26  O   UNL     1      -9.204  -0.815  -1.064  0.00  0.00    -0.286 OA
BRANCH  25  27
ATOM     27  C   UNL     1      -9.992  -3.017  -1.166  0.00  0.00    +0.023 A 
ATOM     28  C   UNL     1      -9.858  -4.282  -0.591  0.00  0.00    +0.014 A 
ATOM     29  C   UNL     1     -10.848  -5.225  -0.765  0.00  0.00    +0.039 A 
ATOM     30  C   UNL     1     -11.976  -4.919  -1.510  0.00  0.00    +0.123 A 
ATOM     31  C   UNL     1     -12.115  -3.664  -2.084  0.00  0.00    +0.039 A 
ATOM     32  C   UNL     1     -11.133  -2.712  -1.910  0.00  0.00    +0.014 A 
ATOM     33  F   UNL     1     -12.944  -5.846  -1.678  0.00  0.00    -0.205 F 
ENDBRANCH  25  27
ENDBRANCH   7  25
TORSDOF 7
