REMARK  Name = ZINC63293908
REMARK  7 active torsions:
REMARK  status: ('A' for Active; 'I' for Inactive)
REMARK    1  A    between atoms: C_4  and  S_7
REMARK    2  A    between atoms: S_7  and  N_10
REMARK    3  A    between atoms: N_10  and  C_11
REMARK    4  A    between atoms: C_17  and  C_21
REMARK    5  A    between atoms: N_23  and  C_24
REMARK    6  A    between atoms: C_24  and  C_25
REMARK    7  A    between atoms: C_25  and  C_26
REMARK                            x       y       z     vdW  Elec       q    Type
REMARK                         _______ _______ _______ _____ _____    ______ ____
ROOT
ATOM      1  C   UNL     1       3.567  -1.942   2.398  0.00  0.00    +0.224 C 
ATOM      2  N   UNL     1       4.381  -2.532   3.469  0.00  0.00    -0.318 N 
ATOM      3  C   UNL     1       4.049  -2.218   4.780  0.00  0.00    +0.043 A 
ATOM      4  C   UNL     1       4.717  -2.692   5.928  0.00  0.00    +0.025 A 
ATOM      5  C   UNL     1       4.318  -2.328   7.187  0.00  0.00    +0.015 A 
ATOM      6  C   UNL     1       3.230  -1.471   7.377  0.00  0.00    +0.038 A 
ATOM      7  C   UNL     1       2.551  -0.987   6.251  0.00  0.00    +0.029 A 
ATOM      8  C   UNL     1       2.962  -1.360   4.996  0.00  0.00    +0.033 A 
ATOM      9  S   UNL     1       2.358  -0.958   3.371  0.00  0.00    -0.084 S 
ATOM     10  H   UNL     1       5.124  -3.122   3.268  0.00  0.00    +0.148 HD
ENDROOT
BRANCH   6  11
ATOM     11  C   UNL     1       2.805  -1.084   8.735  0.00  0.00    +0.244 C 
ATOM     12  O   UNL     1       1.857  -0.338   8.887  0.00  0.00    -0.270 OA
ATOM     13  N   UNL     1       3.468  -1.557   9.809  0.00  0.00    -0.311 N 
ATOM     14  H   UNL     1       4.224  -2.153   9.688  0.00  0.00    +0.149 HD
BRANCH  13  15
ATOM     15  C   UNL     1       3.046  -1.173  11.158  0.00  0.00    +0.109 C 
BRANCH  15  16
ATOM     16  C   UNL     1       3.959  -1.843  12.188  0.00  0.00    +0.052 C 
BRANCH  16  17
ATOM     17  C   UNL     1       3.525  -1.448  13.576  0.00  0.00    -0.040 C 
ATOM     18  C   UNL     1       2.702  -2.138  14.398  0.00  0.00    -0.001 A 
ATOM     19  C   UNL     1       1.991  -3.413  14.252  0.00  0.00    +0.010 A 
ATOM     20  C   UNL     1       1.222  -3.857  15.272  0.00  0.00    +0.001 A 
ATOM     21  C   UNL     1       1.087  -3.130  16.463  0.00  0.00    +0.002 A 
ATOM     22  C   UNL     1       1.709  -1.950  16.672  0.00  0.00    +0.026 A 
ATOM     23  C   UNL     1       2.543  -1.390  15.666  0.00  0.00    +0.043 A 
ATOM     24  N   UNL     1       3.241  -0.280  15.629  0.00  0.00    -0.380 N 
ATOM     25  C   UNL     1       3.926  -0.202  14.334  0.00  0.00    +0.144 C 
ATOM     26  H   UNL     1       3.297   0.377  16.340  0.00  0.00    +0.160 HD
ENDBRANCH  16  17
ENDBRANCH  15  16
ENDBRANCH  13  15
ENDBRANCH   6  11
BRANCH   1  27
ATOM     27  N   UNL     1       4.378  -1.079   1.536  0.00  0.00    -0.160 NA
ATOM     28  H   UNL     1       5.174  -0.651   1.888  0.00  0.00    +0.151 HD
BRANCH  27  29
ATOM     29  S   UNL     1       3.934  -0.832  -0.041  0.00  0.00    +0.061 S 
ATOM     30  O   UNL     1       3.674  -2.114  -0.595  0.00  0.00    -0.153 OA
ATOM     31  O   UNL     1       4.890   0.060  -0.597  0.00  0.00    -0.153 OA
BRANCH  29  35
ATOM     32  C   UNL     1      -0.017   1.378   0.010  0.00  0.00    +0.000 A 
ATOM     33  C   UNL     1       1.171   2.086   0.002  0.00  0.00    +0.002 A 
ATOM     34  C   UNL     1       2.377   1.411  -0.013  0.00  0.00    +0.028 A 
ATOM     35  C   UNL     1       2.396   0.029  -0.020  0.00  0.00    +0.105 A 
ATOM     36  C   UNL     1       1.208  -0.679  -0.012  0.00  0.00    +0.028 A 
ATOM     37  C   UNL     1       0.002  -0.004   0.002  0.00  0.00    +0.002 A 
ENDBRANCH  29  35
ENDBRANCH  27  29
ENDBRANCH   1  27
TORSDOF 7
