REMARK  Name = ZINC13977659
REMARK  9 active torsions:
REMARK  status: ('A' for Active; 'I' for Inactive)
REMARK    1  A    between atoms: C_1  and  C_2
REMARK    2  A    between atoms: C_2  and  C_3
REMARK    3  A    between atoms: C_6  and  O_10
REMARK    4  A    between atoms: O_10  and  C_11
REMARK    5  A    between atoms: C_11  and  C_12
REMARK    6  A    between atoms: N_14  and  N_15
REMARK    7  A    between atoms: C_16  and  C_18
REMARK    8  A    between atoms: C_21  and  O_25
REMARK    9  A    between atoms: O_25  and  C_26
REMARK                            x       y       z     vdW  Elec       q    Type
REMARK                         _______ _______ _______ _____ _____    ______ ____
ROOT
ATOM      1  C   UNL     1       1.030   3.512   0.011  0.00  0.00    +0.267 C 
ATOM      2  O   UNL     1      -0.097   3.960   0.024  0.00  0.00    -0.271 OA
ATOM      3  N   UNL     1       2.088   4.348   0.005  0.00  0.00    -0.231 N 
ATOM      4  H   UNL     1       2.989   3.989  -0.005  0.00  0.00    +0.173 HD
ENDROOT
BRANCH   3   5
ATOM      5  N   UNL     1       1.885   5.734   0.015  0.00  0.00    -0.230 N 
ATOM      6  C   UNL     1       2.943   6.569   0.009  0.00  0.00    +0.260 C 
ATOM      7  O   UNL     1       4.073   6.120  -0.004  0.00  0.00    -0.269 OA
ATOM      8  H   UNL     1       0.984   6.092   0.025  0.00  0.00    +0.173 HD
BRANCH   6   9
ATOM      9  C   UNL     1       2.730   8.030   0.019  0.00  0.00    +0.039 A 
ATOM     10  C   UNL     1       1.432   8.548   0.028  0.00  0.00    +0.017 A 
ATOM     11  C   UNL     1       1.237   9.911   0.043  0.00  0.00    +0.047 A 
ATOM     12  C   UNL     1       2.328  10.772   0.037  0.00  0.00    +0.134 A 
ATOM     13  C   UNL     1       3.621  10.260   0.022  0.00  0.00    +0.060 A 
ATOM     14  C   UNL     1       3.825   8.898   0.013  0.00  0.00    +0.032 A 
ATOM     15 BR   UNL     1       5.102  11.437   0.014  0.00  0.00    -0.046 Br
BRANCH  12  16
ATOM     16  O   UNL     1       2.132  12.115   0.046  0.00  0.00    -0.494 OA
ATOM     17  C   UNL     1       0.778  12.572   0.062  0.00  0.00    +0.277 C 
ENDBRANCH  12  16
ENDBRANCH   6   9
ENDBRANCH   3   5
BRANCH   1  18
ATOM     18  C   UNL     1       1.248   2.021   0.001  0.00  0.00    +0.326 C 
BRANCH  18  19
ATOM     19  O   UNL     1      -0.016   1.355   0.009  0.00  0.00    -0.482 OA
BRANCH  19  23
ATOM     20  C   UNL     1       0.040  -2.771  -0.012  0.00  0.00    -0.046 A 
ATOM     21  C   UNL     1       1.228  -2.064  -0.020  0.00  0.00    +0.007 A 
ATOM     22  C   UNL     1       1.212  -0.682  -0.013  0.00  0.00    +0.047 A 
ATOM     23  C   UNL     1       0.002  -0.004   0.002  0.00  0.00    +0.135 A 
ATOM     24  C   UNL     1      -1.190  -0.716   0.015  0.00  0.00    +0.060 A 
ATOM     25  C   UNL     1      -1.168  -2.098   0.003  0.00  0.00    +0.022 A 
ATOM     26 BR   UNL     1      -2.841   0.205   0.043  0.00  0.00    -0.047 Br
BRANCH  20  28
ATOM     27  C   UNL     1       0.082  -4.794   1.421  0.00  0.00    +0.009 C 
ATOM     28  C   UNL     1       0.061  -4.278  -0.019  0.00  0.00    +0.032 C 
ENDBRANCH  20  28
ENDBRANCH  19  23
ENDBRANCH  18  19
ENDBRANCH   1  18
TORSDOF 7
