REMARK  Name = ZINC20533532
REMARK  6 active torsions:
REMARK  status: ('A' for Active; 'I' for Inactive)
REMARK    1  A    between atoms: C_1  and  C_2
REMARK    2  A    between atoms: C_16  and  C_19
REMARK    3  A    between atoms: C_19  and  C_20
REMARK    4  A    between atoms: C_20  and  C_21
REMARK    5  A    between atoms: N_26  and  C_29
REMARK    6  A    between atoms: C_33  and  N_35
REMARK                            x       y       z     vdW  Elec       q    Type
REMARK                         _______ _______ _______ _____ _____    ______ ____
ROOT
ATOM      1  C   UNL     1      -1.295   1.143   0.089  0.00  0.00    +0.047 C 
ATOM      2  C   UNL     1      -1.061  -0.345   0.114  0.00  0.00    -0.011 A 
ATOM      3  C   UNL     1      -1.143  -1.075  -1.056  0.00  0.00    +0.046 A 
ATOM      4  C   UNL     1      -0.929  -2.442  -1.042  0.00  0.00    +0.021 A 
ATOM      5  C   UNL     1      -0.633  -3.082   0.149  0.00  0.00    +0.009 A 
ATOM      6  C   UNL     1      -0.550  -2.358   1.317  0.00  0.00    +0.004 A 
ATOM      7  C   UNL     1      -0.756  -0.981   1.315  0.00  0.00    +0.043 A 
ATOM      8  N   UNL     1      -0.613  -0.468   2.606  0.00  0.00    -0.283 N 
ATOM      9  C   UNL     1      -0.312  -1.428   3.502  0.00  0.00    +0.243 C 
ATOM     10  O   UNL     1      -0.131  -1.277   4.691  0.00  0.00    -0.273 OA
ATOM     11  C   UNL     1      -0.256  -2.726   2.743  0.00  0.00    +0.136 C 
ATOM     12  C   UNL     1       1.122  -3.385   2.885  0.00  0.00    +0.123 C 
ATOM     13  C   UNL     1       0.934  -4.445   4.006  0.00  0.00    +0.107 C 
ATOM     14  C   UNL     1      -0.538  -4.302   4.444  0.00  0.00    +0.068 C 
ATOM     15  N   UNL     1      -1.228  -3.708   3.260  0.00  0.00    -0.295 NA
ATOM     16  C   UNL     1       1.129  -5.758   3.283  0.00  0.00    +0.232 C 
ATOM     17  O   UNL     1       1.059  -6.856   3.792  0.00  0.00    -0.274 OA
ATOM     18  N   UNL     1       1.390  -5.520   1.992  0.00  0.00    -0.210 N 
ATOM     19  C   UNL     1       1.419  -4.210   1.653  0.00  0.00    +0.233 C 
ATOM     20  O   UNL     1       1.643  -3.763   0.548  0.00  0.00    -0.274 OA
ATOM     21 CL   UNL     1      -1.516  -0.274  -2.550  0.00  0.00    -0.083 Cl
ATOM     22  H   UNL     1      -0.718   0.469   2.832  0.00  0.00    +0.155 HD
ATOM     23  H   UNL     1      -2.086  -3.255   3.537  0.00  0.00    +0.123 HD
ENDROOT
BRANCH  18  24
ATOM     24  C   UNL     1       1.621  -6.544   1.064  0.00  0.00    +0.046 A 
ATOM     25  C   UNL     1       0.592  -7.405   0.707  0.00  0.00    +0.024 A 
ATOM     26  C   UNL     1       0.823  -8.414  -0.208  0.00  0.00    +0.004 A 
ATOM     27  C   UNL     1       2.078  -8.566  -0.769  0.00  0.00    +0.033 A 
ATOM     28  C   UNL     1       3.105  -7.711  -0.415  0.00  0.00    +0.128 A 
ATOM     29  C   UNL     1       2.878  -6.696   0.495  0.00  0.00    +0.056 A 
BRANCH  28  30
ATOM     30  N   UNL     1       4.447  -7.877  -1.017  0.00  0.00    +0.056 N 
ATOM     31  O   UNL     1       4.644  -8.762  -1.818  0.00  0.00    -0.126 OA
ATOM     32  O   UNL     1       5.345  -7.130  -0.709  0.00  0.00    -0.126 OA
ENDBRANCH  28  30
ENDBRANCH  18  24
BRANCH  14  33
ATOM     33  C   UNL     1      -1.136  -5.675   4.758  0.00  0.00    +0.028 C 
BRANCH  33  34
ATOM     34  C   UNL     1      -2.553  -5.500   5.309  0.00  0.00    +0.097 C 
BRANCH  34  35
ATOM     35  C   UNL     1      -3.142  -6.853   5.618  0.00  0.00    +0.211 C 
ATOM     36  O   UNL     1      -2.492  -7.857   5.418  0.00  0.00    -0.276 OA
ATOM     37  N   UNL     1      -4.391  -6.946   6.117  0.00  0.00    -0.329 N 
ATOM     38  H   UNL     1      -4.910  -6.142   6.277  0.00  0.00    +0.145 HD
ATOM     39  H   UNL     1      -4.770  -7.816   6.316  0.00  0.00    +0.145 HD
ENDBRANCH  34  35
ENDBRANCH  33  34
ENDBRANCH  14  33
TORSDOF 5
