REMARK  Name = ZINC29224767
REMARK  11 active torsions:
REMARK  status: ('A' for Active; 'I' for Inactive)
REMARK    1  A    between atoms: C_1  and  C_2
REMARK    2  A    between atoms: C_2  and  C_3
REMARK    3  A    between atoms: C_3  and  N_4
REMARK    4  A    between atoms: C_5  and  C_7
REMARK    5  A    between atoms: C_7  and  N_8
REMARK    6  A    between atoms: C_11  and  N_14
REMARK    7  A    between atoms: C_15  and  C_17
REMARK    8  A    between atoms: C_20  and  N_26
REMARK    9  A    between atoms: C_21  and  N_23
REMARK   10  A    between atoms: C_28  and  C_35
REMARK   11  A    between atoms: C_31  and  C_34
REMARK                            x       y       z     vdW  Elec       q    Type
REMARK                         _______ _______ _______ _____ _____    ______ ____
ROOT
ATOM      1  N   UNL     1      -6.100   1.681  -0.031  0.00  0.00    -0.309 N 
ATOM      2  C   UNL     1      -4.928   1.051  -0.247  0.00  0.00    +0.244 C 
ATOM      3  O   UNL     1      -4.915  -0.140  -0.491  0.00  0.00    -0.270 OA
ATOM      4  H   UNL     1      -6.112   2.759   0.190  0.00  0.00    +0.149 HD
ENDROOT
BRANCH   1   8
ATOM      5  N   UNL     1     -10.164   0.843  -0.760  0.00  0.00    +0.385 N 
ATOM      6  C   UNL     1      -9.743   0.886   0.646  0.00  0.00    -0.076 C 
ATOM      7  C   UNL     1      -8.416   1.640   0.759  0.00  0.00    +0.004 C 
ATOM      8  C   UNL     1      -7.357   0.931  -0.089  0.00  0.00    +0.070 C 
ATOM      9  C   UNL     1      -7.842   0.857  -1.540  0.00  0.00    +0.004 C 
ATOM     10  C   UNL     1      -9.185   0.125  -1.587  0.00  0.00    -0.076 C 
ATOM     11  H   UNL     1     -10.216   1.879  -1.126  0.00  0.00    -0.081 HD
BRANCH   5  12
ATOM     12  C   UNL     1     -11.501   0.248  -0.891  0.00  0.00    +0.019 C 
BRANCH  12  14
ATOM     13  N   UNL     1     -13.801   0.753  -0.133  0.00  0.00    -0.317 N 
ATOM     14  C   UNL     1     -12.519   1.154  -0.247  0.00  0.00    +0.196 C 
ATOM     15  O   UNL     1     -12.185   2.243   0.169  0.00  0.00    -0.278 OA
ATOM     16  H   UNL     1     -14.104  -0.235  -0.511  0.00  0.00    +0.149 HD
BRANCH  13  17
ATOM     17  C   UNL     1     -14.790   1.633   0.493  0.00  0.00    +0.104 C 
BRANCH  17  19
ATOM     18  C   UNL     1     -17.190   1.862   1.150  0.00  0.00    +0.005 C 
ATOM     19  C   UNL     1     -16.156   0.944   0.496  0.00  0.00    +0.015 C 
ENDBRANCH  17  19
ENDBRANCH  13  17
ENDBRANCH  12  14
ENDBRANCH   5  12
ENDBRANCH   1   8
BRANCH   2  20
ATOM     20  C   UNL     1      -3.663   1.806  -0.189  0.00  0.00    +0.039 A 
ATOM     21  C   UNL     1      -3.676   3.176   0.092  0.00  0.00    +0.015 A 
ATOM     22  C   UNL     1      -2.494   3.877   0.147  0.00  0.00    +0.026 A 
ATOM     23  C   UNL     1      -1.284   3.224  -0.072  0.00  0.00    +0.060 A 
ATOM     24  C   UNL     1      -1.268   1.861  -0.357  0.00  0.00    +0.148 A 
ATOM     25  C   UNL     1      -2.447   1.154  -0.413  0.00  0.00    +0.047 A 
BRANCH  23  26
ATOM     26  N   UNL     1      -0.091   3.935  -0.011  0.00  0.00    -0.328 N 
ATOM     27  C   UNL     1       0.146   4.451   1.343  0.00  0.00    +0.108 C 
ATOM     28  C   UNL     1       1.530   5.099   1.409  0.00  0.00    +0.003 C 
ATOM     29  C   UNL     1       1.604   6.238   0.388  0.00  0.00    +0.009 C 
ATOM     30  C   UNL     1       1.306   5.683  -1.007  0.00  0.00    +0.003 C 
ATOM     31  C   UNL     1      -0.072   5.018  -1.003  0.00  0.00    +0.108 C 
ATOM     32  C   UNL     1       1.319   6.825  -2.025  0.00  0.00    +0.009 C 
ATOM     33  C   UNL     1       2.600   4.054   1.085  0.00  0.00    +0.009 C 
ENDBRANCH  23  26
BRANCH  24  34
ATOM     34  N   UNL     1       0.020   1.171  -0.594  0.00  0.00    +0.058 N 
ATOM     35  O   UNL     1       0.036  -0.022  -0.839  0.00  0.00    -0.126 OA
ATOM     36  O   UNL     1       1.064   1.798  -0.550  0.00  0.00    -0.126 OA
ENDBRANCH  24  34
ENDBRANCH   2  20
TORSDOF 8
