REMARK  Name = ZINC38746883
REMARK  6 active torsions:
REMARK  status: ('A' for Active; 'I' for Inactive)
REMARK    1  A    between atoms: C_1  and  C_2
REMARK    2  A    between atoms: C_10  and  S_14
REMARK    3  A    between atoms: S_14  and  C_15
REMARK    4  A    between atoms: C_15  and  C_16
REMARK    5  A    between atoms: N_18  and  C_19
REMARK    6  A    between atoms: C_20  and  C_28
REMARK                            x       y       z     vdW  Elec       q    Type
REMARK                         _______ _______ _______ _____ _____    ______ ____
ROOT
ATOM      1  C   UNL     1      -5.252  -4.467   8.086  0.00  0.00    +0.228 C 
ATOM      2  O   UNL     1      -4.497  -4.838   8.959  0.00  0.00    -0.275 OA
ATOM      3  N   UNL     1      -6.563  -4.773   8.153  0.00  0.00    -0.279 N 
ATOM      4  H   UNL     1      -7.167  -4.476   7.455  0.00  0.00    +0.155 HD
ENDROOT
BRANCH   3   5
ATOM      5  C   UNL     1      -7.048  -5.512   9.221  0.00  0.00    +0.084 A 
ATOM      6  C   UNL     1      -8.352  -5.922   9.451  0.00  0.00    +0.068 A 
ATOM      7  C   UNL     1      -8.603  -6.694  10.655  0.00  0.00    -0.023 A 
ATOM      8  C   UNL     1      -7.504  -6.915  11.409  0.00  0.00    -0.004 A 
ATOM      9  S   UNL     1      -6.190  -6.124  10.528  0.00  0.00    -0.077 S 
ATOM     10  C   UNL     1      -7.436  -7.670  12.700  0.00  0.00    +0.043 C 
ATOM     11  C   UNL     1      -8.865  -7.837  13.237  0.00  0.00    +0.005 C 
ATOM     12  C   UNL     1      -9.765  -8.337  12.104  0.00  0.00    +0.005 C 
ATOM     13  C   UNL     1      -9.966  -7.227  11.070  0.00  0.00    +0.037 C 
BRANCH   6  14
ATOM     14  C   UNL     1      -9.433  -5.589   8.518  0.00  0.00    +0.244 C 
ATOM     15  O   UNL     1      -9.697  -6.341   7.599  0.00  0.00    -0.270 OA
ATOM     16  N   UNL     1     -10.135  -4.449   8.679  0.00  0.00    -0.325 N 
ATOM     17  H   UNL     1      -9.925  -3.850   9.412  0.00  0.00    +0.145 HD
ATOM     18  H   UNL     1     -10.850  -4.229   8.062  0.00  0.00    +0.145 HD
ENDBRANCH   6  14
ENDBRANCH   3   5
BRANCH   1  19
ATOM     19  C   UNL     1      -4.724  -3.663   6.926  0.00  0.00    +0.173 C 
BRANCH  19  20
ATOM     20  S   UNL     1      -2.938  -3.418   7.122  0.00  0.00    -0.079 S 
BRANCH  20  29
ATOM     21  C   UNL     1      -0.019   1.526   0.010  0.00  0.00    +0.007 C 
ATOM     22  C   UNL     1       0.002  -0.004   0.002  0.00  0.00    -0.012 C 
ATOM     23  C   UNL     1      -1.433  -0.525  -0.005  0.00  0.00    +0.008 C 
ATOM     24  C   UNL     1      -2.203   0.012   1.209  0.00  0.00    +0.033 C 
ATOM     25  C   UNL     1      -1.371  -0.335   2.442  0.00  0.00    -0.042 C 
ATOM     26  C   UNL     1      -1.821  -1.009   3.497  0.00  0.00    +0.071 C 
ATOM     27  C   UNL     1      -0.840  -1.434   4.533  0.00  0.00    +0.112 C 
ATOM     28  N   UNL     1      -1.185  -2.138   5.580  0.00  0.00    -0.217 NA
ATOM     29  C   UNL     1      -2.478  -2.475   5.706  0.00  0.00    +0.182 C 
ATOM     30  N   UNL     1      -3.432  -2.156   4.853  0.00  0.00    -0.151 NA
ATOM     31  C   UNL     1      -3.240  -1.445   3.732  0.00  0.00    +0.272 C 
ATOM     32  O   UNL     1      -4.147  -1.172   2.964  0.00  0.00    -0.268 OA
ATOM     33  S   UNL     1       0.704  -0.777   3.985  0.00  0.00    -0.097 S 
ATOM     34  C   UNL     1       0.100   0.085   2.483  0.00  0.00    +0.080 C 
ATOM     35  C   UNL     1       0.760  -0.504   1.236  0.00  0.00    +0.022 C 
ENDBRANCH  20  29
ENDBRANCH  19  20
ENDBRANCH   1  19
TORSDOF 5
