REMARK  Name = ZINC39678372
REMARK  10 active torsions:
REMARK  status: ('A' for Active; 'I' for Inactive)
REMARK    1  A    between atoms: C_1  and  C_2
REMARK    2  A    between atoms: C_2  and  C_3
REMARK    3  A    between atoms: C_2  and  C_4
REMARK    4  A    between atoms: C_4  and  C_6
REMARK    5  A    between atoms: C_4  and  O_35
REMARK    6  A    between atoms: C_10  and  C_19
REMARK    7  A    between atoms: N_21  and  C_22
REMARK    8  A    between atoms: C_22  and  C_23
REMARK    9  A    between atoms: C_28  and  N_29
REMARK   10  A    between atoms: O_35  and  C_36
REMARK                            x       y       z     vdW  Elec       q    Type
REMARK                         _______ _______ _______ _____ _____    ______ ____
ROOT
ATOM      1  C   UNL     1      -1.616  -2.514  -0.154  0.00  0.00    +0.257 C 
ATOM      2  O   UNL     1      -1.928  -3.199   0.796  0.00  0.00    -0.272 OA
ATOM      3  N   UNL     1      -0.953  -3.062  -1.192  0.00  0.00    -0.297 N 
ATOM      4  C   UNL     1      -0.558  -2.412  -2.464  0.00  0.00    +0.121 C 
ATOM      5  C   UNL     1       0.851  -2.969  -2.767  0.00  0.00    +0.100 C 
ATOM      6  C   UNL     1       0.913  -4.308  -2.014  0.00  0.00    -0.004 C 
ATOM      7  C   UNL     1      -0.447  -4.450  -1.315  0.00  0.00    +0.115 C 
ATOM      8  C   UNL     1       2.032  -4.279  -0.976  0.00  0.00    -0.010 C 
ATOM      9  C   UNL     1       2.111  -5.641  -0.280  0.00  0.00    -0.082 C 
ATOM     10  N   UNL     1       2.368  -6.688  -1.277  0.00  0.00    +0.379 N 
ATOM     11  C   UNL     1       1.244  -6.771  -2.217  0.00  0.00    -0.082 C 
ATOM     12  C   UNL     1       1.127  -5.457  -2.994  0.00  0.00    -0.010 C 
ATOM     13  H   UNL     1       3.212  -6.468  -1.784  0.00  0.00    -0.086 HD
ATOM     14  H   UNL     1       2.481  -7.575  -0.810  0.00  0.00    -0.086 HD
ENDROOT
BRANCH   5  15
ATOM     15  C   UNL     1       1.020  -3.188  -4.248  0.00  0.00    +0.218 C 
ATOM     16  O   UNL     1       0.117  -3.672  -4.897  0.00  0.00    -0.275 OA
ATOM     17  N   UNL     1       2.176  -2.848  -4.851  0.00  0.00    -0.311 N 
ATOM     18  H   UNL     1       2.899  -2.461  -4.332  0.00  0.00    +0.149 HD
BRANCH  17  19
ATOM     19  C   UNL     1       2.342  -3.061  -6.291  0.00  0.00    +0.141 C 
BRANCH  19  20
ATOM     20  C   UNL     1       3.713  -2.600  -6.713  0.00  0.00    -0.009 A 
ATOM     21  C   UNL     1       3.874  -1.363  -7.307  0.00  0.00    +0.007 A 
ATOM     22  C   UNL     1       5.132  -0.940  -7.695  0.00  0.00    +0.000 A 
ATOM     23  C   UNL     1       6.232  -1.752  -7.490  0.00  0.00    +0.002 A 
ATOM     24  C   UNL     1       6.078  -2.990  -6.897  0.00  0.00    +0.023 A 
ATOM     25  C   UNL     1       4.817  -3.416  -6.501  0.00  0.00    +0.034 A 
BRANCH  25  26
ATOM     26  N   UNL     1       4.658  -4.665  -5.896  0.00  0.00    -0.330 N 
ATOM     27  C   UNL     1       4.407  -5.864  -6.708  0.00  0.00    +0.105 C 
ATOM     28  C   UNL     1       5.446  -6.930  -6.348  0.00  0.00    +0.019 C 
ATOM     29  C   UNL     1       5.415  -7.176  -4.838  0.00  0.00    +0.003 C 
ATOM     30  C   UNL     1       5.774  -5.884  -4.101  0.00  0.00    +0.019 C 
ATOM     31  C   UNL     1       4.745  -4.806  -4.437  0.00  0.00    +0.105 C 
ENDBRANCH  25  26
ENDBRANCH  19  20
ENDBRANCH  17  19
ENDBRANCH   5  15
BRANCH   1  32
ATOM     32  C   UNL     1      -1.970  -1.049  -0.176  0.00  0.00    +0.261 C 
BRANCH  32  34
ATOM     33  C   UNL     1      -1.046   1.272  -0.167  0.00  0.00    +0.011 C 
ATOM     34  C   UNL     1      -0.692  -0.214  -0.075  0.00  0.00    +0.033 C 
ATOM     35  C   UNL     1      -0.005  -0.493   1.263  0.00  0.00    +0.011 C 
ENDBRANCH  32  34
BRANCH  32  36
ATOM     36  O   UNL     1      -2.824  -0.749   0.930  0.00  0.00    -0.479 OA
BRANCH  36  37
ATOM     37  C   UNL     1      -3.775   0.202   0.735  0.00  0.00    +0.122 A 
ATOM     38  C   UNL     1      -3.930   0.783  -0.516  0.00  0.00    +0.045 A 
ATOM     39  C   UNL     1      -4.899   1.749  -0.712  0.00  0.00    +0.004 A 
ATOM     40  C   UNL     1      -5.712   2.137   0.337  0.00  0.00    +0.000 A 
ATOM     41  C   UNL     1      -5.559   1.559   1.584  0.00  0.00    +0.004 A 
ATOM     42  C   UNL     1      -4.597   0.589   1.784  0.00  0.00    +0.045 A 
ENDBRANCH  36  37
ENDBRANCH  32  36
ENDBRANCH   1  32
TORSDOF 8
