REMARK  Name = ZINC39674120
REMARK  8 active torsions:
REMARK  status: ('A' for Active; 'I' for Inactive)
REMARK    1  A    between atoms: C_1  and  C_2
REMARK    2  A    between atoms: C_4  and  C_12
REMARK    3  A    between atoms: C_12  and  C_13
REMARK    4  A    between atoms: C_13  and  N_14
REMARK    5  A    between atoms: C_15  and  C_17
REMARK    6  A    between atoms: C_28  and  C_30
REMARK    7  A    between atoms: C_33  and  C_37
REMARK    8  A    between atoms: N_34  and  C_36
REMARK                            x       y       z     vdW  Elec       q    Type
REMARK                         _______ _______ _______ _____ _____    ______ ____
ROOT
ATOM      1  C   UNL     1      -5.411   3.612   3.667  0.00  0.00    +0.100 C 
ATOM      2  C   UNL     1      -6.835   3.450   3.090  0.00  0.00    +0.121 C 
ATOM      3  N   UNL     1      -7.710   4.173   4.043  0.00  0.00    -0.299 N 
ATOM      4  C   UNL     1      -6.932   5.379   4.416  0.00  0.00    +0.115 C 
ATOM      5  C   UNL     1      -5.478   4.879   4.536  0.00  0.00    -0.004 C 
ATOM      6  C   UNL     1      -4.512   5.934   4.007  0.00  0.00    -0.010 C 
ATOM      7  C   UNL     1      -4.554   7.162   4.921  0.00  0.00    -0.082 C 
ATOM      8  N   UNL     1      -4.183   6.771   6.286  0.00  0.00    +0.379 N 
ATOM      9  C   UNL     1      -5.170   5.825   6.822  0.00  0.00    -0.082 C 
ATOM     10  C   UNL     1      -5.154   4.541   5.988  0.00  0.00    -0.010 C 
ATOM     11  C   UNL     1      -8.935   3.815   4.474  0.00  0.00    +0.238 C 
ATOM     12  O   UNL     1      -9.531   4.519   5.263  0.00  0.00    -0.273 OA
ATOM     13  H   UNL     1      -3.273   6.335   6.274  0.00  0.00    -0.086 HD
ATOM     14  H   UNL     1      -4.152   7.591   6.873  0.00  0.00    -0.086 HD
ENDROOT
BRANCH  11  15
ATOM     15  C   UNL     1      -9.566   2.540   3.977  0.00  0.00    +0.183 C 
ATOM     16  C   UNL     1      -9.795   2.610   2.482  0.00  0.00    +0.022 C 
ATOM     17  C   UNL     1     -11.094   2.500   2.290  0.00  0.00    +0.017 C 
ATOM     18  N   UNL     1     -11.777   2.362   3.482  0.00  0.00    -0.274 N 
ATOM     19  N   UNL     1     -10.918   2.376   4.548  0.00  0.00    -0.225 NA
ATOM     20  C   UNL     1     -13.231   2.220   3.593  0.00  0.00    +0.149 C 
ATOM     21  C   UNL     1     -11.753   2.522   0.935  0.00  0.00    +0.061 C 
ATOM     22  H   UNL     1     -11.138   3.131   5.180  0.00  0.00    +0.146 HD
ENDBRANCH  11  15
BRANCH   1  24
ATOM     23  N   UNL     1      -3.136   3.388   2.723  0.00  0.00    -0.315 N 
ATOM     24  C   UNL     1      -4.411   3.791   2.554  0.00  0.00    +0.218 C 
ATOM     25  O   UNL     1      -4.754   4.298   1.507  0.00  0.00    -0.275 OA
ATOM     26  H   UNL     1      -2.862   2.983   3.560  0.00  0.00    +0.149 HD
BRANCH  23  27
ATOM     27  C   UNL     1      -2.164   3.563   1.641  0.00  0.00    +0.109 C 
BRANCH  27  28
ATOM     28  C   UNL     1      -0.802   3.027   2.087  0.00  0.00    +0.056 C 
BRANCH  28  32
ATOM     29  C   UNL     1       1.008   5.508   1.638  0.00  0.00    +0.063 C 
ATOM     30  C   UNL     1       0.985   4.275   0.772  0.00  0.00    +0.017 A 
ATOM     31  H   UNL     1       2.403   4.717  -0.687  0.00  0.00    +0.166 HD
ATOM     32  C   UNL     1       0.198   3.206   0.974  0.00  0.00    -0.018 A 
ATOM     33  C   UNL     1       0.497   2.247  -0.092  0.00  0.00    +0.003 A 
ATOM     34  C   UNL     1       0.017   0.977  -0.418  0.00  0.00    +0.010 A 
ATOM     35  C   UNL     1       0.514   0.323  -1.510  0.00  0.00    +0.001 A 
ATOM     36  C   UNL     1       1.492   0.912  -2.299  0.00  0.00    +0.002 A 
ATOM     37  C   UNL     1       1.980   2.164  -1.996  0.00  0.00    +0.026 A 
ATOM     38  C   UNL     1       1.489   2.848  -0.889  0.00  0.00    +0.047 A 
ATOM     39  N   UNL     1       1.759   4.081  -0.339  0.00  0.00    -0.358 N 
ENDBRANCH  28  32
ENDBRANCH  27  28
ENDBRANCH  23  27
ENDBRANCH   1  24
TORSDOF 5
