REMARK  Name = ZINC03918087
REMARK  13 active torsions:
REMARK  status: ('A' for Active; 'I' for Inactive)
REMARK    1  A    between atoms: C_1  and  C_2
REMARK    2  A    between atoms: C_4  and  O_43
REMARK    3  A    between atoms: C_6  and  N_68
REMARK    4  A    between atoms: C_9  and  O_12
REMARK    5  A    between atoms: O_12  and  C_13
REMARK    6  A    between atoms: C_16  and  C_38
REMARK    7  A    between atoms: C_16  and  O_42
REMARK    8  A    between atoms: C_20  and  O_37
REMARK    9  A    between atoms: C_23  and  O_24
REMARK   10  A    between atoms: C_31  and  O_35
REMARK   11  A    between atoms: O_35  and  C_36
REMARK   12  A    between atoms: C_38  and  C_40
REMARK   13  A    between atoms: C_40  and  O_41
REMARK                            x       y       z     vdW  Elec       q    Type
REMARK                         _______ _______ _______ _____ _____    ______ ____
ROOT
ATOM      1  C   UNL     1       0.787   1.620   2.842  0.00  0.00    +0.158 C 
ATOM      2  C   UNL     1       1.871   1.848   3.894  0.00  0.00    +0.079 C 
ATOM      3  C   UNL     1       2.661   3.104   3.507  0.00  0.00    +0.133 C 
ATOM      4  C   UNL     1       3.481   2.790   2.257  0.00  0.00    +0.082 C 
ATOM      5  C   UNL     1       2.609   2.187   1.186  0.00  0.00    +0.007 A 
ATOM      6  C   UNL     1       1.377   1.647   1.455  0.00  0.00    +0.030 A 
ATOM      7  C   UNL     1       0.616   1.085   0.422  0.00  0.00    +0.134 A 
ATOM      8  C   UNL     1       1.092   1.082  -0.887  0.00  0.00    +0.078 A 
ATOM      9  C   UNL     1       2.353   1.645  -1.166  0.00  0.00    +0.078 A 
ATOM     10  C   UNL     1       3.102   2.193  -0.125  0.00  0.00    +0.132 A 
ATOM     11  C   UNL     1       2.871   1.651  -2.545  0.00  0.00    +0.198 C 
ATOM     12  O   UNL     1       3.958   2.139  -2.785  0.00  0.00    -0.286 OA
ATOM     13  C   UNL     1       2.065   1.064  -3.635  0.00  0.00    +0.037 A 
ATOM     14  C   UNL     1       2.544   1.065  -4.941  0.00  0.00    +0.012 A 
ATOM     15  C   UNL     1       1.784   0.515  -5.960  0.00  0.00    +0.004 A 
ATOM     16  C   UNL     1       0.548  -0.038  -5.693  0.00  0.00    +0.046 A 
ATOM     17  C   UNL     1       0.049  -0.051  -4.394  0.00  0.00    +0.132 A 
ATOM     18  C   UNL     1       0.805   0.501  -3.356  0.00  0.00    +0.075 A 
ATOM     19  C   UNL     1       0.289   0.496  -1.975  0.00  0.00    +0.202 C 
ATOM     20  O   UNL     1      -0.799   0.009  -1.734  0.00  0.00    -0.286 OA
ENDROOT
BRANCH  10  21
ATOM     21  O   UNL     1       4.317   2.735  -0.384  0.00  0.00    -0.506 OA
ATOM     22  H   UNL     1       4.290   3.678  -0.599  0.00  0.00    +0.292 HD
ENDBRANCH  10  21
BRANCH  17  23
ATOM     23  O   UNL     1      -1.165  -0.596  -4.136  0.00  0.00    -0.494 OA
ATOM     24  C   UNL     1      -1.880  -1.141  -5.247  0.00  0.00    +0.277 C 
ENDBRANCH  17  23
BRANCH   7  25
ATOM     25  O   UNL     1      -0.597   0.544   0.697  0.00  0.00    -0.506 OA
ATOM     26  H   UNL     1      -0.579  -0.412   0.839  0.00  0.00    +0.292 HD
ENDBRANCH   7  25
BRANCH   3  27
ATOM     27  C   UNL     1       1.708   4.235   3.217  0.00  0.00    +0.190 C 
ATOM     28  O   UNL     1       1.355   4.452   2.083  0.00  0.00    -0.292 OA
BRANCH  27  29
ATOM     29  C   UNL     1       1.194   5.094   4.344  0.00  0.00    +0.233 C 
BRANCH  29  30
ATOM     30  O   UNL     1       0.312   6.089   3.820  0.00  0.00    -0.387 OA
ATOM     31  H   UNL     1      -0.058   6.679   4.491  0.00  0.00    +0.210 HD
ENDBRANCH  29  30
ENDBRANCH  27  29
ENDBRANCH   3  27
BRANCH   3  32
ATOM     32  O   UNL     1       3.535   3.473   4.576  0.00  0.00    -0.381 OA
ATOM     33  H   UNL     1       4.077   4.252   4.390  0.00  0.00    +0.211 HD
ENDBRANCH   3  32
BRANCH   1  34
ATOM     34  O   UNL     1       0.170   0.352   3.070  0.00  0.00    -0.343 OA
BRANCH  34  40
ATOM     35  C   UNL     1       0.515   0.094   7.244  0.00  0.00    +0.040 C 
ATOM     36  C   UNL     1       0.190  -0.301   5.803  0.00  0.00    +0.145 C 
ATOM     37  C   UNL     1      -0.508  -1.664   5.792  0.00  0.00    +0.129 C 
ATOM     38  C   UNL     1      -0.884  -2.025   4.352  0.00  0.00    -0.039 C 
ATOM     39  C   UNL     1      -1.766  -0.915   3.772  0.00  0.00    +0.048 C 
ATOM     40  C   UNL     1      -1.019   0.419   3.861  0.00  0.00    +0.250 C 
ATOM     41  O   UNL     1      -0.672   0.679   5.222  0.00  0.00    -0.346 OA
BRANCH  38  44
ATOM     42  H   UNL     1      -1.881  -3.554   3.400  0.00  0.00    -0.090 HD
ATOM     43  H   UNL     1      -1.088  -4.028   4.783  0.00  0.00    -0.090 HD
ATOM     44  N   UNL     1      -1.642  -3.288   4.354  0.00  0.00    +0.382 N 
ATOM     45  H   UNL     1      -2.507  -3.162   4.893  0.00  0.00    -0.090 HD
ENDBRANCH  38  44
BRANCH  37  46
ATOM     46  O   UNL     1      -1.691  -1.600   6.593  0.00  0.00    -0.391 OA
ATOM     47  H   UNL     1      -1.528  -1.371   7.518  0.00  0.00    +0.210 HD
ENDBRANCH  37  46
ENDBRANCH  34  40
ENDBRANCH   1  34
TORSDOF 11
