REMARK  Name = ZINC08140739
REMARK  7 active torsions:
REMARK  status: ('A' for Active; 'I' for Inactive)
REMARK    1  A    between atoms: C_1  and  O_2
REMARK    2  A    between atoms: O_2  and  C_3
REMARK    3  A    between atoms: C_13  and  C_15
REMARK    4  A    between atoms: C_15  and  S_16
REMARK    5  A    between atoms: S_16  and  C_17
REMARK    6  A    between atoms: C_20  and  C_23
REMARK    7  A    between atoms: N_21  and  N_22
REMARK                            x       y       z     vdW  Elec       q    Type
REMARK                         _______ _______ _______ _____ _____    ______ ____
ROOT
ATOM      1  C   UNL     1      -7.005   8.582  10.791  0.00  0.00    +0.121 A 
ATOM      2  C   UNL     1      -6.658   9.240   9.614  0.00  0.00    +0.048 A 
ATOM      3  C   UNL     1      -6.007   8.591   8.598  0.00  0.00    +0.032 A 
ATOM      4  C   UNL     1      -5.665   7.224   8.714  0.00  0.00    +0.081 A 
ATOM      5  C   UNL     1      -6.032   6.587   9.920  0.00  0.00    +0.044 A 
ATOM      6  C   UNL     1      -6.684   7.240  10.936  0.00  0.00    +0.063 A 
ATOM      7  S   UNL     1      -5.446   4.929   9.666  0.00  0.00    -0.052 S 
ATOM      8  C   UNL     1      -4.765   5.179   8.033  0.00  0.00    +0.165 A 
ATOM      9  N   UNL     1      -5.028   6.445   7.811  0.00  0.00    -0.225 NA
ATOM     10  N   UNL     1      -4.126   4.267   7.208  0.00  0.00    -0.264 N 
ATOM     11  C   UNL     1      -3.683   4.650   5.994  0.00  0.00    +0.229 C 
ATOM     12  O   UNL     1      -3.843   5.794   5.624  0.00  0.00    -0.275 OA
ATOM     13  H   UNL     1      -3.998   3.352   7.504  0.00  0.00    +0.157 HD
ENDROOT
BRANCH   1  15
ATOM     14  C   UNL     1      -7.947  10.626  11.559  0.00  0.00    +0.277 C 
ATOM     15  O   UNL     1      -7.652   9.246  11.786  0.00  0.00    -0.495 OA
ENDBRANCH   1  15
BRANCH  11  16
ATOM     16  C   UNL     1      -2.989   3.658   5.098  0.00  0.00    +0.173 C 
BRANCH  16  17
ATOM     17  S   UNL     1      -2.517   4.470   3.550  0.00  0.00    -0.075 S 
BRANCH  17  18
ATOM     18  C   UNL     1      -1.749   3.120   2.718  0.00  0.00    +0.209 A 
ATOM     19  N   UNL     1      -1.606   1.899   3.178  0.00  0.00    -0.121 NA
ATOM     20  N   UNL     1      -1.005   1.171   2.305  0.00  0.00    -0.123 NA
ATOM     21  C   UNL     1      -0.722   1.881   1.250  0.00  0.00    +0.255 A 
ATOM     22  N   UNL     1      -1.189   3.147   1.473  0.00  0.00    -0.220 N 
BRANCH  21  23
ATOM     23  C   UNL     1      -0.017   1.395   0.010  0.00  0.00    +0.454 C 
ATOM     24  F   UNL     1       0.002  -0.004   0.002  0.00  0.00    -0.163 F 
ATOM     25  F   UNL     1       1.296   1.879  -0.000  0.00  0.00    -0.163 F 
ATOM     26  F   UNL     1      -0.694   1.858  -1.124  0.00  0.00    -0.163 F 
ENDBRANCH  21  23
BRANCH  22  27
ATOM     27  N   UNL     1      -1.111   4.216   0.626  0.00  0.00    -0.295 N 
ATOM     28  H   UNL     1      -1.920   4.260   0.024  0.00  0.00    +0.163 HD
ATOM     29  H   UNL     1      -0.996   5.076   1.140  0.00  0.00    +0.163 HD
ENDBRANCH  22  27
ENDBRANCH  17  18
ENDBRANCH  16  17
ENDBRANCH  11  16
TORSDOF 6
