REMARK  Name = ZINC13498525
REMARK  10 active torsions:
REMARK  status: ('A' for Active; 'I' for Inactive)
REMARK    1  A    between atoms: C_1  and  C_2
REMARK    2  A    between atoms: C_7  and  C_14
REMARK    3  A    between atoms: C_14  and  N_75
REMARK    4  A    between atoms: C_15  and  N_75
REMARK    5  A    between atoms: C_21  and  C_23
REMARK    6  A    between atoms: C_21  and  C_34
REMARK    7  A    between atoms: C_21  and  N_75
REMARK    8  A    between atoms: N_27  and  C_28
REMARK    9  A    between atoms: C_34  and  C_35
REMARK   10  A    between atoms: C_34  and  C_36
REMARK                            x       y       z     vdW  Elec       q    Type
REMARK                         _______ _______ _______ _____ _____    ______ ____
ROOT
ATOM      1  N   UNL     1       1.075   3.878  -0.190  0.00  0.00    +0.391 N 
ATOM      2  H   UNL     1       0.620   3.752  -1.102  0.00  0.00    -0.080 HD
ENDROOT
BRANCH   1   3
ATOM      3  C   UNL     1       0.042   3.860   0.868  0.00  0.00    -0.067 C 
ATOM      4  C   UNL     1       0.693   3.813   2.252  0.00  0.00    -0.015 C 
ATOM      5  C   UNL     1      -0.395   3.791   3.326  0.00  0.00    -0.002 C 
ATOM      6  C   UNL     1      -1.276   2.554   3.135  0.00  0.00    -0.000 C 
ATOM      7  C   UNL     1      -1.927   2.601   1.751  0.00  0.00    -0.002 C 
ATOM      8  C   UNL     1      -0.838   2.624   0.676  0.00  0.00    -0.015 C 
ENDBRANCH   1   3
BRANCH   1   9
ATOM      9  C   UNL     1       1.784   5.176  -0.182  0.00  0.00    -0.036 C 
BRANCH   9  16
ATOM     10  C   UNL     1      -3.397  11.045  -1.712  0.00  0.00    +0.044 C 
ATOM     11  C   UNL     1      -2.459   9.983  -1.197  0.00  0.00    -0.048 A 
ATOM     12  C   UNL     1      -2.304   9.808   0.171  0.00  0.00    +0.004 A 
ATOM     13  C   UNL     1      -1.459   8.851   0.658  0.00  0.00    +0.010 A 
ATOM     14  C   UNL     1      -0.744   8.041  -0.230  0.00  0.00    -0.001 A 
ATOM     15  C   UNL     1       0.165   7.002   0.258  0.00  0.00    +0.017 A 
ATOM     16  C   UNL     1       0.836   6.250  -0.650  0.00  0.00    +0.001 A 
ATOM     17  C   UNL     1       0.645   6.465  -2.032  0.00  0.00    +0.251 A 
ATOM     18  O   UNL     1       1.253   5.774  -2.830  0.00  0.00    -0.268 OA
ATOM     19  N   UNL     1      -0.192   7.413  -2.489  0.00  0.00    -0.322 N 
ATOM     20  H   UNL     1      -0.299   7.535  -3.445  0.00  0.00    +0.169 HD
ATOM     21  C   UNL     1      -0.898   8.215  -1.618  0.00  0.00    +0.049 A 
ATOM     22  C   UNL     1      -1.764   9.197  -2.091  0.00  0.00    +0.029 A 
ENDBRANCH   9  16
ENDBRANCH   1   9
BRANCH   1  23
ATOM     23  C   UNL     1       2.036   2.776   0.024  0.00  0.00    +0.006 C 
BRANCH  23  24
ATOM     24  C   UNL     1       3.166   3.229   0.911  0.00  0.00    +0.139 A 
ATOM     25  N   UNL     1       3.861   4.335   0.791  0.00  0.00    -0.115 NA
ATOM     26  N   UNL     1       4.734   4.361   1.739  0.00  0.00    -0.023 NA
ATOM     27  N   UNL     1       4.614   3.301   2.460  0.00  0.00    -0.044 NA
ATOM     28  N   UNL     1       3.658   2.579   1.982  0.00  0.00    -0.228 N 
BRANCH  28  29
ATOM     29  C   UNL     1       3.195   1.291   2.506  0.00  0.00    +0.111 C 
ATOM     30  C   UNL     1       2.713   1.470   3.947  0.00  0.00    +0.027 C 
ATOM     31  C   UNL     1       2.230   0.126   4.494  0.00  0.00    +0.002 C 
ATOM     32  C   UNL     1       3.381  -0.881   4.463  0.00  0.00    +0.000 C 
ATOM     33  C   UNL     1       3.864  -1.060   3.022  0.00  0.00    +0.002 C 
ATOM     34  C   UNL     1       4.347   0.284   2.475  0.00  0.00    +0.027 C 
ENDBRANCH  28  29
ENDBRANCH  23  24
BRANCH  23  35
ATOM     35  C   UNL     1       2.595   2.347  -1.335  0.00  0.00    -0.024 C 
ATOM     36  C   UNL     1       1.453   1.846  -2.221  0.00  0.00    +0.006 C 
ATOM     37  C   UNL     1       3.276   3.541  -2.006  0.00  0.00    +0.006 C 
ENDBRANCH  23  35
ENDBRANCH   1  23
TORSDOF 7
