REMARK  Name = ZINC12481931
REMARK  11 active torsions:
REMARK  status: ('A' for Active; 'I' for Inactive)
REMARK    1  A    between atoms: C_1  and  C_2
REMARK    2  A    between atoms: N_4  and  C_5
REMARK    3  A    between atoms: C_5  and  C_6
REMARK    4  A    between atoms: C_6  and  N_7
REMARK    5  A    between atoms: C_8  and  C_10
REMARK    6  A    between atoms: C_10  and  C_11
REMARK    7  A    between atoms: C_16  and  C_18
REMARK    8  A    between atoms: C_18  and  C_19
REMARK    9  A    between atoms: C_21  and  C_24
REMARK   10  A    between atoms: C_24  and  S_25
REMARK   11  A    between atoms: S_25  and  C_26
REMARK                            x       y       z     vdW  Elec       q    Type
REMARK                         _______ _______ _______ _____ _____    ______ ____
ROOT
ATOM      1  C   UNL     1      -0.187   1.212   4.911  0.00  0.00    -0.002 C 
ATOM      2  C   UNL     1      -0.273  -0.316   4.969  0.00  0.00    -0.015 C 
ATOM      3  C   UNL     1       0.416  -0.813   6.242  0.00  0.00    -0.082 C 
ATOM      4  C   UNL     1      -0.128   1.242   7.407  0.00  0.00    -0.079 C 
ATOM      5  C   UNL     1      -0.833   1.800   6.168  0.00  0.00    -0.019 C 
ATOM      6  N   UNL     1      -0.244  -0.229   7.425  0.00  0.00    +0.379 N 
ATOM      7  H   UNL     1       0.202  -0.593   8.275  0.00  0.00    -0.086 HD
ATOM      8  H   UNL     1      -1.238  -0.490   7.421  0.00  0.00    -0.086 HD
ENDROOT
BRANCH   1   9
ATOM      9  C   UNL     1      -0.927   1.718   3.671  0.00  0.00    +0.099 C 
BRANCH   9  11
ATOM     10  N   UNL     1      -0.698   1.558   1.213  0.00  0.00    -0.314 N 
ATOM     11  C   UNL     1      -0.222   1.232   2.431  0.00  0.00    +0.213 C 
ATOM     12  O   UNL     1       0.774   0.548   2.529  0.00  0.00    -0.276 OA
ATOM     13  H   UNL     1      -1.495   2.106   1.135  0.00  0.00    +0.149 HD
BRANCH  10  14
ATOM     14  C   UNL     1      -0.013   1.086   0.008  0.00  0.00    +0.123 C 
BRANCH  14  15
ATOM     15  C   UNL     1      -0.753   1.593  -1.232  0.00  0.00    +0.123 C 
BRANCH  15  19
ATOM     16  C   UNL     1       0.162   0.960  -4.895  0.00  0.00    +0.109 C 
ATOM     17  C   UNL     1      -0.543   1.446  -3.655  0.00  0.00    +0.210 C 
ATOM     18  O   UNL     1      -1.540   2.130  -3.753  0.00  0.00    -0.276 OA
ATOM     19  N   UNL     1      -0.067   1.120  -2.437  0.00  0.00    -0.314 N 
ATOM     20  H   UNL     1       0.730   0.573  -2.358  0.00  0.00    +0.149 HD
ENDBRANCH  15  19
ENDBRANCH  14  15
ENDBRANCH  10  14
ENDBRANCH   9  11
ENDBRANCH   1   9
BRANCH   5  21
ATOM     21  C   UNL     1      -2.314   1.418   6.208  0.00  0.00    +0.061 C 
BRANCH  21  22
ATOM     22  C   UNL     1      -2.977   2.097   7.379  0.00  0.00    +0.084 A 
ATOM     23  C   UNL     1      -4.117   2.932   7.339  0.00  0.00    +0.071 A 
ATOM     24  C   UNL     1      -4.310   3.284   8.633  0.00  0.00    +0.148 A 
ATOM     25  O   UNL     1      -3.341   2.685   9.338  0.00  0.00    -0.359 OA
ATOM     26  N   UNL     1      -2.616   2.027   8.628  0.00  0.00    -0.083 NA
BRANCH  24  27
ATOM     27  C   UNL     1      -5.399   4.175   9.172  0.00  0.00    +0.151 C 
BRANCH  27  28
ATOM     28  S   UNL     1      -6.842   3.167   9.612  0.00  0.00    -0.117 S 
BRANCH  28  29
ATOM     29  C   UNL     1      -8.011   4.338  10.218  0.00  0.00    +0.008 A 
ATOM     30  C   UNL     1      -7.684   5.688  10.266  0.00  0.00    +0.015 A 
ATOM     31  C   UNL     1      -8.605   6.603  10.736  0.00  0.00    +0.001 A 
ATOM     32  C   UNL     1      -9.847   6.177  11.170  0.00  0.00    +0.000 A 
ATOM     33  C   UNL     1     -10.174   4.833  11.129  0.00  0.00    +0.001 A 
ATOM     34  C   UNL     1      -9.260   3.913  10.655  0.00  0.00    +0.015 A 
ENDBRANCH  28  29
ENDBRANCH  27  28
ENDBRANCH  24  27
ENDBRANCH  21  22
ENDBRANCH   5  21
TORSDOF 10
