REMARK  Name = ZINC13064614
REMARK  10 active torsions:
REMARK  status: ('A' for Active; 'I' for Inactive)
REMARK    1  A    between atoms: C_1  and  C_2
REMARK    2  A    between atoms: C_2  and  C_3
REMARK    3  A    between atoms: C_3  and  C_5
REMARK    4  A    between atoms: C_3  and  N_72
REMARK    5  A    between atoms: N_9  and  C_10
REMARK    6  A    between atoms: C_16  and  C_17
REMARK    7  A    between atoms: C_16  and  N_72
REMARK    8  A    between atoms: C_21  and  C_30
REMARK    9  A    between atoms: C_22  and  C_29
REMARK   10  A    between atoms: C_31  and  N_72
REMARK                            x       y       z     vdW  Elec       q    Type
REMARK                         _______ _______ _______ _____ _____    ______ ____
ROOT
ATOM      1  N   UNL     1      -5.443   3.936  -0.918  0.00  0.00    +0.391 N 
ATOM      2  H   UNL     1      -4.633   4.277  -1.449  0.00  0.00    -0.080 HD
ENDROOT
BRANCH   1   3
ATOM      3  C   UNL     1      -5.626   2.496  -1.193  0.00  0.00    -0.067 C 
ATOM      4  C   UNL     1      -6.933   1.972  -0.563  0.00  0.00    -0.015 C 
ATOM      5  C   UNL     1      -6.573   0.545  -0.076  0.00  0.00    -0.002 C 
ATOM      6  C   UNL     1      -5.125   0.715   0.445  0.00  0.00    -0.002 C 
ATOM      7  C   UNL     1      -4.477   1.697  -0.553  0.00  0.00    -0.015 C 
ENDBRANCH   1   3
BRANCH   1   8
ATOM      8  C   UNL     1      -6.644   4.687  -1.342  0.00  0.00    +0.003 C 
BRANCH   8   9
ATOM      9  C   UNL     1      -7.208   4.063  -2.593  0.00  0.00    +0.138 A 
ATOM     10  N   UNL     1      -6.528   3.629  -3.626  0.00  0.00    -0.115 NA
ATOM     11  N   UNL     1      -7.366   3.164  -4.487  0.00  0.00    -0.023 NA
ATOM     12  N   UNL     1      -8.564   3.297  -4.033  0.00  0.00    -0.044 NA
ATOM     13  N   UNL     1      -8.508   3.848  -2.867  0.00  0.00    -0.228 N 
BRANCH  13  14
ATOM     14  C   UNL     1      -9.646   4.176  -2.005  0.00  0.00    +0.111 C 
ATOM     15  C   UNL     1     -10.419   2.899  -1.672  0.00  0.00    +0.027 C 
ATOM     16  C   UNL     1     -11.607   3.242  -0.771  0.00  0.00    +0.002 C 
ATOM     17  C   UNL     1     -12.530   4.223  -1.496  0.00  0.00    +0.000 C 
ATOM     18  C   UNL     1     -11.757   5.500  -1.829  0.00  0.00    +0.002 C 
ATOM     19  C   UNL     1     -10.569   5.157  -2.730  0.00  0.00    +0.027 C 
ENDBRANCH  13  14
ENDBRANCH   8   9
BRANCH   8  21
ATOM     20  C   UNL     1      -5.316   6.638  -0.521  0.00  0.00    +0.002 C 
ATOM     21  C   UNL     1      -6.238   6.133  -1.633  0.00  0.00    -0.011 C 
ENDBRANCH   8  21
ENDBRANCH   1   8
BRANCH   1  22
ATOM     22  C   UNL     1      -5.198   4.149   0.523  0.00  0.00    -0.036 C 
BRANCH  22  23
ATOM     23  C   UNL     1      -6.442   3.851   1.321  0.00  0.00    +0.001 A 
ATOM     24  C   UNL     1      -6.516   2.716   2.058  0.00  0.00    +0.017 A 
ATOM     25  C   UNL     1      -7.738   2.456   2.821  0.00  0.00    -0.001 A 
ATOM     26  C   UNL     1      -7.874   1.302   3.599  0.00  0.00    +0.013 A 
ATOM     27  C   UNL     1      -9.027   1.089   4.299  0.00  0.00    -0.047 A 
ATOM     28  C   UNL     1     -10.066   2.008   4.246  0.00  0.00    -0.046 A 
ATOM     29  C   UNL     1      -9.955   3.152   3.486  0.00  0.00    +0.030 A 
ATOM     30  C   UNL     1      -8.792   3.387   2.759  0.00  0.00    +0.049 A 
ATOM     31  N   UNL     1      -8.651   4.526   1.995  0.00  0.00    -0.322 N 
ATOM     32  H   UNL     1      -9.376   5.169   1.957  0.00  0.00    +0.169 HD
ATOM     33  C   UNL     1      -7.525   4.756   1.298  0.00  0.00    +0.251 A 
ATOM     34  O   UNL     1      -7.437   5.771   0.628  0.00  0.00    -0.268 OA
ATOM     35  C   UNL     1     -11.329   1.753   5.027  0.00  0.00    +0.044 C 
ATOM     36  C   UNL     1      -9.173  -0.155   5.138  0.00  0.00    +0.044 C 
ENDBRANCH  22  23
ENDBRANCH   1  22
TORSDOF 7
