REMARK  Name = ZINC04263350
REMARK  7 active torsions:
REMARK  status: ('A' for Active; 'I' for Inactive)
REMARK    1  A    between atoms: C_1  and  C_2
REMARK    2  A    between atoms: C_3  and  C_27
REMARK    3  A    between atoms: C_4  and  C_17
REMARK    4  A    between atoms: C_22  and  O_23
REMARK    5  A    between atoms: O_23  and  C_24
REMARK    6  A    between atoms: C_27  and  O_29
REMARK    7  A    between atoms: O_29  and  C_30
REMARK                            x       y       z     vdW  Elec       q    Type
REMARK                         _______ _______ _______ _____ _____    ______ ____
ROOT
ATOM      1  C   UNL     1       2.347  -0.237   0.184  0.00  0.00    +0.061 C 
ATOM      2  C   UNL     1       2.362   1.267   0.089  0.00  0.00    +0.017 C 
ATOM      3  C   UNL     1       1.218   1.926  -0.164  0.00  0.00    +0.065 C 
ATOM      4  C   UNL     1       1.181   3.422  -0.284  0.00  0.00    +0.099 C 
ATOM      5  C   UNL     1       2.421   4.037   0.307  0.00  0.00    +0.067 A 
ATOM      6  C   UNL     1       3.533   3.286   0.543  0.00  0.00    +0.113 A 
ATOM      7  N   UNL     1       4.654   3.883   1.067  0.00  0.00    -0.295 N 
ATOM      8  H   UNL     1       5.474   3.337   1.239  0.00  0.00    +0.172 HD
ATOM      9  C   UNL     1       4.655   5.198   1.351  0.00  0.00    +0.328 A 
ATOM     10  O   UNL     1       5.655   5.710   1.815  0.00  0.00    -0.247 OA
ATOM     11  N   UNL     1       3.564   5.955   1.130  0.00  0.00    -0.275 N 
ATOM     12  H   UNL     1       3.585   6.930   1.350  0.00  0.00    +0.173 HD
ATOM     13  C   UNL     1       2.445   5.409   0.614  0.00  0.00    +0.260 A 
ATOM     14  O   UNL     1       1.461   6.100   0.415  0.00  0.00    -0.267 OA
ATOM     15  N   UNL     1       3.539   1.941   0.260  0.00  0.00    -0.304 N 
ATOM     16  H   UNL     1       4.382   1.468   0.182  0.00  0.00    +0.153 HD
ENDROOT
BRANCH   4  17
ATOM     17  C   UNL     1       1.079   3.800  -1.739  0.00  0.00    +0.007 A 
ATOM     18  C   UNL     1       2.068   3.415  -2.624  0.00  0.00    +0.008 A 
ATOM     19  C   UNL     1       1.975   3.762  -3.959  0.00  0.00    +0.001 A 
ATOM     20  C   UNL     1       0.892   4.494  -4.412  0.00  0.00    +0.004 A 
ATOM     21  C   UNL     1      -0.099   4.880  -3.532  0.00  0.00    +0.046 A 
ATOM     22  C   UNL     1      -0.010   4.530  -2.192  0.00  0.00    +0.131 A 
BRANCH  22  23
ATOM     23  O   UNL     1      -0.987   4.904  -1.324  0.00  0.00    -0.434 OA
BRANCH  23  24
ATOM     24  C   UNL     1      -2.079   5.654  -1.861  0.00  0.00    +0.541 C 
ATOM     25  F   UNL     1      -1.598   6.842  -2.422  0.00  0.00    -0.166 F 
ATOM     26  F   UNL     1      -2.722   4.899  -2.848  0.00  0.00    -0.166 F 
ENDBRANCH  23  24
ENDBRANCH  22  23
ENDBRANCH   4  17
BRANCH   3  27
ATOM     27  C   UNL     1       0.021   1.191  -0.327  0.00  0.00    +0.337 C 
ATOM     28  O   UNL     1      -0.817   1.191   0.555  0.00  0.00    -0.245 OA
BRANCH  27  29
ATOM     29  O   UNL     1      -0.189   0.486  -1.458  0.00  0.00    -0.465 OA
ATOM     30  C   UNL     1      -1.417  -0.238  -1.553  0.00  0.00    +0.280 C 
ENDBRANCH  27  29
ENDBRANCH   3  27
TORSDOF 5
