REMARK  Name = ZINC36545789
REMARK  18 active torsions:
REMARK  status: ('A' for Active; 'I' for Inactive)
REMARK    1  A    between atoms: C_1  and  C_2
REMARK    2  A    between atoms: C_2  and  C_3
REMARK    3  A    between atoms: C_2  and  C_4
REMARK    4  A    between atoms: C_2  and  C_5
REMARK    5  A    between atoms: C_5  and  C_6
REMARK    6  A    between atoms: C_6  and  C_7
REMARK    7  A    between atoms: C_6  and  C_8
REMARK    8  A    between atoms: C_6  and  N_9
REMARK    9  A    between atoms: C_10  and  C_12
REMARK   10  A    between atoms: C_12  and  C_14
REMARK   11  A    between atoms: C_12  and  N_23
REMARK   12  A    between atoms: C_15  and  O_22
REMARK   13  A    between atoms: C_17  and  O_21
REMARK   14  A    between atoms: C_19  and  O_20
REMARK   15  A    between atoms: N_23  and  C_24
REMARK   16  A    between atoms: C_31  and  C_33
REMARK   17  A    between atoms: C_33  and  C_34
REMARK   18  A    between atoms: C_34  and  S_35
REMARK                            x       y       z     vdW  Elec       q    Type
REMARK                         _______ _______ _______ _____ _____    ______ ____
ROOT
ATOM      1  C   UNL     1       5.604  -0.814  -3.929  0.00  0.00    +0.204 C 
ENDROOT
BRANCH   1   2
ATOM      2  C   UNL     1       5.115  -0.026  -5.118  0.00  0.00    +0.065 A 
ATOM      3  C   UNL     1       5.653  -0.263  -6.374  0.00  0.00    +0.129 A 
ATOM      4  C   UNL     1       5.204   0.462  -7.468  0.00  0.00    +0.091 A 
ATOM      5  C   UNL     1       4.217   1.423  -7.306  0.00  0.00    +0.124 A 
ATOM      6  C   UNL     1       3.679   1.658  -6.049  0.00  0.00    +0.091 A 
ATOM      7  C   UNL     1       4.125   0.931  -4.956  0.00  0.00    +0.129 A 
BRANCH   7   8
ATOM      8  O   UNL     1       3.594   1.159  -3.726  0.00  0.00    -0.506 OA
ATOM      9  H   UNL     1       4.058   1.838  -3.217  0.00  0.00    +0.292 HD
ENDBRANCH   7   8
BRANCH   5  10
ATOM     10  O   UNL     1       3.778   2.133  -8.377  0.00  0.00    -0.507 OA
ATOM     11  H   UNL     1       3.031   1.728  -8.838  0.00  0.00    +0.292 HD
ENDBRANCH   5  10
BRANCH   3  12
ATOM     12  O   UNL     1       6.620  -1.204  -6.533  0.00  0.00    -0.506 OA
ATOM     13  H   UNL     1       6.280  -2.101  -6.654  0.00  0.00    +0.292 HD
ENDBRANCH   3  12
ENDBRANCH   1   2
BRANCH   1  15
ATOM     14  N   UNL     1       3.600  -2.009  -3.108  0.00  0.00    -0.308 N 
ATOM     15  C   UNL     1       4.473  -0.996  -2.949  0.00  0.00    +0.239 C 
ATOM     16  O   UNL     1       4.350  -0.230  -2.016  0.00  0.00    -0.273 OA
ATOM     17  H   UNL     1       3.742  -2.667  -3.807  0.00  0.00    +0.149 HD
BRANCH  14  18
ATOM     18  C   UNL     1       2.435  -2.119  -2.226  0.00  0.00    +0.030 C 
ATOM     19  C   UNL     1       1.648  -0.807  -2.257  0.00  0.00    +0.031 C 
ATOM     20  C   UNL     1       2.903  -2.400  -0.797  0.00  0.00    +0.031 C 
BRANCH  18  21
ATOM     21  C   UNL     1       1.539  -3.263  -2.704  0.00  0.00    +0.031 C 
BRANCH  21  23
ATOM     22  C   UNL     1       2.682  -3.809  -4.857  0.00  0.00    +0.010 C 
ATOM     23  C   UNL     1       1.420  -3.215  -4.229  0.00  0.00    -0.036 C 
ATOM     24  C   UNL     1       1.260  -1.763  -4.683  0.00  0.00    +0.010 C 
ATOM     25  C   UNL     1       0.200  -4.026  -4.671  0.00  0.00    +0.010 C 
ENDBRANCH  21  23
ENDBRANCH  18  21
ENDBRANCH  14  18
ENDBRANCH   1  15
BRANCH   1  26
ATOM     26  N   UNL     1       6.700  -0.090  -3.281  0.00  0.00    -0.254 N 
ATOM     27  C   UNL     1       7.936  -0.627  -3.250  0.00  0.00    +0.222 C 
ATOM     28  O   UNL     1       8.140  -1.709  -3.759  0.00  0.00    -0.275 OA
BRANCH  26  29
ATOM     29  C   UNL     1       6.464   1.159  -2.694  0.00  0.00    +0.056 A 
ATOM     30  C   UNL     1       6.122   1.242  -1.351  0.00  0.00    +0.025 A 
ATOM     31  C   UNL     1       5.890   2.476  -0.774  0.00  0.00    +0.002 A 
ATOM     32  C   UNL     1       5.998   3.627  -1.533  0.00  0.00    +0.002 A 
ATOM     33  C   UNL     1       6.338   3.548  -2.870  0.00  0.00    +0.022 A 
ATOM     34  C   UNL     1       6.578   2.317  -3.452  0.00  0.00    +0.062 A 
ATOM     35 CL   UNL     1       7.014   2.219  -5.130  0.00  0.00    -0.082 Cl
ENDBRANCH  26  29
BRANCH  27  36
ATOM     36  C   UNL     1       9.064   0.118  -2.583  0.00  0.00    +0.107 C 
BRANCH  36  37
ATOM     37  C   UNL     1      10.350  -0.705  -2.688  0.00  0.00    +0.075 C 
BRANCH  37  38
ATOM     38  S   UNL     1      11.708   0.191  -1.885  0.00  0.00    -0.178 S 
ATOM     39  H   UNL     1      12.769  -0.621  -2.040  0.00  0.00    +0.102 HD
ENDBRANCH  37  38
ENDBRANCH  36  37
ENDBRANCH  27  36
ENDBRANCH   1  26
TORSDOF 13
