REMARK  Name = ZINC05554260
REMARK  6 active torsions:
REMARK  status: ('A' for Active; 'I' for Inactive)
REMARK    1  A    between atoms: C_1  and  C_2
REMARK    2  A    between atoms: C_5  and  C_8
REMARK    3  A    between atoms: N_11  and  N_12
REMARK    4  A    between atoms: N_12  and  C_13
REMARK    5  A    between atoms: C_21  and  C_27
REMARK    6  A    between atoms: C_22  and  C_26
REMARK                            x       y       z     vdW  Elec       q    Type
REMARK                         _______ _______ _______ _____ _____    ______ ____
ROOT
ATOM      1  C   UNL     1      -2.705   2.944   4.740  0.00  0.00    +0.138 A 
ATOM      2  C   UNL     1      -4.041   3.142   4.689  0.00  0.00    +0.076 A 
ATOM      3  C   UNL     1      -4.726   3.603   5.914  0.00  0.00    +0.096 A 
ATOM      4  N   UNL     1      -5.959   4.050   5.894  0.00  0.00    -0.182 NA
ATOM      5  C   UNL     1      -3.934   3.530   7.169  0.00  0.00    +0.044 A 
ATOM      6  C   UNL     1      -4.533   3.685   8.412  0.00  0.00    +0.017 A 
ATOM      7  C   UNL     1      -3.759   3.606   9.555  0.00  0.00    -0.047 A 
ATOM      8  C   UNL     1      -2.398   3.374   9.457  0.00  0.00    -0.044 A 
ATOM      9  C   UNL     1      -1.796   3.221   8.223  0.00  0.00    +0.050 A 
ATOM     10  C   UNL     1      -2.556   3.299   7.066  0.00  0.00    +0.138 A 
ATOM     11  O   UNL     1      -1.978   3.158   5.854  0.00  0.00    -0.455 OA
ATOM     12  C   UNL     1      -1.565   3.287  10.710  0.00  0.00    +0.044 C 
ATOM     13  C   UNL     1      -4.399   3.772  10.909  0.00  0.00    +0.044 C 
ENDROOT
BRANCH   1  18
ATOM     14  C   UNL     1      -0.013   1.086   0.008  0.00  0.00    +0.044 C 
ATOM     15  C   UNL     1      -0.718   1.572   1.248  0.00  0.00    -0.050 A 
ATOM     16  C   UNL     1      -2.085   1.788   1.222  0.00  0.00    +0.004 A 
ATOM     17  C   UNL     1      -2.737   2.229   2.355  0.00  0.00    +0.012 A 
ATOM     18  C   UNL     1      -2.014   2.466   3.526  0.00  0.00    +0.017 A 
ATOM     19  C   UNL     1      -0.634   2.251   3.543  0.00  0.00    +0.012 A 
ATOM     20  C   UNL     1       0.005   1.805   2.405  0.00  0.00    +0.004 A 
ENDBRANCH   1  18
BRANCH   4  21
ATOM     21  N   UNL     1      -6.667   4.101   4.686  0.00  0.00    -0.237 N 
ATOM     22  H   UNL     1      -6.245   3.805   3.864  0.00  0.00    +0.174 HD
BRANCH  21  23
ATOM     23  C   UNL     1      -7.977   4.576   4.666  0.00  0.00    +0.048 A 
ATOM     24  C   UNL     1      -8.585   4.995   5.844  0.00  0.00    +0.025 A 
ATOM     25  C   UNL     1      -9.881   5.471   5.818  0.00  0.00    +0.002 A 
ATOM     26  C   UNL     1     -10.578   5.520   4.625  0.00  0.00    +0.000 A 
ATOM     27  C   UNL     1      -9.979   5.098   3.452  0.00  0.00    +0.002 A 
ATOM     28  C   UNL     1      -8.681   4.627   3.468  0.00  0.00    +0.025 A 
ENDBRANCH  21  23
ENDBRANCH   4  21
TORSDOF 3
