REMARK  Name = ZINC45800716
REMARK  6 active torsions:
REMARK  status: ('A' for Active; 'I' for Inactive)
REMARK    1  A    between atoms: C_1  and  C_2
REMARK    2  A    between atoms: C_2  and  N_3
REMARK    3  A    between atoms: N_12  and  C_15
REMARK    4  A    between atoms: C_15  and  C_16
REMARK    5  A    between atoms: C_22  and  C_24
REMARK    6  A    between atoms: C_24  and  C_25
REMARK                            x       y       z     vdW  Elec       q    Type
REMARK                         _______ _______ _______ _____ _____    ______ ____
ROOT
ATOM      1  C   UNL     1       4.875  -0.042  -2.479  0.00  0.00    +0.239 C 
ATOM      2  O   UNL     1       4.240   0.939  -2.802  0.00  0.00    -0.273 OA
ATOM      3  N   UNL     1       6.221   0.007  -2.445  0.00  0.00    -0.263 N 
ATOM      4  C   UNL     1       6.882   1.184  -2.779  0.00  0.00    +0.165 A 
ATOM      5  N   UNL     1       6.365   2.337  -3.143  0.00  0.00    -0.233 NA
ATOM      6  C   UNL     1       7.135   3.370  -3.430  0.00  0.00    +0.124 A 
ATOM      7  C   UNL     1       8.474   3.186  -3.332  0.00  0.00    +0.015 A 
ATOM      8  S   UNL     1       8.538   1.481  -2.808  0.00  0.00    -0.057 S 
ATOM      9  H   UNL     1       6.729  -0.778  -2.187  0.00  0.00    +0.157 HD
ENDROOT
BRANCH   1  10
ATOM     10  C   UNL     1       4.158  -1.318  -2.117  0.00  0.00    +0.222 C 
BRANCH  10  20
ATOM     11  N   UNL     1       0.688  -0.476  -1.203  0.00  0.00    -0.261 N 
ATOM     12  C   UNL     1      -0.026  -0.696  -2.329  0.00  0.00    +0.264 A 
ATOM     13  O   UNL     1      -1.227  -0.506  -2.352  0.00  0.00    -0.267 OA
ATOM     14  C   UNL     1       0.688  -1.170  -3.528  0.00  0.00    +0.063 A 
ATOM     15  C   UNL     1       0.023  -1.419  -4.726  0.00  0.00    +0.015 A 
ATOM     16  C   UNL     1       0.737  -1.861  -5.820  0.00  0.00    +0.001 A 
ATOM     17  C   UNL     1       2.106  -2.059  -5.731  0.00  0.00    +0.002 A 
ATOM     18  C   UNL     1       2.777  -1.817  -4.549  0.00  0.00    +0.027 A 
ATOM     19  C   UNL     1       2.076  -1.371  -3.439  0.00  0.00    +0.059 A 
ATOM     20  N   UNL     1       2.712  -1.115  -2.232  0.00  0.00    -0.284 N 
ATOM     21  C   UNL     1       2.014  -0.678  -1.170  0.00  0.00    +0.333 A 
ATOM     22  O   UNL     1       2.610  -0.461  -0.132  0.00  0.00    -0.246 OA
BRANCH  11  24
ATOM     23  C   UNL     1      -0.019   1.526   0.010  0.00  0.00    +0.027 C 
ATOM     24  C   UNL     1       0.002  -0.004   0.002  0.00  0.00    +0.126 C 
ENDBRANCH  11  24
ENDBRANCH  10  20
ENDBRANCH   1  10
BRANCH   7  25
ATOM     25  C   UNL     1       9.599   4.155  -3.590  0.00  0.00    +0.080 C 
BRANCH  25  26
ATOM     26  C   UNL     1       9.931   4.890  -2.317  0.00  0.00    -0.023 A 
ATOM     27  C   UNL     1       9.360   6.123  -2.061  0.00  0.00    +0.005 A 
ATOM     28  C   UNL     1       9.664   6.797  -0.893  0.00  0.00    +0.002 A 
ATOM     29  C   UNL     1      10.539   6.239   0.020  0.00  0.00    +0.021 A 
ATOM     30  C   UNL     1      11.111   5.006  -0.234  0.00  0.00    +0.060 A 
ATOM     31  C   UNL     1      10.802   4.328  -1.401  0.00  0.00    +0.063 A 
ATOM     32 CL   UNL     1      11.513   2.776  -1.718  0.00  0.00    -0.082 Cl
ATOM     33 CL   UNL     1      12.210   4.305   0.912  0.00  0.00    -0.082 Cl
ENDBRANCH  25  26
ENDBRANCH   7  25
TORSDOF 5
