REMARK  Name = ZINC00831688
REMARK  8 active torsions:
REMARK  status: ('A' for Active; 'I' for Inactive)
REMARK    1  A    between atoms: C_3  and  O_16
REMARK    2  A    between atoms: C_6  and  C_7
REMARK    3  A    between atoms: N_9  and  N_10
REMARK    4  A    between atoms: O_16  and  C_17
REMARK    5  A    between atoms: C_19  and  O_25
REMARK    6  A    between atoms: O_25  and  C_26
REMARK    7  A    between atoms: C_29  and  C_32
REMARK    8  A    between atoms: N_34  and  N_35
REMARK                            x       y       z     vdW  Elec       q    Type
REMARK                         _______ _______ _______ _____ _____    ______ ____
ROOT
ATOM      1  C   UNL     1      -5.907  -2.670   0.015  0.00  0.00    +0.377 C 
ATOM      2  C   UNL     1      -7.309  -3.276   0.136  0.00  0.00    +0.377 C 
ATOM      3  O   UNL     1      -7.217  -4.698   0.015  0.00  0.00    -0.335 OA
ATOM      4  C   UNL     1      -6.622  -5.131  -1.212  0.00  0.00    +0.192 C 
ATOM      5  C   UNL     1      -5.221  -4.525  -1.333  0.00  0.00    +0.192 C 
ATOM      6  O   UNL     1      -5.313  -3.102  -1.212  0.00  0.00    -0.335 OA
ENDROOT
BRANCH   1   7
ATOM      7  O   UNL     1      -6.002  -1.244   0.023  0.00  0.00    -0.457 OA
BRANCH   7  10
ATOM      8  C   UNL     1      -2.438  -0.529   0.005  0.00  0.00    +0.016 A 
ATOM      9  C   UNL     1      -3.624  -1.230   0.013  0.00  0.00    +0.046 A 
ATOM     10  C   UNL     1      -4.836  -0.549   0.022  0.00  0.00    +0.124 A 
ATOM     11  C   UNL     1      -4.857   0.841   0.030  0.00  0.00    +0.046 A 
ATOM     12  C   UNL     1      -3.676   1.549   0.028  0.00  0.00    +0.016 A 
ATOM     13  C   UNL     1      -2.455   0.869   0.018  0.00  0.00    +0.039 A 
BRANCH  13  14
ATOM     14  C   UNL     1      -1.187   1.624   0.017  0.00  0.00    +0.263 C 
ATOM     15  O   UNL     1      -1.204   2.840   0.023  0.00  0.00    -0.268 OA
ATOM     16  N   UNL     1      -0.011   0.966   0.007  0.00  0.00    -0.203 N 
ATOM     17  H   UNL     1       0.002  -0.004   0.002  0.00  0.00    +0.178 HD
BRANCH  16  18
ATOM     18  N   UNL     1       1.193   1.683  -0.000  0.00  0.00    -0.189 NA
ATOM     19  C   UNL     1       2.310   1.058  -0.014  0.00  0.00    +0.037 C 
ATOM     20  C   UNL     1       2.497  -0.445  -0.018  0.00  0.00    +0.052 C 
ATOM     21  C   UNL     1       4.018  -0.706  -0.030  0.00  0.00    +0.006 C 
ATOM     22  C   UNL     1       4.617   0.593   0.567  0.00  0.00    +0.006 C 
ATOM     23  C   UNL     1       3.692   1.686  -0.024  0.00  0.00    +0.052 C 
ENDBRANCH  16  18
ENDBRANCH  13  14
ENDBRANCH   7  10
ENDBRANCH   1   7
BRANCH   2  24
ATOM     24  O   UNL     1      -7.867  -2.940   1.408  0.00  0.00    -0.457 OA
BRANCH  24  25
ATOM     25  C   UNL     1      -9.151  -3.313   1.635  0.00  0.00    +0.124 A 
ATOM     26  C   UNL     1      -9.862  -3.986   0.648  0.00  0.00    +0.046 A 
ATOM     27  C   UNL     1     -11.164  -4.372   0.877  0.00  0.00    +0.016 A 
ATOM     28  C   UNL     1     -11.774  -4.075   2.099  0.00  0.00    +0.039 A 
ATOM     29  C   UNL     1     -11.058  -3.394   3.086  0.00  0.00    +0.016 A 
ATOM     30  C   UNL     1      -9.754  -3.017   2.852  0.00  0.00    +0.046 A 
BRANCH  28  31
ATOM     31  C   UNL     1     -13.172  -4.481   2.346  0.00  0.00    +0.263 C 
ATOM     32  O   UNL     1     -13.701  -4.222   3.409  0.00  0.00    -0.268 OA
ATOM     33  N   UNL     1     -13.861  -5.138   1.392  0.00  0.00    -0.203 N 
ATOM     34  H   UNL     1     -13.439  -5.344   0.543  0.00  0.00    +0.178 HD
BRANCH  33  35
ATOM     35  N   UNL     1     -15.188  -5.522   1.626  0.00  0.00    -0.189 NA
ATOM     36  C   UNL     1     -15.843  -6.146   0.720  0.00  0.00    +0.037 C 
ATOM     37  C   UNL     1     -15.331  -6.535  -0.651  0.00  0.00    +0.052 C 
ATOM     38  C   UNL     1     -16.486  -7.259  -1.371  0.00  0.00    +0.006 C 
ATOM     39  C   UNL     1     -17.754  -6.733  -0.651  0.00  0.00    +0.006 C 
ATOM     40  C   UNL     1     -17.279  -6.629   0.820  0.00  0.00    +0.052 C 
ENDBRANCH  33  35
ENDBRANCH  28  31
ENDBRANCH  24  25
ENDBRANCH   2  24
TORSDOF 8
