REMARK  Name = ZINC09484375
REMARK  5 active torsions:
REMARK  status: ('A' for Active; 'I' for Inactive)
REMARK    1  A    between atoms: C_1  and  C_2
REMARK    2  A    between atoms: C_5  and  S_8
REMARK    3  A    between atoms: S_8  and  C_9
REMARK    4  A    between atoms: C_9  and  C_10
REMARK    5  A    between atoms: N_20  and  C_21
REMARK                            x       y       z     vdW  Elec       q    Type
REMARK                         _______ _______ _______ _____ _____    ______ ____
ROOT
ATOM      1  C   UNL     1      -0.081   2.286   3.196  0.00  0.00    +0.060 A 
ATOM      2  C   UNL     1       1.148   1.920   3.661  0.00  0.00    +0.094 A 
ATOM      3  C   UNL     1       1.689   0.687   3.254  0.00  0.00    +0.253 A 
ATOM      4  O   UNL     1       2.786   0.328   3.650  0.00  0.00    -0.268 OA
ATOM      5  N   UNL     1       0.971  -0.091   2.416  0.00  0.00    -0.293 N 
ATOM      6  H   UNL     1       1.325  -0.945   2.122  0.00  0.00    +0.172 HD
ATOM      7  C   UNL     1      -0.250   0.327   1.986  0.00  0.00    +0.211 A 
ATOM      8  N   UNL     1      -0.750   1.483   2.371  0.00  0.00    -0.218 NA
ATOM      9  N   UNL     1      -0.974  -0.471   1.133  0.00  0.00    -0.298 N 
ATOM     10  C   UNL     1      -2.213  -0.059   0.688  0.00  0.00    +0.180 C 
ATOM     11  N   UNL     1      -2.939  -0.858  -0.166  0.00  0.00    -0.327 N 
ATOM     12  H   UNL     1      -0.614  -1.324   0.844  0.00  0.00    +0.172 HD
ATOM     13  H   UNL     1      -3.607   1.406   0.930  0.00  0.00    +0.159 HD
ATOM     14  H   UNL     1      -2.622  -1.748  -0.384  0.00  0.00    +0.169 HD
ATOM     15  N   UNL     1      -2.644   1.120   1.111  0.00  0.00    -0.371 N 
ATOM     16  H   UNL     1      -2.010   1.747   1.619  0.00  0.00    +0.159 HD
ENDROOT
BRANCH  11  17
ATOM     17  C   UNL     1      -4.131  -0.387  -0.718  0.00  0.00    +0.050 A 
ATOM     18  C   UNL     1      -4.279   0.951  -1.016  0.00  0.00    +0.026 A 
ATOM     19  C   UNL     1      -5.463   1.430  -1.567  0.00  0.00    +0.003 A 
ATOM     20  C   UNL     1      -6.507   0.595  -1.827  0.00  0.00    +0.008 A 
ATOM     21  C   UNL     1      -6.397  -0.776  -1.538  0.00  0.00    -0.016 A 
ATOM     22  C   UNL     1      -5.194  -1.277  -0.981  0.00  0.00    +0.006 A 
ATOM     23  C   UNL     1      -5.087  -2.646  -0.688  0.00  0.00    +0.010 A 
ATOM     24  C   UNL     1      -6.135  -3.474  -0.950  0.00  0.00    +0.001 A 
ATOM     25  C   UNL     1      -7.317  -2.984  -1.502  0.00  0.00    +0.001 A 
ATOM     26  C   UNL     1      -7.457  -1.662  -1.795  0.00  0.00    +0.008 A 
ENDBRANCH  11  17
BRANCH   1  27
ATOM     27  C   UNL     1      -0.684   3.602   3.617  0.00  0.00    +0.130 C 
BRANCH  27  28
ATOM     28  S   UNL     1      -0.574   4.784   2.245  0.00  0.00    -0.119 S 
BRANCH  28  33
ATOM     29  C   UNL     1      -3.095   9.809   4.441  0.00  0.00    +0.044 C 
ATOM     30  C   UNL     1      -2.465   8.555   3.893  0.00  0.00    -0.050 A 
ATOM     31  C   UNL     1      -1.977   8.536   2.599  0.00  0.00    +0.004 A 
ATOM     32  C   UNL     1      -1.400   7.388   2.093  0.00  0.00    +0.015 A 
ATOM     33  C   UNL     1      -1.310   6.251   2.886  0.00  0.00    +0.008 A 
ATOM     34  C   UNL     1      -1.806   6.271   4.184  0.00  0.00    +0.015 A 
ATOM     35  C   UNL     1      -2.376   7.425   4.685  0.00  0.00    +0.004 A 
ENDBRANCH  28  33
ENDBRANCH  27  28
ENDBRANCH   1  27
TORSDOF 4
