REMARK  Name = ZINC03227079
REMARK  6 active torsions:
REMARK  status: ('A' for Active; 'I' for Inactive)
REMARK    1  A    between atoms: C_4  and  N_7
REMARK    2  A    between atoms: C_11  and  S_13
REMARK    3  A    between atoms: S_13  and  C_14
REMARK    4  A    between atoms: C_26  and  N_28
REMARK    5  A    between atoms: N_28  and  S_29
REMARK    6  A    between atoms: S_29  and  C_32
REMARK                            x       y       z     vdW  Elec       q    Type
REMARK                         _______ _______ _______ _____ _____    ______ ____
ROOT
ATOM      1  C   UNL     1      -6.144   8.070  -0.385  0.00  0.00    +0.107 C 
ATOM      2  C   UNL     1      -6.420   7.474   0.974  0.00  0.00    -0.024 A 
ATOM      3  C   UNL     1      -5.807   6.540   1.751  0.00  0.00    +0.005 A 
ATOM      4  C   UNL     1      -6.335   6.203   2.999  0.00  0.00    +0.001 A 
ATOM      5  C   UNL     1      -7.468   6.783   3.493  0.00  0.00    +0.008 A 
ATOM      6  C   UNL     1      -8.127   7.751   2.716  0.00  0.00    -0.017 A 
ATOM      7  C   UNL     1      -7.576   8.073   1.463  0.00  0.00    -0.009 A 
ATOM      8  C   UNL     1      -8.144   9.017   0.613  0.00  0.00    -0.019 A 
ATOM      9  C   UNL     1      -9.279   9.645   1.024  0.00  0.00    +0.006 A 
ATOM     10  C   UNL     1      -9.845   9.341   2.265  0.00  0.00    +0.001 A 
ATOM     11  C   UNL     1      -9.299   8.418   3.109  0.00  0.00    +0.008 A 
ATOM     12  C   UNL     1      -7.281   9.088  -0.623  0.00  0.00    +0.125 C 
ENDROOT
BRANCH  12  13
ATOM     13  N   UNL     1      -6.731  10.436  -0.781  0.00  0.00    -0.181 NA
ATOM     14  H   UNL     1      -5.949  10.704  -0.273  0.00  0.00    +0.149 HD
BRANCH  13  15
ATOM     15  S   UNL     1      -7.443  11.504  -1.828  0.00  0.00    +0.059 S 
ATOM     16  O   UNL     1      -6.705  12.715  -1.738  0.00  0.00    -0.153 OA
ATOM     17  O   UNL     1      -7.622  10.811  -3.056  0.00  0.00    -0.153 OA
BRANCH  15  18
ATOM     18  C   UNL     1      -9.055  11.848  -1.205  0.00  0.00    +0.105 A 
ATOM     19  C   UNL     1     -10.128  11.071  -1.598  0.00  0.00    +0.028 A 
ATOM     20  C   UNL     1     -11.392  11.338  -1.105  0.00  0.00    +0.002 A 
ATOM     21  C   UNL     1     -11.583  12.389  -0.227  0.00  0.00    +0.000 A 
ATOM     22  C   UNL     1     -10.511  13.169   0.162  0.00  0.00    +0.002 A 
ATOM     23  C   UNL     1      -9.246  12.898  -0.327  0.00  0.00    +0.028 A 
ENDBRANCH  15  18
ENDBRANCH  13  15
ENDBRANCH  12  13
BRANCH   1  24
ATOM     24  S   UNL     1      -4.537   8.912  -0.388  0.00  0.00    -0.087 S 
BRANCH  24  29
ATOM     25  N   UNL     1      -0.069   5.240   0.028  0.00  0.00    -0.292 N 
ATOM     26  C   UNL     1      -1.279   5.919  -0.062  0.00  0.00    +0.187 A 
ATOM     27  N   UNL     1      -2.507   5.439  -0.077  0.00  0.00    -0.125 NA
ATOM     28  N   UNL     1      -3.577   6.299  -0.170  0.00  0.00    -0.133 NA
ATOM     29  C   UNL     1      -3.368   7.600  -0.255  0.00  0.00    +0.161 A 
ATOM     30  S   UNL     1      -1.584   7.674  -0.197  0.00  0.00    -0.024 S 
ATOM     31  H   UNL     1       0.760   5.735   0.112  0.00  0.00    +0.154 HD
BRANCH  25  35
ATOM     32  C   UNL     1      -0.007   1.077  -0.062  0.00  0.00    +0.000 A 
ATOM     33  C   UNL     1       1.018   1.769   0.556  0.00  0.00    +0.002 A 
ATOM     34  C   UNL     1       1.004   3.149   0.583  0.00  0.00    +0.023 A 
ATOM     35  C   UNL     1      -0.048   3.843  -0.003  0.00  0.00    +0.033 A 
ATOM     36  C   UNL     1      -1.079   3.144  -0.618  0.00  0.00    +0.023 A 
ATOM     37  C   UNL     1      -1.056   1.764  -0.646  0.00  0.00    +0.002 A 
ENDBRANCH  25  35
ENDBRANCH  24  29
ENDBRANCH   1  24
TORSDOF 6
