REMARK  Name = ZINC07530352
REMARK  11 active torsions:
REMARK  status: ('A' for Active; 'I' for Inactive)
REMARK    1  A    between atoms: C_1  and  C_2
REMARK    2  A    between atoms: C_2  and  C_3
REMARK    3  A    between atoms: C_7  and  C_27
REMARK    4  A    between atoms: C_8  and  N_9
REMARK    5  A    between atoms: C_10  and  C_12
REMARK    6  A    between atoms: C_12  and  S_13
REMARK    7  A    between atoms: S_13  and  C_14
REMARK    8  A    between atoms: N_18  and  N_19
REMARK    9  A    between atoms: C_21  and  C_26
REMARK   10  A    between atoms: C_23  and  C_25
REMARK   11  A    between atoms: C_27  and  C_28
REMARK                            x       y       z     vdW  Elec       q    Type
REMARK                         _______ _______ _______ _____ _____    ______ ____
ROOT
ATOM      1  S   UNL     1       2.877   2.980  -6.197  0.00  0.00    -0.075 S 
ENDROOT
BRANCH   1   2
ATOM      2  C   UNL     1       2.027   2.612  -7.696  0.00  0.00    +0.210 A 
ATOM      3  N   UNL     1       0.920   1.918  -7.814  0.00  0.00    -0.119 NA
ATOM      4  N   UNL     1       0.576   1.845  -9.050  0.00  0.00    -0.106 NA
ATOM      5  C   UNL     1       1.444   2.480  -9.795  0.00  0.00    +0.270 A 
ATOM      6  N   UNL     1       2.400   2.991  -8.957  0.00  0.00    -0.208 N 
ATOM      7  N   UNL     1       1.404   2.612 -11.184  0.00  0.00    -0.201 N 
ATOM      8  C   UNL     1       0.453   2.103 -12.009  0.00  0.00    +0.045 A 
ATOM      9  C   UNL     1       0.778   2.454 -13.275  0.00  0.00    +0.048 A 
ATOM     10  C   UNL     1       1.961   3.199 -13.225  0.00  0.00    +0.061 A 
ATOM     11  N   UNL     1       2.334   3.299 -11.975  0.00  0.00    -0.169 NA
ATOM     12  C   UNL     1       2.681   3.791 -14.410  0.00  0.00    +0.067 C 
ATOM     13  C   UNL     1      -0.747   1.293 -11.591  0.00  0.00    +0.066 C 
BRANCH   6  14
ATOM     14  N   UNL     1       3.497   3.727  -9.306  0.00  0.00    -0.293 N 
ATOM     15  H   UNL     1       4.289   3.130  -9.489  0.00  0.00    +0.163 HD
ATOM     16  H   UNL     1       3.298   4.317 -10.100  0.00  0.00    +0.163 HD
ENDBRANCH   6  14
ENDBRANCH   1   2
BRANCH   1  17
ATOM     17  C   UNL     1       1.789   2.156  -5.008  0.00  0.00    +0.173 C 
BRANCH  17  19
ATOM     18  N   UNL     1       1.684   1.812  -2.561  0.00  0.00    -0.284 N 
ATOM     19  C   UNL     1       2.333   2.343  -3.616  0.00  0.00    +0.228 C 
ATOM     20  O   UNL     1       3.357   2.971  -3.444  0.00  0.00    -0.275 OA
ATOM     21  H   UNL     1       0.906   1.250  -2.704  0.00  0.00    +0.155 HD
BRANCH  18  27
ATOM     22  C   UNL     1       1.721   3.223  -0.601  0.00  0.00    -0.026 A 
ATOM     23  C   UNL     1       2.169   3.479   0.680  0.00  0.00    +0.005 A 
ATOM     24  C   UNL     1       3.016   2.586   1.310  0.00  0.00    +0.001 A 
ATOM     25  C   UNL     1       3.425   1.438   0.655  0.00  0.00    +0.005 A 
ATOM     26  C   UNL     1       2.985   1.179  -0.628  0.00  0.00    -0.026 A 
ATOM     27  C   UNL     1       2.131   2.072  -1.261  0.00  0.00    +0.040 A 
BRANCH  22  29
ATOM     28  C   UNL     1      -0.655   3.742  -1.087  0.00  0.00    +0.009 C 
ATOM     29  C   UNL     1       0.794   4.194  -1.284  0.00  0.00    +0.033 C 
ENDBRANCH  22  29
BRANCH  26  30
ATOM     30  C   UNL     1       3.433  -0.071  -1.340  0.00  0.00    +0.033 C 
ATOM     31  C   UNL     1       4.636   0.251  -2.229  0.00  0.00    +0.009 C 
ENDBRANCH  26  30
ENDBRANCH  18  27
ENDBRANCH  17  19
ENDBRANCH   1  17
TORSDOF 7
