REMARK  Name = ZINC40720496
REMARK  16 active torsions:
REMARK  status: ('A' for Active; 'I' for Inactive)
REMARK    1  A    between atoms: C_1  and  C_2
REMARK    2  A    between atoms: C_2  and  O_3
REMARK    3  A    between atoms: O_3  and  C_4
REMARK    4  A    between atoms: C_6  and  C_23
REMARK    5  A    between atoms: C_9  and  O_10
REMARK    6  A    between atoms: O_10  and  C_11
REMARK    7  A    between atoms: C_11  and  C_12
REMARK    8  A    between atoms: N_14  and  C_15
REMARK    9  A    between atoms: C_18  and  C_21
REMARK   10  A    between atoms: C_23  and  N_24
REMARK   11  A    between atoms: N_24  and  C_25
REMARK   12  A    between atoms: C_25  and  C_26
REMARK   13  A    between atoms: C_26  and  N_27
REMARK   14  A    between atoms: N_27  and  C_28
REMARK   15  A    between atoms: C_28  and  C_29
REMARK   16  A    between atoms: C_29  and  O_30
REMARK                            x       y       z     vdW  Elec       q    Type
REMARK                         _______ _______ _______ _____ _____    ______ ____
ROOT
ATOM      1  C   UNL     1      -1.495  -1.835   0.013  0.00  0.00    +0.163 A 
ATOM      2  C   UNL     1      -0.382  -2.660   0.003  0.00  0.00    +0.051 A 
ATOM      3  C   UNL     1      -0.538  -4.033  -0.010  0.00  0.00    -0.060 A 
ATOM      4  C   UNL     1      -1.805  -4.588  -0.014  0.00  0.00    +0.021 A 
ATOM      5  C   UNL     1      -2.921  -3.770  -0.004  0.00  0.00    +0.063 A 
ATOM      6  C   UNL     1      -2.770  -2.392   0.015  0.00  0.00    +0.176 A 
ATOM      7 BR   UNL     1      -4.651  -4.532  -0.010  0.00  0.00    -0.046 Br
ENDROOT
BRANCH   1   8
ATOM      8  O   UNL     1      -1.342  -0.484   0.025  0.00  0.00    -0.489 OA
BRANCH   8  10
ATOM      9  C   UNL     1      -0.032   1.547   0.037  0.00  0.00    +0.048 C 
ATOM     10  C   UNL     1      -0.004   0.018   0.021  0.00  0.00    +0.226 C 
ENDBRANCH   8  10
ENDBRANCH   1   8
BRANCH   6  11
ATOM     11  O   UNL     1      -3.866  -1.587   0.030  0.00  0.00    -0.478 OA
BRANCH  11  12
ATOM     12  C   UNL     1      -4.396  -1.190  -1.236  0.00  0.00    +0.325 C 
BRANCH  12  13
ATOM     13  C   UNL     1      -5.599  -0.307  -1.022  0.00  0.00    +0.255 C 
ATOM     14  O   UNL     1      -5.965  -0.043   0.104  0.00  0.00    -0.272 OA
ATOM     15  N   UNL     1      -6.267   0.190  -2.082  0.00  0.00    -0.283 N 
ATOM     16  H   UNL     1      -5.936   0.035  -2.980  0.00  0.00    +0.155 HD
BRANCH  15  17
ATOM     17  C   UNL     1      -7.439   0.929  -1.886  0.00  0.00    +0.034 A 
ATOM     18  C   UNL     1      -8.484   0.830  -2.795  0.00  0.00    +0.023 A 
ATOM     19  C   UNL     1      -9.639   1.561  -2.599  0.00  0.00    +0.005 A 
ATOM     20  C   UNL     1      -9.756   2.391  -1.499  0.00  0.00    -0.050 A 
ATOM     21  C   UNL     1      -8.717   2.492  -0.592  0.00  0.00    +0.005 A 
ATOM     22  C   UNL     1      -7.562   1.759  -0.779  0.00  0.00    +0.023 A 
ATOM     23  C   UNL     1     -11.018   3.187  -1.288  0.00  0.00    +0.044 C 
ENDBRANCH  15  17
ENDBRANCH  12  13
ENDBRANCH  11  12
ENDBRANCH   6  11
BRANCH   3  24
ATOM     24  C   UNL     1       0.674  -4.928  -0.021  0.00  0.00    -0.047 C 
BRANCH  24  25
ATOM     25  N   UNL     1       1.070  -5.233   1.361  0.00  0.00    +0.383 N 
ATOM     26  H   UNL     1       1.290  -4.375   1.844  0.00  0.00    -0.085 HD
ATOM     27  H   UNL     1       0.311  -5.700   1.833  0.00  0.00    -0.085 HD
BRANCH  25  28
ATOM     28  C   UNL     1       2.252  -6.105   1.350  0.00  0.00    -0.067 C 
BRANCH  28  29
ATOM     29  C   UNL     1       2.665  -6.422   2.789  0.00  0.00    +0.062 C 
BRANCH  29  30
ATOM     30  N   UNL     1       3.846  -7.295   2.778  0.00  0.00    -0.316 NA
ATOM     31  H   UNL     1       3.672  -8.133   2.244  0.00  0.00    +0.122 HD
BRANCH  30  32
ATOM     32  C   UNL     1       4.272  -7.621   4.146  0.00  0.00    +0.108 C 
BRANCH  32  33
ATOM     33  C   UNL     1       5.503  -8.529   4.094  0.00  0.00    +0.171 C 
BRANCH  33  34
ATOM     34  O   UNL     1       6.598  -7.815   3.517  0.00  0.00    -0.394 OA
ATOM     35  H   UNL     1       7.413  -8.330   3.453  0.00  0.00    +0.209 HD
ENDBRANCH  33  34
ENDBRANCH  32  33
ENDBRANCH  30  32
ENDBRANCH  29  30
ENDBRANCH  28  29
ENDBRANCH  25  28
ENDBRANCH  24  25
ENDBRANCH   3  24
TORSDOF 14
