REMARK  Name = ZINC02129359
REMARK  6 active torsions:
REMARK  status: ('A' for Active; 'I' for Inactive)
REMARK    1  A    between atoms: C_1  and  N_52
REMARK    2  A    between atoms: C_8  and  O_29
REMARK    3  A    between atoms: C_10  and  C_12
REMARK    4  A    between atoms: C_13  and  O_28
REMARK    5  A    between atoms: N_18  and  C_21
REMARK    6  A    between atoms: O_29  and  C_30
REMARK                            x       y       z     vdW  Elec       q    Type
REMARK                         _______ _______ _______ _____ _____    ______ ____
ROOT
ATOM      1  C   UNL     1      -0.208  -2.305   0.905  0.00  0.00    +0.068 A 
ATOM      2  C   UNL     1      -0.968  -3.355   0.482  0.00  0.00    +0.201 A 
ATOM      3  N   UNL     1      -1.580  -4.162   1.407  0.00  0.00    -0.278 N 
ATOM      4  H   UNL     1      -2.119  -4.913   1.111  0.00  0.00    +0.173 HD
ATOM      5  C   UNL     1      -1.441  -3.918   2.723  0.00  0.00    +0.336 A 
ATOM      6  O   UNL     1      -1.994  -4.642   3.528  0.00  0.00    -0.246 OA
ATOM      7  N   UNL     1      -0.699  -2.884   3.160  0.00  0.00    -0.229 N 
ATOM      8  C   UNL     1      -0.078  -2.069   2.285  0.00  0.00    +0.267 A 
ATOM      9  O   UNL     1       0.592  -1.134   2.687  0.00  0.00    -0.267 OA
ENDROOT
BRANCH   1  19
ATOM     10  C   UNL     1       2.519  -2.698   0.019  0.00  0.00    -0.095 C 
ATOM     11  C   UNL     1       2.579  -0.371  -0.653  0.00  0.00    -0.073 C 
ATOM     12  C   UNL     1       2.174   1.022  -0.170  0.00  0.00    +0.017 C 
ATOM     13  C   UNL     1       0.674   1.107  -0.043  0.00  0.00    -0.040 A 
ATOM     14  C   UNL     1       0.090   2.363   0.037  0.00  0.00    +0.053 A 
ATOM     15  C   UNL     1      -1.283   2.492   0.161  0.00  0.00    +0.170 A 
ATOM     16  C   UNL     1      -2.081   1.354   0.205  0.00  0.00    +0.208 A 
ATOM     17  C   UNL     1      -1.494   0.100   0.122  0.00  0.00    +0.167 A 
ATOM     18  C   UNL     1      -0.113  -0.023  -0.002  0.00  0.00    -0.008 A 
ATOM     19  C   UNL     1       0.477  -1.406  -0.092  0.00  0.00    +0.007 C 
ATOM     20  O   UNL     1      -3.385   1.739   0.336  0.00  0.00    -0.449 OA
ATOM     21  C   UNL     1      -3.340   3.109   0.773  0.00  0.00    +0.467 C 
ATOM     22  O   UNL     1      -2.086   3.592   0.259  0.00  0.00    -0.452 OA
ATOM     23  N   UNL     1       1.915  -1.362   0.218  0.00  0.00    +0.386 N 
ATOM     24  H   UNL     1       2.039  -1.083   1.199  0.00  0.00    -0.081 HD
BRANCH  17  25
ATOM     25  O   UNL     1      -2.271  -1.016   0.163  0.00  0.00    -0.491 OA
ATOM     26  C   UNL     1      -2.753  -1.516  -1.086  0.00  0.00    +0.277 C 
ENDBRANCH  17  25
ENDBRANCH   1  19
BRANCH   7  27
ATOM     27  C   UNL     1      -0.572  -2.652   4.537  0.00  0.00    +0.054 A 
ATOM     28  C   UNL     1       0.459  -3.248   5.250  0.00  0.00    +0.028 A 
ATOM     29  C   UNL     1       0.585  -3.015   6.606  0.00  0.00    +0.022 A 
ATOM     30  C   UNL     1      -0.323  -2.196   7.255  0.00  0.00    +0.041 A 
ATOM     31  C   UNL     1      -1.355  -1.605   6.548  0.00  0.00    +0.022 A 
ATOM     32  C   UNL     1      -1.482  -1.832   5.191  0.00  0.00    +0.028 A 
ATOM     33 CL   UNL     1      -0.166  -1.910   8.960  0.00  0.00    -0.084 Cl
ENDBRANCH   7  27
BRANCH   2  34
ATOM     34  O   UNL     1      -1.114  -3.601  -0.838  0.00  0.00    -0.493 OA
ATOM     35  H   UNL     1      -1.670  -4.366  -1.036  0.00  0.00    +0.294 HD
ENDBRANCH   2  34
TORSDOF 4
