REMARK  Name = ZINC39665196
REMARK  7 active torsions:
REMARK  status: ('A' for Active; 'I' for Inactive)
REMARK    1  A    between atoms: C_1  and  C_2
REMARK    2  A    between atoms: C_2  and  C_4
REMARK    3  A    between atoms: C_2  and  O_29
REMARK    4  A    between atoms: C_4  and  N_5
REMARK    5  A    between atoms: C_6  and  C_8
REMARK    6  A    between atoms: C_19  and  C_21
REMARK    7  A    between atoms: O_29  and  C_30
REMARK                            x       y       z     vdW  Elec       q    Type
REMARK                         _______ _______ _______ _____ _____    ______ ____
ROOT
ATOM      1  C   UNL     1       0.758  -3.723   2.371  0.00  0.00    +0.100 C 
ATOM      2  C   UNL     1       0.982  -4.354   0.978  0.00  0.00    +0.121 C 
ATOM      3  N   UNL     1       2.421  -4.705   0.953  0.00  0.00    -0.296 N 
ATOM      4  C   UNL     1       2.701  -5.213   2.317  0.00  0.00    +0.115 C 
ATOM      5  C   UNL     1       1.887  -4.292   3.247  0.00  0.00    -0.004 C 
ATOM      6  C   UNL     1       2.768  -3.163   3.773  0.00  0.00    -0.010 C 
ATOM      7  C   UNL     1       3.847  -3.748   4.688  0.00  0.00    -0.082 C 
ATOM      8  N   UNL     1       3.213  -4.461   5.803  0.00  0.00    +0.379 N 
ATOM      9  C   UNL     1       2.442  -5.601   5.295  0.00  0.00    -0.082 C 
ATOM     10  C   UNL     1       1.303  -5.095   4.406  0.00  0.00    -0.010 C 
ATOM     11  C   UNL     1       3.282  -4.589  -0.078  0.00  0.00    +0.248 C 
ATOM     12  O   UNL     1       4.419  -5.005   0.029  0.00  0.00    -0.270 OA
ATOM     13  H   UNL     1       3.925  -4.793   6.437  0.00  0.00    -0.086 HD
ATOM     14  H   UNL     1       2.596  -3.832   6.295  0.00  0.00    -0.086 HD
ENDROOT
BRANCH  11  15
ATOM     15  C   UNL     1       2.843  -3.956  -1.339  0.00  0.00    +0.057 A 
ATOM     16  C   UNL     1       1.589  -4.254  -1.875  0.00  0.00    +0.014 A 
ATOM     17  C   UNL     1       1.185  -3.660  -3.052  0.00  0.00    +0.002 A 
ATOM     18  C   UNL     1       2.019  -2.769  -3.704  0.00  0.00    +0.021 A 
ATOM     19  C   UNL     1       3.264  -2.468  -3.181  0.00  0.00    +0.060 A 
ATOM     20  C   UNL     1       3.680  -3.052  -1.998  0.00  0.00    +0.071 A 
ATOM     21 CL   UNL     1       5.239  -2.668  -1.339  0.00  0.00    -0.081 Cl
ATOM     22 CL   UNL     1       4.304  -1.351  -4.008  0.00  0.00    -0.082 Cl
ENDBRANCH  11  15
BRANCH   1  24
ATOM     23  N   UNL     1       0.273  -1.454   3.227  0.00  0.00    -0.312 N 
ATOM     24  C   UNL     1       0.863  -2.222   2.290  0.00  0.00    +0.218 C 
ATOM     25  O   UNL     1       1.478  -1.705   1.381  0.00  0.00    -0.275 OA
ATOM     26  H   UNL     1      -0.219  -1.867   3.954  0.00  0.00    +0.149 HD
BRANCH  23  27
ATOM     27  C   UNL     1       0.375   0.006   3.148  0.00  0.00    +0.148 C 
BRANCH  27  29
ATOM     28  C   UNL     1      -0.270   2.157   4.242  0.00  0.00    +0.053 C 
ATOM     29  C   UNL     1      -0.377   0.633   4.324  0.00  0.00    +0.187 C 
BRANCH  29  30
ATOM     30  O   UNL     1      -1.752   0.248   4.271  0.00  0.00    -0.488 OA
BRANCH  30  31
ATOM     31  C   UNL     1      -2.424   0.196   5.451  0.00  0.00    +0.121 A 
ATOM     32  C   UNL     1      -3.729  -0.273   5.487  0.00  0.00    +0.045 A 
ATOM     33  C   UNL     1      -4.410  -0.325   6.688  0.00  0.00    +0.004 A 
ATOM     34  C   UNL     1      -3.792   0.089   7.853  0.00  0.00    +0.000 A 
ATOM     35  C   UNL     1      -2.491   0.557   7.820  0.00  0.00    +0.004 A 
ATOM     36  C   UNL     1      -1.804   0.606   6.623  0.00  0.00    +0.045 A 
ENDBRANCH  30  31
ENDBRANCH  29  30
ENDBRANCH  27  29
ENDBRANCH  23  27
ENDBRANCH   1  24
TORSDOF 6
