REMARK  Name = ZINC12558635
REMARK  12 active torsions:
REMARK  status: ('A' for Active; 'I' for Inactive)
REMARK    1  A    between atoms: C_1  and  C_2
REMARK    2  A    between atoms: C_2  and  C_3
REMARK    3  A    between atoms: C_2  and  C_4
REMARK    4  A    between atoms: C_2  and  N_5
REMARK    5  A    between atoms: N_5  and  S_6
REMARK    6  A    between atoms: S_6  and  C_9
REMARK    7  A    between atoms: C_12  and  N_18
REMARK    8  A    between atoms: C_13  and  N_15
REMARK    9  A    between atoms: N_18  and  C_19
REMARK   10  A    between atoms: C_19  and  C_21
REMARK   11  A    between atoms: C_19  and  C_28
REMARK   12  A    between atoms: N_32  and  C_33
REMARK                            x       y       z     vdW  Elec       q    Type
REMARK                         _______ _______ _______ _____ _____    ______ ____
ROOT
ATOM      1  C   UNL     1       2.732   0.323   0.123  0.00  0.00    +0.108 A 
ATOM      2  C   UNL     1       2.329   0.426   1.442  0.00  0.00    +0.030 A 
ATOM      3  C   UNL     1       3.055  -0.195   2.438  0.00  0.00    +0.027 A 
ATOM      4  C   UNL     1       4.192  -0.925   2.115  0.00  0.00    +0.059 A 
ATOM      5  C   UNL     1       4.594  -1.027   0.789  0.00  0.00    +0.149 A 
ATOM      6  C   UNL     1       3.860  -0.407  -0.203  0.00  0.00    +0.063 A 
ENDROOT
BRANCH   1   7
ATOM      7  S   UNL     1       1.802   1.118  -1.145  0.00  0.00    +0.059 S 
ATOM      8  O   UNL     1       2.615   1.108  -2.311  0.00  0.00    -0.153 OA
ATOM      9  O   UNL     1       1.291   2.318  -0.582  0.00  0.00    -0.153 OA
BRANCH   7  10
ATOM     10  N   UNL     1       0.495   0.154  -1.471  0.00  0.00    -0.185 NA
ATOM     11  H   UNL     1      -0.398   0.453  -1.239  0.00  0.00    +0.149 HD
BRANCH  10  13
ATOM     12  C   UNL     1       1.720  -1.958  -1.317  0.00  0.00    +0.029 C 
ATOM     13  C   UNL     1       0.689  -1.151  -2.108  0.00  0.00    +0.032 C 
ATOM     14  C   UNL     1       1.188  -0.950  -3.541  0.00  0.00    +0.029 C 
ATOM     15  C   UNL     1      -0.641  -1.908  -2.134  0.00  0.00    +0.029 C 
ENDBRANCH  10  13
ENDBRANCH   7  10
ENDBRANCH   1   7
BRANCH   5  16
ATOM     16  N   UNL     1       5.805  -1.803   0.440  0.00  0.00    +0.058 N 
ATOM     17  O   UNL     1       6.776  -1.764   1.159  0.00  0.00    -0.126 OA
ATOM     18  O   UNL     1       5.823  -2.476  -0.564  0.00  0.00    -0.126 OA
ENDBRANCH   5  16
BRANCH   4  19
ATOM     19  N   UNL     1       4.929  -1.555   3.120  0.00  0.00    -0.329 N 
ATOM     20  H   UNL     1       5.711  -2.082   2.891  0.00  0.00    +0.147 HD
BRANCH  19  21
ATOM     21  C   UNL     1       4.522  -1.420   4.521  0.00  0.00    +0.168 C 
BRANCH  21  22
ATOM     22  C   UNL     1       5.713  -1.655   5.415  0.00  0.00    +0.015 A 
ATOM     23  C   UNL     1       6.715  -2.520   5.018  0.00  0.00    +0.009 A 
ATOM     24  C   UNL     1       7.807  -2.736   5.838  0.00  0.00    +0.001 A 
ATOM     25  C   UNL     1       7.898  -2.087   7.055  0.00  0.00    +0.003 A 
ATOM     26  C   UNL     1       6.897  -1.221   7.454  0.00  0.00    +0.039 A 
ATOM     27  C   UNL     1       5.805  -1.000   6.631  0.00  0.00    +0.129 A 
ATOM     28  F   UNL     1       4.829  -0.151   7.018  0.00  0.00    -0.205 F 
ENDBRANCH  21  22
BRANCH  21  29
ATOM     29  C   UNL     1       3.452  -2.433   4.833  0.00  0.00    +0.112 A 
ATOM     30  N   UNL     1       2.551  -2.324   5.772  0.00  0.00    -0.348 N 
ATOM     31  C   UNL     1       1.765  -3.410   5.759  0.00  0.00    +0.102 A 
ATOM     32  C   UNL     1       2.195  -4.224   4.776  0.00  0.00    +0.104 A 
ATOM     33  N   UNL     1       3.261  -3.602   4.185  0.00  0.00    -0.337 N 
ATOM     34  C   UNL     1       4.051  -4.111   3.061  0.00  0.00    +0.150 C 
ATOM     35  H   UNL     1       2.464  -1.575   6.382  0.00  0.00    +0.167 HD
ENDBRANCH  21  29
ENDBRANCH  19  21
ENDBRANCH   4  19
TORSDOF 8
