REMARK  Name = ZINC36795548
REMARK  7 active torsions:
REMARK  status: ('A' for Active; 'I' for Inactive)
REMARK    1  A    between atoms: C_3  and  S_26
REMARK    2  A    between atoms: C_6  and  N_7
REMARK    3  A    between atoms: C_11  and  S_13
REMARK    4  A    between atoms: S_13  and  C_14
REMARK    5  A    between atoms: C_14  and  C_15
REMARK    6  A    between atoms: N_20  and  C_21
REMARK    7  A    between atoms: S_26  and  C_27
REMARK                            x       y       z     vdW  Elec       q    Type
REMARK                         _______ _______ _______ _____ _____    ______ ____
ROOT
ATOM      1  N   UNL     1      -1.201  -0.721   0.010  0.00  0.00    -0.292 N 
ATOM      2  C   UNL     1      -1.185  -2.106  -0.102  0.00  0.00    +0.187 A 
ATOM      3  N   UNL     1      -0.157  -2.931  -0.130  0.00  0.00    -0.125 NA
ATOM      4  N   UNL     1      -0.368  -4.285  -0.248  0.00  0.00    -0.133 NA
ATOM      5  C   UNL     1      -1.599  -4.752  -0.333  0.00  0.00    +0.160 A 
ATOM      6  S   UNL     1      -2.554  -3.245  -0.240  0.00  0.00    -0.024 S 
ATOM      7  H   UNL     1      -2.045  -0.251   0.102  0.00  0.00    +0.154 HD
ENDROOT
BRANCH   1  13
ATOM      8  C   UNL     1       1.121  -0.540  -0.633  0.00  0.00    +0.024 A 
ATOM      9  C   UNL     1       2.306   0.168  -0.651  0.00  0.00    +0.017 A 
ATOM     10  C   UNL     1       2.380   1.416  -0.046  0.00  0.00    +0.013 A 
ATOM     11  C   UNL     1       1.260   1.952   0.578  0.00  0.00    +0.017 A 
ATOM     12  C   UNL     1       0.075   1.245   0.597  0.00  0.00    +0.024 A 
ATOM     13  C   UNL     1       0.002  -0.003  -0.009  0.00  0.00    +0.033 A 
BRANCH  10  14
ATOM     14  S   UNL     1       3.893   2.319  -0.070  0.00  0.00    -0.056 S 
BRANCH  14  15
ATOM     15  C   UNL     1       3.505   3.849   0.824  0.00  0.00    +0.404 C 
ATOM     16  F   UNL     1       2.476   4.527   0.161  0.00  0.00    -0.197 F 
ATOM     17  F   UNL     1       3.096   3.539   2.125  0.00  0.00    -0.197 F 
ENDBRANCH  14  15
ENDBRANCH  10  14
ENDBRANCH   1  13
BRANCH   5  18
ATOM     18  S   UNL     1      -2.153  -6.418  -0.490  0.00  0.00    -0.088 S 
BRANCH  18  19
ATOM     19  C   UNL     1      -0.621  -7.389  -0.511  0.00  0.00    +0.172 C 
BRANCH  19  20
ATOM     20  C   UNL     1      -0.957  -8.853  -0.643  0.00  0.00    +0.231 C 
ATOM     21  O   UNL     1      -2.114  -9.205  -0.716  0.00  0.00    -0.274 OA
ATOM     22  N   UNL     1       0.031  -9.770  -0.680  0.00  0.00    -0.240 N 
ATOM     23  C   UNL     1      -0.269 -11.078  -0.798  0.00  0.00    +0.306 C 
ATOM     24  O   UNL     1      -1.430 -11.431  -0.872  0.00  0.00    -0.252 OA
ATOM     25  N   UNL     1       0.718 -11.995  -0.835  0.00  0.00    -0.296 N 
ATOM     26  H   UNL     1       0.957  -9.488  -0.621  0.00  0.00    +0.159 HD
ATOM     27  H   UNL     1       1.644 -11.713  -0.776  0.00  0.00    +0.151 HD
BRANCH  25  28
ATOM     28  C   UNL     1       0.392 -13.418  -0.963  0.00  0.00    +0.074 C 
ATOM     29  C   UNL     1       0.166 -14.036   0.432  0.00  0.00    +0.022 C 
ATOM     30  C   UNL     1       0.771 -15.457   0.320  0.00  0.00    +0.002 C 
ATOM     31  C   UNL     1       2.025 -15.226  -0.559  0.00  0.00    +0.002 C 
ATOM     32  C   UNL     1       1.575 -14.174  -1.593  0.00  0.00    +0.022 C 
ENDBRANCH  25  28
ENDBRANCH  19  20
ENDBRANCH  18  19
ENDBRANCH   5  18
TORSDOF 7
