REMARK  Name = ZINC41252130
REMARK  6 active torsions:
REMARK  status: ('A' for Active; 'I' for Inactive)
REMARK    1  A    between atoms: C_6  and  C_7
REMARK    2  A    between atoms: N_12  and  C_14
REMARK    3  A    between atoms: C_14  and  C_15
REMARK    4  A    between atoms: C_15  and  C_16
REMARK    5  A    between atoms: C_21  and  C_24
REMARK    6  A    between atoms: C_21  and  N_27
REMARK                            x       y       z     vdW  Elec       q    Type
REMARK                         _______ _______ _______ _____ _____    ______ ____
ROOT
ATOM      1  C   UNL     1      -5.666   0.327   2.347  0.00  0.00    +0.217 C 
ATOM      2  O   UNL     1      -5.830   0.516   1.160  0.00  0.00    -0.276 OA
ATOM      3  N   UNL     1      -6.467   0.936   3.243  0.00  0.00    -0.302 N 
ATOM      4  C   UNL     1      -6.277   0.722   4.684  0.00  0.00    +0.107 C 
ATOM      5  C   UNL     1      -7.607   0.270   5.295  0.00  0.00    +0.016 C 
ATOM      6  C   UNL     1      -8.695   1.288   4.949  0.00  0.00    +0.015 C 
ATOM      7  C   UNL     1      -8.862   1.363   3.430  0.00  0.00    +0.016 C 
ATOM      8  C   UNL     1      -7.543   1.832   2.798  0.00  0.00    +0.107 C 
ENDROOT
BRANCH   6   9
ATOM      9  N   UNL     1      -9.965   0.874   5.561  0.00  0.00    +0.389 N 
ATOM     10  C   UNL     1      -9.808   0.817   7.019  0.00  0.00    -0.077 C 
ATOM     11  C   UNL     1     -11.103   0.309   7.657  0.00  0.00    -0.019 C 
ATOM     12  C   UNL     1     -12.248   1.262   7.302  0.00  0.00    -0.004 C 
ATOM     13  C   UNL     1     -12.354   1.371   5.778  0.00  0.00    -0.019 C 
ATOM     14  C   UNL     1     -11.013   1.841   5.211  0.00  0.00    -0.077 C 
ATOM     15  H   UNL     1     -10.222  -0.038   5.217  0.00  0.00    -0.080 HD
ENDBRANCH   6   9
BRANCH   6  16
ATOM     16  C   UNL     1      -8.301   2.643   5.478  0.00  0.00    +0.200 C 
ATOM     17  O   UNL     1      -7.441   2.736   6.327  0.00  0.00    -0.278 OA
ATOM     18  N   UNL     1      -8.905   3.752   5.007  0.00  0.00    -0.330 N 
ATOM     19  H   UNL     1      -9.642   3.674   4.381  0.00  0.00    +0.145 HD
ATOM     20  H   UNL     1      -8.603   4.628   5.294  0.00  0.00    +0.145 HD
ENDBRANCH   6  16
BRANCH   1  21
ATOM     21  C   UNL     1      -4.566  -0.589   2.819  0.00  0.00    +0.119 C 
BRANCH  21  22
ATOM     22  C   UNL     1      -3.812  -1.146   1.610  0.00  0.00    +0.156 C 
BRANCH  22  28
ATOM     23  C   UNL     1      -0.578  -2.286   2.719  0.00  0.00    +0.092 A 
ATOM     24  C   UNL     1      -0.754  -3.675   2.921  0.00  0.00    +0.035 A 
ATOM     25  C   UNL     1      -1.983  -4.213   2.675  0.00  0.00    +0.074 A 
ATOM     26  C   UNL     1      -3.007  -3.347   2.232  0.00  0.00    +0.267 A 
ATOM     27  O   UNL     1      -4.123  -3.783   1.999  0.00  0.00    -0.266 OA
ATOM     28  N   UNL     1      -2.743  -2.037   2.070  0.00  0.00    -0.228 N 
ATOM     29  N   UNL     1      -1.582  -1.546   2.311  0.00  0.00    -0.168 NA
BRANCH  23  35
ATOM     30  C   UNL     1       0.920  -0.294   2.785  0.00  0.00    +0.011 A 
ATOM     31  C   UNL     1       2.151   0.280   3.026  0.00  0.00    +0.020 A 
ATOM     32  C   UNL     1       3.210  -0.501   3.458  0.00  0.00    +0.041 A 
ATOM     33  C   UNL     1       3.039  -1.861   3.649  0.00  0.00    +0.020 A 
ATOM     34  C   UNL     1       1.812  -2.446   3.411  0.00  0.00    +0.011 A 
ATOM     35  C   UNL     1       0.743  -1.663   2.977  0.00  0.00    +0.002 A 
ATOM     36 CL   UNL     1       4.756   0.228   3.758  0.00  0.00    -0.084 Cl
ENDBRANCH  23  35
ENDBRANCH  22  28
ENDBRANCH  21  22
ENDBRANCH   1  21
TORSDOF 6
