REMARK  Name = ZINC39672940
REMARK  5 active torsions:
REMARK  status: ('A' for Active; 'I' for Inactive)
REMARK    1  A    between atoms: C_4  and  C_7
REMARK    2  A    between atoms: C_4  and  N_31
REMARK    3  A    between atoms: C_7  and  N_8
REMARK    4  A    between atoms: C_9  and  C_11
REMARK    5  A    between atoms: C_22  and  C_24
REMARK                            x       y       z     vdW  Elec       q    Type
REMARK                         _______ _______ _______ _____ _____    ______ ____
ROOT
ATOM      1  C   UNL     1       2.526  -4.206  -1.271  0.00  0.00    +0.100 C 
ATOM      2  C   UNL     1       3.124  -4.942  -0.051  0.00  0.00    +0.121 C 
ATOM      3  N   UNL     1       3.712  -6.181  -0.611  0.00  0.00    -0.300 N 
ATOM      4  C   UNL     1       4.319  -5.754  -1.895  0.00  0.00    +0.115 C 
ATOM      5  C   UNL     1       3.313  -4.741  -2.479  0.00  0.00    -0.004 C 
ATOM      6  C   UNL     1       2.372  -5.438  -3.457  0.00  0.00    -0.010 C 
ATOM      7  C   UNL     1       3.168  -5.911  -4.676  0.00  0.00    -0.082 C 
ATOM      8  N   UNL     1       3.811  -4.759  -5.320  0.00  0.00    +0.379 N 
ATOM      9  C   UNL     1       4.783  -4.151  -4.404  0.00  0.00    -0.082 C 
ATOM     10  C   UNL     1       4.055  -3.603  -3.173  0.00  0.00    -0.010 C 
ATOM     11  C   UNL     1       3.697  -7.418  -0.076  0.00  0.00    +0.219 C 
ATOM     12  O   UNL     1       4.227  -8.338  -0.661  0.00  0.00    -0.275 OA
ATOM     13  H   UNL     1       4.285  -5.064  -6.157  0.00  0.00    -0.086 HD
ATOM     14  H   UNL     1       3.109  -4.077  -5.564  0.00  0.00    -0.086 HD
ENDROOT
BRANCH  11  15
ATOM     15  C   UNL     1       3.023  -7.657   1.251  0.00  0.00    +0.079 C 
ATOM     16  C   UNL     1       3.157  -9.135   1.638  0.00  0.00    +0.017 C 
ATOM     17  C   UNL     1       2.316  -9.385   2.892  0.00  0.00    +0.027 C 
ATOM     18  C   UNL     1       2.624  -8.351   3.935  0.00  0.00    -0.031 C 
ATOM     19  C   UNL     1       3.222  -7.229   3.691  0.00  0.00    -0.030 C 
ATOM     20  C   UNL     1       3.696  -6.806   2.330  0.00  0.00    +0.039 C 
ENDBRANCH  11  15
BRANCH   1  22
ATOM     21  N   UNL     1       1.872  -1.868  -1.744  0.00  0.00    -0.313 N 
ATOM     22  C   UNL     1       2.722  -2.718  -1.135  0.00  0.00    +0.218 C 
ATOM     23  O   UNL     1       3.645  -2.286  -0.476  0.00  0.00    -0.275 OA
ATOM     24  H   UNL     1       1.135  -2.214  -2.270  0.00  0.00    +0.149 HD
BRANCH  21  25
ATOM     25  C   UNL     1       2.063  -0.421  -1.611  0.00  0.00    +0.126 C 
BRANCH  25  29
ATOM     26  C   UNL     1      -0.051   1.950  -0.064  0.00  0.00    +0.000 C 
ATOM     27  C   UNL     1      -0.302   0.442  -0.112  0.00  0.00    +0.002 C 
ATOM     28  C   UNL     1      -0.402  -0.012  -1.570  0.00  0.00    +0.024 C 
ATOM     29  C   UNL     1       0.906   0.310  -2.295  0.00  0.00    +0.038 C 
ATOM     30  C   UNL     1       1.157   1.819  -2.247  0.00  0.00    +0.024 C 
ATOM     31  C   UNL     1       1.257   2.273  -0.790  0.00  0.00    +0.002 C 
BRANCH  29  32
ATOM     32  N   UNL     1       0.810  -0.126  -3.695  0.00  0.00    -0.291 NA
ATOM     33  C   UNL     1       2.062   0.141  -4.417  0.00  0.00    +0.113 C 
ATOM     34  C   UNL     1       1.940  -0.382  -5.851  0.00  0.00    +0.175 C 
ATOM     35  O   UNL     1       0.811   0.229  -6.481  0.00  0.00    -0.377 OA
ATOM     36  C   UNL     1      -0.426  -0.012  -5.804  0.00  0.00    +0.175 C 
ATOM     37  C   UNL     1      -0.328   0.515  -4.370  0.00  0.00    +0.113 C 
ENDBRANCH  29  32
ENDBRANCH  25  29
ENDBRANCH  21  25
ENDBRANCH   1  22
TORSDOF 5
