REMARK  Name = ZINC15678257
REMARK  8 active torsions:
REMARK  status: ('A' for Active; 'I' for Inactive)
REMARK    1  A    between atoms: C_1  and  C_2
REMARK    2  A    between atoms: C_2  and  C_25
REMARK    3  A    between atoms: C_5  and  C_20
REMARK    4  A    between atoms: N_11  and  C_12
REMARK    5  A    between atoms: C_12  and  C_13
REMARK    6  A    between atoms: C_13  and  C_14
REMARK    7  A    between atoms: C_14  and  N_78
REMARK    8  A    between atoms: N_27  and  C_28
REMARK                            x       y       z     vdW  Elec       q    Type
REMARK                         _______ _______ _______ _____ _____    ______ ____
ROOT
ATOM      1  C   UNL     1       3.016   4.288  -1.126  0.00  0.00    +0.043 C 
ATOM      2  C   UNL     1       1.493   4.238  -1.261  0.00  0.00    +0.128 C 
ATOM      3  C   UNL     1       0.975   5.638  -1.609  0.00  0.00    +0.157 C 
ATOM      4  N   UNL     1       1.062   6.488  -0.419  0.00  0.00    -0.331 N 
ATOM      5  C   UNL     1       1.239   7.828  -0.315  0.00  0.00    +0.085 A 
ATOM      6  C   UNL     1       1.216   8.165   1.030  0.00  0.00    +0.032 A 
ATOM      7  C   UNL     1       1.028   6.991   1.760  0.00  0.00    +0.033 A 
ATOM      8  C   UNL     1       0.949   5.962   0.864  0.00  0.00    +0.105 A 
ATOM      9  C   UNL     1       0.758   4.522   1.069  0.00  0.00    +0.264 C 
ATOM     10  O   UNL     1       0.466   4.063   2.158  0.00  0.00    -0.268 OA
ATOM     11  N   UNL     1       0.925   3.731  -0.017  0.00  0.00    -0.281 N 
ENDROOT
BRANCH   5  12
ATOM     12  C   UNL     1       1.422   8.763  -1.435  0.00  0.00    +0.151 A 
ATOM     13  C   UNL     1       1.690  10.096  -1.330  0.00  0.00    +0.051 A 
ATOM     14  C   UNL     1       1.789  10.593  -2.642  0.00  0.00    +0.042 A 
ATOM     15  C   UNL     1       1.570   9.556  -3.476  0.00  0.00    +0.196 A 
ATOM     16  O   UNL     1       1.349   8.453  -2.744  0.00  0.00    -0.461 OA
ENDBRANCH   5  12
BRANCH   2  17
ATOM     17  C   UNL     1       1.136   3.294  -2.380  0.00  0.00    +0.238 C 
ATOM     18  O   UNL     1       1.983   2.565  -2.852  0.00  0.00    -0.273 OA
ATOM     19  N   UNL     1      -0.124   3.259  -2.856  0.00  0.00    -0.311 N 
ATOM     20  H   UNL     1      -0.784   3.890  -2.529  0.00  0.00    +0.149 HD
BRANCH  19  21
ATOM     21  C   UNL     1      -0.498   2.268  -3.869  0.00  0.00    +0.073 C 
ATOM     22  C   UNL     1      -0.143   2.801  -5.259  0.00  0.00    +0.022 C 
ATOM     23  C   UNL     1      -0.154   1.648  -6.264  0.00  0.00    +0.002 C 
ATOM     24  C   UNL     1       0.555   0.435  -5.659  0.00  0.00    +0.000 C 
ATOM     25  C   UNL     1      -0.459  -0.686  -5.427  0.00  0.00    +0.000 C 
ATOM     26  C   UNL     1      -1.304  -0.362  -4.193  0.00  0.00    +0.000 C 
ATOM     27  C   UNL     1      -2.332   0.714  -4.547  0.00  0.00    +0.002 C 
ATOM     28  C   UNL     1      -2.003   2.003  -3.792  0.00  0.00    +0.022 C 
ENDBRANCH  19  21
ENDBRANCH   2  17
BRANCH  11  29
ATOM     29  C   UNL     1       0.530   2.323   0.062  0.00  0.00    +0.107 C 
BRANCH  29  30
ATOM     30  C   UNL     1      -0.971   2.198  -0.208  0.00  0.00    +0.000 C 
BRANCH  30  31
ATOM     31  C   UNL     1      -1.384   0.727  -0.125  0.00  0.00    -0.077 C 
BRANCH  31  37
ATOM     32  C   UNL     1      -3.606   1.256   0.677  0.00  0.00    -0.079 C 
ATOM     33  C   UNL     1      -5.090   1.240   0.302  0.00  0.00    -0.019 C 
ATOM     34  C   UNL     1      -5.549  -0.209   0.117  0.00  0.00    -0.004 C 
ATOM     35  C   UNL     1      -4.687  -0.875  -0.960  0.00  0.00    -0.019 C 
ATOM     36  C   UNL     1      -3.215  -0.798  -0.548  0.00  0.00    -0.079 C 
ATOM     37  N   UNL     1      -2.830   0.622  -0.410  0.00  0.00    +0.380 N 
ATOM     38  H   UNL     1      -3.032   1.109  -1.291  0.00  0.00    -0.082 HD
ENDBRANCH  31  37
ENDBRANCH  30  31
ENDBRANCH  29  30
ENDBRANCH  11  29
TORSDOF 7
