REMARK  Name = ZINC09043451
REMARK  15 active torsions:
REMARK  status: ('A' for Active; 'I' for Inactive)
REMARK    1  A    between atoms: C_1  and  C_2
REMARK    2  A    between atoms: C_2  and  C_3
REMARK    3  A    between atoms: C_2  and  O_4
REMARK    4  A    between atoms: O_4  and  C_5
REMARK    5  A    between atoms: C_8  and  C_11
REMARK    6  A    between atoms: C_14  and  C_15
REMARK    7  A    between atoms: C_14  and  O_25
REMARK    8  A    between atoms: C_18  and  O_21
REMARK    9  A    between atoms: O_21  and  C_22
REMARK   10  A    between atoms: C_22  and  C_23
REMARK   11  A    between atoms: C_22  and  C_24
REMARK   12  A    between atoms: N_30  and  C_31
REMARK   13  A    between atoms: C_31  and  C_32
REMARK   14  A    between atoms: C_32  and  C_33
REMARK   15  A    between atoms: C_33  and  N_76
REMARK                            x       y       z     vdW  Elec       q    Type
REMARK                         _______ _______ _______ _____ _____    ______ ____
ROOT
ATOM      1  C   UNL     1      -1.810   2.224   0.285  0.00  0.00    +0.144 C 
ATOM      2  C   UNL     1      -2.012   2.607  -1.163  0.00  0.00    +0.071 C 
ATOM      3  C   UNL     1      -2.251   1.752  -2.222  0.00  0.00    +0.133 C 
ATOM      4  C   UNL     1      -1.910   4.005  -1.216  0.00  0.00    +0.249 C 
ATOM      5  O   UNL     1      -2.016   4.691  -2.216  0.00  0.00    -0.282 OA
ATOM      6  C   UNL     1      -1.649   4.503   0.162  0.00  0.00    +0.288 C 
ATOM      7  O   UNL     1      -1.507   5.670   0.464  0.00  0.00    -0.266 OA
ATOM      8  N   UNL     1      -1.593   3.472   1.023  0.00  0.00    -0.284 N 
ENDROOT
BRANCH   1  12
ATOM      9  C   UNL     1       1.607  -0.316   0.652  0.00  0.00    +0.121 A 
ATOM     10  C   UNL     1       0.331  -0.858   0.691  0.00  0.00    +0.046 A 
ATOM     11  C   UNL     1      -0.772  -0.035   0.574  0.00  0.00    +0.009 A 
ATOM     12  C   UNL     1      -0.605   1.329   0.418  0.00  0.00    -0.022 A 
ATOM     13  C   UNL     1       0.666   1.872   0.380  0.00  0.00    +0.009 A 
ATOM     14  C   UNL     1       1.772   1.053   0.496  0.00  0.00    +0.046 A 
BRANCH   9  15
ATOM     15  O   UNL     1       2.694  -1.124   0.766  0.00  0.00    -0.489 OA
BRANCH  15  17
ATOM     16  C   UNL     1       3.663  -3.324   0.517  0.00  0.00    +0.051 C 
ATOM     17  C   UNL     1       2.448  -2.516   0.977  0.00  0.00    +0.167 C 
ATOM     18  C   UNL     1       2.200  -2.770   2.465  0.00  0.00    +0.051 C 
ENDBRANCH  15  17
ENDBRANCH   9  15
ENDBRANCH   1  12
BRANCH   3  19
ATOM     19  C   UNL     1      -2.578   2.297  -3.548  0.00  0.00    +0.017 A 
ATOM     20  C   UNL     1      -3.644   3.193  -3.695  0.00  0.00    +0.015 A 
ATOM     21  C   UNL     1      -3.943   3.704  -4.938  0.00  0.00    +0.046 A 
ATOM     22  C   UNL     1      -3.196   3.323  -6.047  0.00  0.00    +0.121 A 
ATOM     23  C   UNL     1      -2.140   2.429  -5.907  0.00  0.00    +0.046 A 
ATOM     24  C   UNL     1      -1.829   1.917  -4.668  0.00  0.00    +0.015 A 
BRANCH  22  25
ATOM     25  O   UNL     1      -3.498   3.826  -7.271  0.00  0.00    -0.489 OA
BRANCH  25  26
ATOM     26  C   UNL     1      -2.771   3.305  -8.384  0.00  0.00    +0.167 C 
ATOM     27  C   UNL     1      -3.599   3.474  -9.660  0.00  0.00    +0.051 C 
ATOM     28  C   UNL     1      -1.449   4.062  -8.530  0.00  0.00    +0.051 C 
ENDBRANCH  25  26
ENDBRANCH  22  25
ENDBRANCH   3  19
BRANCH   3  29
ATOM     29  O   UNL     1      -2.183   0.415  -2.039  0.00  0.00    -0.506 OA
ATOM     30  H   UNL     1      -2.381  -0.049  -2.902  0.00  0.00    +0.292 HD
ENDBRANCH   3  29
BRANCH   8  31
ATOM     31  C   UNL     1      -1.353   3.577   2.464  0.00  0.00    +0.107 C 
BRANCH  31  32
ATOM     32  C   UNL     1       0.150   3.501   2.739  0.00  0.00    +0.000 C 
BRANCH  32  33
ATOM     33  C   UNL     1       0.400   3.611   4.244  0.00  0.00    -0.077 C 
BRANCH  33  39
ATOM     34  C   UNL     1       2.375   2.211   4.167  0.00  0.00    -0.050 C 
ATOM     35  C   UNL     1       3.888   2.197   4.399  0.00  0.00    +0.141 C 
ATOM     36  O   UNL     1       4.160   2.558   5.756  0.00  0.00    -0.383 OA
ATOM     37  C   UNL     1       3.657   3.846   6.121  0.00  0.00    +0.141 C 
ATOM     38  C   UNL     1       2.142   3.876   5.907  0.00  0.00    -0.050 C 
ATOM     39  N   UNL     1       1.857   3.556   4.492  0.00  0.00    +0.383 N 
ATOM     40  H   UNL     1       2.324   4.247   3.892  0.00  0.00    -0.082 HD
ENDBRANCH  33  39
ENDBRANCH  32  33
ENDBRANCH  31  32
ENDBRANCH   8  31
TORSDOF 11
