REMARK  Name = ZINC18250760
REMARK  8 active torsions:
REMARK  status: ('A' for Active; 'I' for Inactive)
REMARK    1  A    between atoms: C_1  and  C_2
REMARK    2  A    between atoms: C_2  and  C_3
REMARK    3  A    between atoms: C_3  and  C_4
REMARK    4  A    between atoms: C_4  and  C_5
REMARK    5  A    between atoms: C_5  and  C_6
REMARK    6  A    between atoms: C_18  and  C_20
REMARK    7  A    between atoms: C_24  and  N_26
REMARK    8  A    between atoms: C_32  and  C_35
REMARK                            x       y       z     vdW  Elec       q    Type
REMARK                         _______ _______ _______ _____ _____    ______ ____
ROOT
ATOM      1  C   UNL     1       7.673   6.365  -1.176  0.00  0.00    +0.221 C 
ATOM      2  O   UNL     1       8.092   5.765  -0.209  0.00  0.00    -0.275 OA
ATOM      3  N   UNL     1       6.450   6.929  -1.141  0.00  0.00    -0.258 N 
ATOM      4  C   UNL     1       5.979   7.618  -2.260  0.00  0.00    +0.058 A 
ATOM      5  C   UNL     1       6.587   8.782  -2.703  0.00  0.00    +0.025 A 
ATOM      6  C   UNL     1       6.058   9.455  -3.790  0.00  0.00    +0.002 A 
ATOM      7  C   UNL     1       4.930   8.974  -4.430  0.00  0.00    +0.002 A 
ATOM      8  C   UNL     1       4.330   7.802  -4.001  0.00  0.00    +0.025 A 
ATOM      9  C   UNL     1       4.871   7.117  -2.926  0.00  0.00    +0.053 A 
ATOM     10  N   UNL     1       4.384   5.883  -2.512  0.00  0.00    -0.316 N 
ATOM     11  C   UNL     1       3.841   5.634  -1.294  0.00  0.00    +0.017 C 
ATOM     12  C   UNL     1       4.371   6.021  -0.122  0.00  0.00    +0.037 C 
ATOM     13  C   UNL     1       5.646   6.812   0.057  0.00  0.00    +0.147 C 
ATOM     14  C   UNL     1       3.736   5.680   1.096  0.00  0.00    +0.163 C 
ATOM     15  O   UNL     1       4.227   6.061   2.140  0.00  0.00    -0.292 OA
ATOM     16  C   UNL     1       2.478   4.865   1.145  0.00  0.00    +0.088 C 
ATOM     17  C   UNL     1       2.430   3.963  -0.094  0.00  0.00    +0.032 C 
ATOM     18  C   UNL     1       2.534   4.859  -1.327  0.00  0.00    +0.059 C 
ATOM     19  H   UNL     1       4.437   5.145  -3.140  0.00  0.00    +0.152 HD
ENDROOT
BRANCH  17  20
ATOM     20  C   UNL     1       1.129   3.203  -0.122  0.00  0.00    -0.043 A 
ATOM     21  C   UNL     1       1.137   1.821  -0.138  0.00  0.00    +0.007 A 
ATOM     22  C   UNL     1      -0.056   1.123  -0.164  0.00  0.00    +0.038 A 
ATOM     23  C   UNL     1      -1.259   1.809  -0.179  0.00  0.00    +0.123 A 
ATOM     24  C   UNL     1      -1.265   3.193  -0.158  0.00  0.00    +0.038 A 
ATOM     25  C   UNL     1      -0.071   3.889  -0.132  0.00  0.00    +0.007 A 
ATOM     26  F   UNL     1      -2.425   1.128  -0.209  0.00  0.00    -0.205 F 
ENDBRANCH  17  20
BRANCH  13  27
ATOM     27  C   UNL     1       5.286   8.197   0.529  0.00  0.00    -0.020 A 
ATOM     28  C   UNL     1       5.697   8.631   1.776  0.00  0.00    +0.006 A 
ATOM     29  C   UNL     1       5.371   9.903   2.207  0.00  0.00    +0.003 A 
ATOM     30  C   UNL     1       4.626  10.738   1.395  0.00  0.00    +0.033 A 
ATOM     31  C   UNL     1       4.211  10.303   0.151  0.00  0.00    +0.127 A 
ATOM     32  C   UNL     1       4.541   9.032  -0.283  0.00  0.00    +0.038 A 
BRANCH  31  33
ATOM     33  N   UNL     1       3.413  11.197  -0.718  0.00  0.00    +0.056 N 
ATOM     34  O   UNL     1       3.047  10.813  -1.815  0.00  0.00    -0.126 OA
ATOM     35  O   UNL     1       3.122  12.316  -0.336  0.00  0.00    -0.126 OA
ENDBRANCH  31  33
ENDBRANCH  13  27
BRANCH   1  36
ATOM     36  C   UNL     1       8.521   6.480  -2.417  0.00  0.00    +0.096 C 
BRANCH  36  37
ATOM     37  C   UNL     1       9.851   5.758  -2.195  0.00  0.00    +0.009 C 
BRANCH  37  38
ATOM     38  C   UNL     1      10.712   5.874  -3.454  0.00  0.00    +0.000 C 
BRANCH  38  40
ATOM     39  C   UNL     1      12.903   5.268  -4.491  0.00  0.00    +0.004 C 
ATOM     40  C   UNL     1      12.042   5.152  -3.232  0.00  0.00    -0.003 C 
ENDBRANCH  38  40
ENDBRANCH  37  38
ENDBRANCH  36  37
ENDBRANCH   1  36
TORSDOF 7
