REMARK  Name = ZINC40285632
REMARK  2 active torsions:
REMARK  status: ('A' for Active; 'I' for Inactive)
REMARK    1  A    between atoms: C_8  and  C_11
REMARK    2  A    between atoms: C_11  and  C_13
REMARK                            x       y       z     vdW  Elec       q    Type
REMARK                         _______ _______ _______ _____ _____    ______ ____
ROOT
ATOM      1  C   UNL     1       3.813  -3.240   0.254  0.00  0.00    +0.127 C 
ATOM      2 BR   UNL     1       3.154  -4.991  -0.347  0.00  0.00    -0.079 Br
ENDROOT
BRANCH   1   3
ATOM      3  C   UNL     1       5.278  -3.115  -0.073  0.00  0.00    -0.027 A 
ATOM      4  C   UNL     1       5.711  -3.296  -1.375  0.00  0.00    +0.007 A 
ATOM      5  C   UNL     1       7.053  -3.184  -1.683  0.00  0.00    +0.030 A 
ATOM      6  C   UNL     1       7.967  -2.888  -0.683  0.00  0.00    +0.087 A 
ATOM      7  C   UNL     1       7.532  -2.704   0.629  0.00  0.00    +0.157 A 
ATOM      8  C   UNL     1       6.183  -2.814   0.927  0.00  0.00    +0.053 A 
ATOM      9  O   UNL     1       8.626  -2.430   1.381  0.00  0.00    -0.408 OA
ATOM     10  C   UNL     1       9.714  -2.437   0.596  0.00  0.00    +0.419 A 
ATOM     11  O   UNL     1      10.852  -2.227   0.970  0.00  0.00    -0.223 OA
ATOM     12  N   UNL     1       9.351  -2.712  -0.672  0.00  0.00    -0.288 N 
ATOM     13  H   UNL     1       9.943  -2.777  -1.438  0.00  0.00    +0.172 HD
ENDBRANCH   1   3
BRANCH   1  21
ATOM     14  C   UNL     1      -0.017   1.379   0.010  0.00  0.00    +0.000 A 
ATOM     15  C   UNL     1       1.174   2.082   0.002  0.00  0.00    +0.004 A 
ATOM     16  C   UNL     1       2.379   1.411  -0.009  0.00  0.00    +0.046 A 
ATOM     17  C   UNL     1       2.407   0.019  -0.013  0.00  0.00    +0.124 A 
ATOM     18  C   UNL     1       1.204  -0.676  -0.013  0.00  0.00    -0.002 A 
ATOM     19  C   UNL     1       0.002  -0.004   0.002  0.00  0.00    +0.007 A 
ATOM     20  C   UNL     1       1.545  -2.154  -0.043  0.00  0.00    +0.084 C 
ATOM     21  C   UNL     1       3.035  -2.130  -0.457  0.00  0.00    +0.196 C 
ATOM     22  O   UNL     1       3.469  -0.834  -0.012  0.00  0.00    -0.487 OA
ENDBRANCH   1  21
TORSDOF 2
