REMARK  Name = ZINC02133359
REMARK  4 active torsions:
REMARK  status: ('A' for Active; 'I' for Inactive)
REMARK    1  A    between atoms: C_12  and  C_14
REMARK    2  A    between atoms: C_14  and  C_15
REMARK    3  A    between atoms: C_18  and  O_21
REMARK    4  A    between atoms: N_24  and  C_27
REMARK                            x       y       z     vdW  Elec       q    Type
REMARK                         _______ _______ _______ _____ _____    ______ ____
ROOT
ATOM      1  C   UNL     1      -3.705  -6.196  -5.134  0.00  0.00    +0.000 A 
ATOM      2  C   UNL     1      -5.051  -5.874  -5.140  0.00  0.00    +0.002 A 
ATOM      3  C   UNL     1      -5.676  -5.471  -3.979  0.00  0.00    +0.023 A 
ATOM      4  C   UNL     1      -4.956  -5.385  -2.789  0.00  0.00    +0.036 A 
ATOM      5  C   UNL     1      -3.603  -5.710  -2.795  0.00  0.00    -0.028 A 
ATOM      6  C   UNL     1      -2.983  -6.112  -3.957  0.00  0.00    +0.004 A 
ATOM      7  C   UNL     1      -3.128  -5.516  -1.383  0.00  0.00    +0.050 C 
ATOM      8  C   UNL     1      -2.555  -6.811  -0.796  0.00  0.00    +0.088 C 
ATOM      9  C   UNL     1      -1.379  -6.346   0.107  0.00  0.00    +0.073 C 
ATOM     10  C   UNL     1      -1.375  -4.807  -0.011  0.00  0.00    -0.053 C 
ATOM     11  C   UNL     1      -1.833  -6.735   1.496  0.00  0.00    +0.224 C 
ATOM     12  O   UNL     1      -1.202  -6.553   2.516  0.00  0.00    -0.275 OA
ATOM     13  N   UNL     1      -3.038  -7.312   1.425  0.00  0.00    -0.239 N 
ATOM     14  C   UNL     1      -3.537  -7.406   0.188  0.00  0.00    +0.225 C 
ATOM     15  O   UNL     1      -4.609  -7.892  -0.100  0.00  0.00    -0.275 OA
ATOM     16  C   UNL     1      -4.342  -5.059  -0.621  0.00  0.00    +0.211 C 
ATOM     17  O   UNL     1      -4.397  -4.788   0.560  0.00  0.00    -0.277 OA
ATOM     18  N   UNL     1      -5.357  -5.009  -1.505  0.00  0.00    -0.286 N 
ATOM     19  H   UNL     1      -6.262  -4.744  -1.276  0.00  0.00    +0.155 HD
ATOM     20  N   UNL     1      -2.050  -4.548  -1.284  0.00  0.00    +0.394 N 
ATOM     21  H   UNL     1      -2.428  -3.593  -1.298  0.00  0.00    -0.083 HD
ATOM     22  H   UNL     1      -1.393  -4.668  -2.065  0.00  0.00    -0.083 HD
ENDROOT
BRANCH  13  23
ATOM     23  C   UNL     1      -3.753  -7.800   2.607  0.00  0.00    +0.084 C 
ATOM     24  C   UNL     1      -4.056  -6.606   3.536  0.00  0.00    +0.023 C 
ATOM     25  C   UNL     1      -5.189  -6.988   4.450  0.00  0.00    +0.002 C 
ATOM     26  C   UNL     1      -4.697  -7.544   5.799  0.00  0.00    +0.000 C 
ATOM     27  C   UNL     1      -3.499  -8.501   5.649  0.00  0.00    +0.000 C 
ATOM     28  C   UNL     1      -3.653  -9.438   4.482  0.00  0.00    +0.002 C 
ATOM     29  C   UNL     1      -2.944  -8.819   3.260  0.00  0.00    +0.023 C 
ENDBRANCH  13  23
BRANCH  10  30
ATOM     30  C   UNL     1       0.060  -4.277  -0.021  0.00  0.00    +0.020 C 
BRANCH  30  31
ATOM     31  C   UNL     1       0.040  -2.770  -0.013  0.00  0.00    -0.049 A 
ATOM     32  C   UNL     1       0.042  -2.087   1.189  0.00  0.00    +0.007 A 
ATOM     33  C   UNL     1       0.023  -0.705   1.199  0.00  0.00    +0.045 A 
ATOM     34  C   UNL     1       0.002  -0.004   0.002  0.00  0.00    +0.117 A 
ATOM     35  C   UNL     1      -0.006  -0.692  -1.202  0.00  0.00    +0.045 A 
ATOM     36  C   UNL     1       0.019  -2.074  -1.207  0.00  0.00    +0.007 A 
BRANCH  34  37
ATOM     37  O   UNL     1      -0.016   1.355   0.009  0.00  0.00    -0.507 OA
ATOM     38  H   UNL     1       0.862   1.760   0.003  0.00  0.00    +0.292 HD
ENDBRANCH  34  37
ENDBRANCH  30  31
ENDBRANCH  10  30
TORSDOF 4
