REMARK  Name = ZINC39638878
REMARK  6 active torsions:
REMARK  status: ('A' for Active; 'I' for Inactive)
REMARK    1  A    between atoms: C_5  and  C_7
REMARK    2  A    between atoms: C_7  and  C_8
REMARK    3  A    between atoms: C_8  and  N_9
REMARK    4  A    between atoms: C_10  and  C_12
REMARK    5  A    between atoms: C_23  and  C_25
REMARK    6  A    between atoms: C_25  and  C_26
REMARK                            x       y       z     vdW  Elec       q    Type
REMARK                         _______ _______ _______ _____ _____    ______ ____
ROOT
ATOM      1  C   UNL     1       1.536  -6.353   2.551  0.00  0.00    +0.100 C 
ATOM      2  C   UNL     1       2.691  -6.871   1.664  0.00  0.00    +0.121 C 
ATOM      3  N   UNL     1       3.809  -7.110   2.607  0.00  0.00    -0.300 N 
ATOM      4  C   UNL     1       3.160  -7.685   3.810  0.00  0.00    +0.115 C 
ATOM      5  C   UNL     1       1.846  -6.893   3.958  0.00  0.00    -0.004 C 
ATOM      6  C   UNL     1       0.725  -7.814   4.429  0.00  0.00    -0.010 C 
ATOM      7  C   UNL     1       1.027  -8.291   5.853  0.00  0.00    -0.082 C 
ATOM      8  N   UNL     1       1.143  -7.132   6.745  0.00  0.00    +0.379 N 
ATOM      9  C   UNL     1       2.283  -6.300   6.340  0.00  0.00    -0.082 C 
ATOM     10  C   UNL     1       2.034  -5.738   4.937  0.00  0.00    -0.010 C 
ATOM     11  C   UNL     1       5.120  -6.861   2.415  0.00  0.00    +0.220 C 
ATOM     12  O   UNL     1       5.920  -7.114   3.290  0.00  0.00    -0.275 OA
ATOM     13  H   UNL     1       0.296  -6.585   6.697  0.00  0.00    -0.086 HD
ATOM     14  H   UNL     1       1.282  -7.451   7.692  0.00  0.00    -0.086 HD
ENDROOT
BRANCH   1  16
ATOM     15  N   UNL     1       0.356  -4.189   2.754  0.00  0.00    -0.315 N 
ATOM     16  C   UNL     1       1.516  -4.847   2.560  0.00  0.00    +0.218 C 
ATOM     17  O   UNL     1       2.544  -4.225   2.392  0.00  0.00    -0.275 OA
ATOM     18  H   UNL     1      -0.467  -4.686   2.888  0.00  0.00    +0.149 HD
BRANCH  15  19
ATOM     19  C   UNL     1       0.336  -2.724   2.763  0.00  0.00    +0.109 C 
BRANCH  19  20
ATOM     20  C   UNL     1      -1.094  -2.235   3.001  0.00  0.00    +0.056 C 
BRANCH  20  25
ATOM     21  C   UNL     1      -1.051   1.340   4.215  0.00  0.00    +0.000 A 
ATOM     22  C   UNL     1      -1.151   2.038   3.026  0.00  0.00    +0.003 A 
ATOM     23  C   UNL     1      -1.234   1.355   1.828  0.00  0.00    +0.038 A 
ATOM     24  C   UNL     1      -1.215  -0.030   1.819  0.00  0.00    +0.127 A 
ATOM     25  C   UNL     1      -1.114  -0.728   3.010  0.00  0.00    -0.011 A 
ATOM     26  C   UNL     1      -1.032  -0.042   4.207  0.00  0.00    +0.006 A 
ATOM     27  F   UNL     1      -1.295  -0.699   0.648  0.00  0.00    -0.205 F 
ENDBRANCH  20  25
ENDBRANCH  19  20
ENDBRANCH  15  19
ENDBRANCH   1  16
BRANCH  11  28
ATOM     28  C   UNL     1       5.590  -6.268   1.112  0.00  0.00    +0.131 C 
BRANCH  28  29
ATOM     29  C   UNL     1       7.086  -6.090   1.152  0.00  0.00    -0.039 A 
ATOM     30  C   UNL     1       7.629  -4.910   1.626  0.00  0.00    +0.005 A 
ATOM     31  C   UNL     1       9.001  -4.746   1.663  0.00  0.00    +0.020 A 
ATOM     32  C   UNL     1       9.831  -5.763   1.227  0.00  0.00    +0.041 A 
ATOM     33  C   UNL     1       9.287  -6.944   0.753  0.00  0.00    +0.020 A 
ATOM     34  C   UNL     1       7.915  -7.109   0.722  0.00  0.00    +0.005 A 
ATOM     35 CL   UNL     1      11.554  -5.558   1.273  0.00  0.00    -0.084 Cl
ENDBRANCH  28  29
ENDBRANCH  11  28
TORSDOF 6
