REMARK  Name = ZINC26965070
REMARK  7 active torsions:
REMARK  status: ('A' for Active; 'I' for Inactive)
REMARK    1  A    between atoms: C_4  and  N_7
REMARK    2  A    between atoms: C_9  and  C_19
REMARK    3  A    between atoms: C_10  and  C_12
REMARK    4  A    between atoms: N_20  and  N_21
REMARK    5  A    between atoms: N_21  and  C_22
REMARK    6  A    between atoms: C_22  and  N_24
REMARK    7  A    between atoms: N_24  and  C_25
REMARK                            x       y       z     vdW  Elec       q    Type
REMARK                         _______ _______ _______ _____ _____    ______ ____
ROOT
ATOM      1  N   UNL     1       3.563   2.121   0.140  0.00  0.00    -0.239 N 
ATOM      2  C   UNL     1       3.689   3.449   0.343  0.00  0.00    +0.124 A 
ATOM      3  C   UNL     1       5.022   3.756   0.319  0.00  0.00    +0.040 A 
ATOM      4  C   UNL     1       5.737   2.500   0.081  0.00  0.00    +0.102 A 
ATOM      5  N   UNL     1       4.830   1.551  -0.013  0.00  0.00    -0.166 NA
ENDROOT
BRANCH   4   6
ATOM      6  C   UNL     1       7.206   2.329  -0.027  0.00  0.00    +0.003 A 
ATOM      7  C   UNL     1       7.968   3.258  -0.734  0.00  0.00    +0.011 A 
ATOM      8  C   UNL     1       9.335   3.097  -0.826  0.00  0.00    +0.016 A 
ATOM      9  C   UNL     1       9.949   2.010  -0.229  0.00  0.00    +0.018 A 
ATOM     10  C   UNL     1       9.196   1.081   0.469  0.00  0.00    +0.016 A 
ATOM     11  C   UNL     1       7.829   1.235   0.573  0.00  0.00    +0.011 A 
ATOM     12 BR   UNL     1      11.822   1.792  -0.366  0.00  0.00    -0.050 Br
ENDBRANCH   4   6
BRANCH   1  16
ATOM     13  C   UNL     1      -0.045   0.039   0.010  0.00  0.00    +0.000 A 
ATOM     14  C   UNL     1      -0.044   1.405   0.226  0.00  0.00    +0.002 A 
ATOM     15  C   UNL     1       1.150   2.098   0.270  0.00  0.00    +0.028 A 
ATOM     16  C   UNL     1       2.350   1.421   0.096  0.00  0.00    +0.065 A 
ATOM     17  C   UNL     1       2.346   0.050  -0.120  0.00  0.00    +0.028 A 
ATOM     18  C   UNL     1       1.149  -0.637  -0.163  0.00  0.00    +0.002 A 
ENDBRANCH   1  16
BRANCH   3  19
ATOM     19  C   UNL     1       5.621   5.091   0.497  0.00  0.00    +0.142 C 
ATOM     20  N   UNL     1       4.859   6.136   0.597  0.00  0.00    -0.188 NA
BRANCH  20  21
ATOM     21  N   UNL     1       5.429   7.415   0.661  0.00  0.00    -0.218 N 
ATOM     22  H   UNL     1       6.515   7.539   0.543  0.00  0.00    +0.176 HD
BRANCH  21  23
ATOM     23  C   UNL     1       4.645   8.492   0.866  0.00  0.00    +0.150 C 
ATOM     24  S   UNL     1       5.352  10.039   1.066  0.00  0.00    -0.017 S 
BRANCH  23  25
ATOM     25  N   UNL     1       3.306   8.352   0.915  0.00  0.00    -0.321 N 
ATOM     26  H   UNL     1       2.856   7.349   0.866  0.00  0.00    +0.148 HD
BRANCH  25  27
ATOM     27  C   UNL     1       2.449   9.535   1.032  0.00  0.00    +0.094 C 
ATOM     28  C   UNL     1       2.173  10.106  -0.368  0.00  0.00    +0.046 C 
ATOM     29  C   UNL     1       1.028  11.151  -0.248  0.00  0.00    +0.168 C 
ATOM     30  S   UNL     1      -0.090  10.290   0.937  0.00  0.00    -0.029 S 
ATOM     31  O   UNL     1      -1.046   9.535   0.205  0.00  0.00    -0.174 OA
ATOM     32  O   UNL     1      -0.534  11.221   1.914  0.00  0.00    -0.174 OA
ATOM     33  C   UNL     1       1.116   9.138   1.712  0.00  0.00    +0.188 C 
ENDBRANCH  25  27
ENDBRANCH  23  25
ENDBRANCH  21  23
ENDBRANCH  20  21
ENDBRANCH   3  19
TORSDOF 7
