REMARK  Name = ZINC03325873
REMARK  7 active torsions:
REMARK  status: ('A' for Active; 'I' for Inactive)
REMARK    1  A    between atoms: C_1  and  C_2
REMARK    2  A    between atoms: C_2  and  C_3
REMARK    3  A    between atoms: C_3  and  C_34
REMARK    4  A    between atoms: N_6  and  C_10
REMARK    5  A    between atoms: C_10  and  C_11
REMARK    6  A    between atoms: C_14  and  C_29
REMARK    7  A    between atoms: C_20  and  C_21
REMARK                            x       y       z     vdW  Elec       q    Type
REMARK                         _______ _______ _______ _____ _____    ______ ____
ROOT
ATOM      1  C   UNL     1       0.007   3.019  -4.035  0.00  0.00    +0.250 C 
ATOM      2  O   UNL     1      -0.093   3.383  -2.883  0.00  0.00    -0.272 OA
ATOM      3  N   UNL     1       0.024   3.929  -5.030  0.00  0.00    -0.209 N 
ATOM      4  C   UNL     1      -0.063   5.393  -4.890  0.00  0.00    +0.161 C 
ATOM      5  C   UNL     1       0.001   5.917  -6.300  0.00  0.00    -0.020 C 
ATOM      6  C   UNL     1       0.111   4.854  -7.120  0.00  0.00    +0.049 C 
ATOM      7  N   UNL     1       0.134   3.670  -6.405  0.00  0.00    -0.261 N 
ATOM      8  C   UNL     1       0.194   5.031  -8.588  0.00  0.00    -0.024 C 
ATOM      9  C   UNL     1       0.533   4.021  -9.416  0.00  0.00    +0.020 C 
ATOM     10  C   UNL     1      -0.128   6.425  -9.099  0.00  0.00    +0.037 C 
ATOM     11  C   UNL     1       0.546   7.444  -8.174  0.00  0.00    +0.009 C 
ATOM     12  C   UNL     1      -0.043   7.348  -6.764  0.00  0.00    +0.035 C 
ATOM     13  H   UNL     1       0.212   2.787  -6.798  0.00  0.00    +0.170 HD
ENDROOT
BRANCH   9  14
ATOM     14  C   UNL     1       0.412   4.191 -10.865  0.00  0.00    +0.012 A 
ATOM     15  C   UNL     1       0.825   3.344 -11.882  0.00  0.00    +0.015 A 
ATOM     16  C   UNL     1       0.597   3.726 -13.182  0.00  0.00    +0.008 A 
ATOM     17  C   UNL     1      -0.022   4.911 -13.429  0.00  0.00    +0.046 A 
ATOM     18  S   UNL     1      -0.315   5.538 -11.784  0.00  0.00    -0.097 S 
ENDBRANCH   9  14
BRANCH   4  19
ATOM     19  C   UNL     1       1.097   5.913  -4.081  0.00  0.00    +0.016 A 
ATOM     20  C   UNL     1       1.116   6.898  -3.150  0.00  0.00    +0.013 A 
ATOM     21  C   UNL     1       2.309   7.210  -2.527  0.00  0.00    +0.008 A 
ATOM     22  C   UNL     1       3.427   6.521  -2.865  0.00  0.00    +0.045 A 
ATOM     23  S   UNL     1       2.803   5.386  -4.095  0.00  0.00    -0.099 S 
ENDBRANCH   4  19
BRANCH   1  24
ATOM     24  C   UNL     1       0.113   1.550  -4.355  0.00  0.00    +0.215 C 
BRANCH  24  28
ATOM     25  C   UNL     1      -0.622  -0.422  -1.295  0.00  0.00    +0.138 C 
ATOM     26  C   UNL     1      -1.061   0.312  -2.547  0.00  0.00    +0.251 C 
ATOM     27  O   UNL     1      -2.194   0.453  -2.954  0.00  0.00    -0.272 OA
ATOM     28  N   UNL     1       0.071   0.776  -3.113  0.00  0.00    -0.215 N 
ATOM     29  C   UNL     1       1.153   0.440  -2.400  0.00  0.00    +0.310 C 
ATOM     30  O   UNL     1       2.288   0.745  -2.710  0.00  0.00    -0.252 OA
ATOM     31  N   UNL     1       0.843  -0.272  -1.301  0.00  0.00    -0.281 N 
ATOM     32  H   UNL     1       1.464  -0.620  -0.642  0.00  0.00    +0.152 HD
BRANCH  25  33
ATOM     33  C   UNL     1      -1.008  -1.877  -1.367  0.00  0.00    -0.015 A 
ATOM     34  C   UNL     1      -2.211  -2.300  -0.835  0.00  0.00    +0.006 A 
ATOM     35  C   UNL     1      -2.564  -3.635  -0.902  0.00  0.00    +0.000 A 
ATOM     36  C   UNL     1      -1.714  -4.546  -1.500  0.00  0.00    +0.000 A 
ATOM     37  C   UNL     1      -0.511  -4.122  -2.033  0.00  0.00    +0.000 A 
ATOM     38  C   UNL     1      -0.160  -2.787  -1.970  0.00  0.00    +0.006 A 
ENDBRANCH  25  33
BRANCH  25  40
ATOM     39  C   UNL     1      -0.863   1.718  -0.028  0.00  0.00    +0.007 C 
ATOM     40  C   UNL     1      -1.225   0.232  -0.049  0.00  0.00    +0.037 C 
ENDBRANCH  25  40
ENDBRANCH  24  28
ENDBRANCH   1  24
TORSDOF 6
