REMARK  Name = ZINC15523724
REMARK  11 active torsions:
REMARK  status: ('A' for Active; 'I' for Inactive)
REMARK    1  A    between atoms: C_1  and  C_2
REMARK    2  A    between atoms: C_2  and  C_3
REMARK    3  A    between atoms: C_2  and  C_4
REMARK    4  A    between atoms: C_4  and  C_6
REMARK    5  A    between atoms: C_4  and  N_63
REMARK    6  A    between atoms: C_9  and  C_12
REMARK    7  A    between atoms: C_18  and  C_19
REMARK    8  A    between atoms: C_18  and  N_63
REMARK    9  A    between atoms: N_21  and  C_22
REMARK   10  A    between atoms: C_25  and  S_28
REMARK   11  A    between atoms: S_28  and  N_31
REMARK                            x       y       z     vdW  Elec       q    Type
REMARK                         _______ _______ _______ _____ _____    ______ ____
ROOT
ATOM      1  N   UNL     1      -0.003  -0.010  -0.005  0.00  0.00    +0.389 N 
ATOM      2  H   UNL     1       0.067  -0.344  -0.974  0.00  0.00    -0.084 HD
ATOM      3  H   UNL     1      -0.875  -0.355   0.413  0.00  0.00    -0.084 HD
ENDROOT
BRANCH   1   4
ATOM      4  C   UNL     1      -0.011   1.465   0.001  0.00  0.00    -0.038 C 
BRANCH   4   5
ATOM      5  C   UNL     1      -0.744   1.961  -1.218  0.00  0.00    -0.061 A 
ATOM      6  C   UNL     1      -1.886   1.312  -1.650  0.00  0.00    +0.002 A 
ATOM      7  C   UNL     1      -2.561   1.770  -2.766  0.00  0.00    +0.004 A 
ATOM      8  C   UNL     1      -2.089   2.870  -3.456  0.00  0.00    -0.044 A 
ATOM      9  C   UNL     1      -0.945   3.517  -3.027  0.00  0.00    +0.004 A 
ATOM     10  C   UNL     1      -0.272   3.062  -1.909  0.00  0.00    +0.002 A 
BRANCH   8  11
ATOM     11  C   UNL     1      -2.822   3.366  -4.676  0.00  0.00    +0.019 C 
ATOM     12  C   UNL     1      -4.250   3.756  -4.289  0.00  0.00    +0.008 C 
ATOM     13  C   UNL     1      -4.995   4.260  -5.527  0.00  0.00    +0.001 C 
ATOM     14  C   UNL     1      -5.037   3.153  -6.582  0.00  0.00    +0.000 C 
ATOM     15  C   UNL     1      -3.609   2.763  -6.969  0.00  0.00    +0.001 C 
ATOM     16  C   UNL     1      -2.864   2.259  -5.731  0.00  0.00    +0.008 C 
ENDBRANCH   8  11
ENDBRANCH   4   5
BRANCH   4  18
ATOM     17  C   UNL     1      -0.735   3.497   1.263  0.00  0.00    +0.006 C 
ATOM     18  C   UNL     1      -0.720   1.967   1.261  0.00  0.00    -0.027 C 
ATOM     19  C   UNL     1      -2.157   1.442   1.282  0.00  0.00    +0.006 C 
ENDBRANCH   4  18
ENDBRANCH   1   4
BRANCH   1  20
ATOM     20  C   UNL     1       1.144  -0.519   0.770  0.00  0.00    +0.016 C 
BRANCH  20  21
ATOM     21  C   UNL     1       1.126  -2.026   0.746  0.00  0.00    +0.200 C 
ATOM     22  O   UNL     1       0.250  -2.613   0.146  0.00  0.00    -0.278 OA
ATOM     23  N   UNL     1       2.084  -2.721   1.390  0.00  0.00    -0.287 N 
ATOM     24  H   UNL     1       2.821  -2.254   1.813  0.00  0.00    +0.155 HD
BRANCH  23  25
ATOM     25  C   UNL     1       2.014  -4.118   1.450  0.00  0.00    +0.033 A 
ATOM     26  C   UNL     1       2.457  -4.789   2.582  0.00  0.00    +0.025 A 
ATOM     27  C   UNL     1       2.381  -6.167   2.641  0.00  0.00    +0.030 A 
ATOM     28  C   UNL     1       1.876  -6.879   1.568  0.00  0.00    +0.105 A 
ATOM     29  C   UNL     1       1.440  -6.214   0.436  0.00  0.00    +0.030 A 
ATOM     30  C   UNL     1       1.508  -4.836   0.374  0.00  0.00    +0.025 A 
BRANCH  28  31
ATOM     31  S   UNL     1       1.788  -8.637   1.643  0.00  0.00    +0.056 S 
ATOM     32  O   UNL     1       1.751  -8.983   3.021  0.00  0.00    -0.153 OA
ATOM     33  O   UNL     1       0.773  -9.032   0.731  0.00  0.00    -0.153 OA
BRANCH  31  34
ATOM     34  N   UNL     1       3.216  -9.225   1.046  0.00  0.00    -0.204 NA
ATOM     35  H   UNL     1       3.903  -8.612   0.740  0.00  0.00    +0.144 HD
ATOM     36  H   UNL     1       3.366 -10.182   1.003  0.00  0.00    +0.144 HD
ENDBRANCH  31  34
ENDBRANCH  28  31
ENDBRANCH  23  25
ENDBRANCH  20  21
ENDBRANCH   1  20
TORSDOF 9
