REMARK  Name = ZINC37624901
REMARK  21 active torsions:
REMARK  status: ('A' for Active; 'I' for Inactive)
REMARK    1  A    between atoms: C_1  and  C_2
REMARK    2  A    between atoms: C_2  and  O_3
REMARK    3  A    between atoms: O_3  and  C_4
REMARK    4  A    between atoms: C_4  and  C_6
REMARK    5  A    between atoms: C_7  and  C_40
REMARK    6  A    between atoms: C_8  and  C_13
REMARK    7  A    between atoms: C_11  and  C_12
REMARK    8  A    between atoms: C_13  and  C_14
REMARK    9  A    between atoms: C_13  and  C_27
REMARK   10  A    between atoms: C_15  and  C_26
REMARK   11  A    between atoms: C_18  and  C_25
REMARK   12  A    between atoms: C_19  and  C_20
REMARK   13  A    between atoms: C_20  and  O_22
REMARK   14  A    between atoms: O_22  and  C_23
REMARK   15  A    between atoms: C_23  and  C_24
REMARK   16  A    between atoms: C_28  and  C_39
REMARK   17  A    between atoms: C_29  and  C_34
REMARK   18  A    between atoms: C_30  and  C_33
REMARK   19  A    between atoms: C_34  and  O_36
REMARK   20  A    between atoms: O_36  and  C_37
REMARK   21  A    between atoms: C_37  and  C_38
REMARK                            x       y       z     vdW  Elec       q    Type
REMARK                         _______ _______ _______ _____ _____    ______ ____
ROOT
ATOM      1  C   UNL     1      -6.124  -4.077  -1.567  0.00  0.00    +0.115 C 
ENDROOT
BRANCH   1   4
ATOM      2  C   UNL     1      -2.965  -2.454  -0.445  0.00  0.00    +0.082 A 
ATOM      3  C   UNL     1      -3.817  -3.028  -1.493  0.00  0.00    -0.015 A 
ATOM      4  C   UNL     1      -4.949  -3.424  -0.886  0.00  0.00    +0.033 A 
ATOM      5  N   UNL     1      -4.864  -3.141   0.446  0.00  0.00    -0.360 N 
ATOM      6  H   UNL     1      -5.556  -3.333   1.098  0.00  0.00    +0.165 HD
ATOM      7  C   UNL     1      -3.680  -2.565   0.728  0.00  0.00    +0.027 A 
ATOM      8  C   UNL     1      -3.219  -2.115   2.090  0.00  0.00    +0.064 C 
ATOM      9  C   UNL     1      -3.488  -3.149  -2.959  0.00  0.00    +0.046 C 
BRANCH   2  10
ATOM     10  C   UNL     1      -1.620  -1.882  -0.612  0.00  0.00    +0.341 C 
ATOM     11  O   UNL     1      -0.640  -2.594  -0.511  0.00  0.00    -0.245 OA
BRANCH  10  12
ATOM     12  O   UNL     1      -1.474  -0.568  -0.876  0.00  0.00    -0.461 OA
BRANCH  12  14
ATOM     13  C   UNL     1      -0.174   1.421  -1.319  0.00  0.00    +0.048 C 
ATOM     14  C   UNL     1      -0.139  -0.081  -1.025  0.00  0.00    +0.229 C 
ENDBRANCH  12  14
ENDBRANCH  10  12
ENDBRANCH   2  10
ENDBRANCH   1   4
BRANCH   1  15
ATOM     15  C   UNL     1      -6.320  -5.464  -1.012  0.00  0.00    +0.002 A 
ATOM     16  C   UNL     1      -7.459  -6.178  -1.013  0.00  0.00    +0.018 A 
ATOM     17  N   UNL     1      -7.229  -7.385  -0.419  0.00  0.00    -0.361 N 
ATOM     18  H   UNL     1      -7.896  -8.079  -0.299  0.00  0.00    +0.165 HD
ATOM     19  C   UNL     1      -5.945  -7.476  -0.025  0.00  0.00    +0.027 A 
ATOM     20  C   UNL     1      -5.305  -6.306  -0.369  0.00  0.00    +0.084 A 
ATOM     21  C   UNL     1      -5.316  -8.657   0.668  0.00  0.00    +0.064 C 
ATOM     22  C   UNL     1      -8.779  -5.720  -1.579  0.00  0.00    +0.063 C 
BRANCH  20  23
ATOM     23  C   UNL     1      -3.892  -5.968  -0.137  0.00  0.00    +0.341 C 
ATOM     24  O   UNL     1      -3.560  -5.417   0.895  0.00  0.00    -0.245 OA
BRANCH  23  25
ATOM     25  O   UNL     1      -2.965  -6.268  -1.069  0.00  0.00    -0.461 OA
BRANCH  25  26
ATOM     26  C   UNL     1      -1.613  -5.911  -0.777  0.00  0.00    +0.229 C 
ATOM     27  C   UNL     1      -0.712  -6.329  -1.941  0.00  0.00    +0.048 C 
ENDBRANCH  25  26
ENDBRANCH  23  25
ENDBRANCH  20  23
ENDBRANCH   1  15
BRANCH   1  28
ATOM     28  C   UNL     1      -7.365  -3.258  -1.323  0.00  0.00    +0.033 A 
ATOM     29  C   UNL     1      -8.074  -2.615  -2.267  0.00  0.00    -0.015 A 
ATOM     30  C   UNL     1      -9.187  -1.957  -1.573  0.00  0.00    +0.082 A 
ATOM     31  C   UNL     1      -9.041  -2.273  -0.239  0.00  0.00    +0.027 A 
ATOM     32  N   UNL     1      -7.953  -3.055  -0.108  0.00  0.00    -0.360 N 
ATOM     33  H   UNL     1      -7.630  -3.420   0.731  0.00  0.00    +0.165 HD
ATOM     34  C   UNL     1      -9.947  -1.826   0.879  0.00  0.00    +0.064 C 
ATOM     35  C   UNL     1      -7.783  -2.576  -3.745  0.00  0.00    +0.046 C 
BRANCH  30  36
ATOM     36  C   UNL     1     -10.242  -1.128  -2.176  0.00  0.00    +0.341 C 
ATOM     37  O   UNL     1     -11.272  -1.644  -2.565  0.00  0.00    -0.245 OA
BRANCH  36  38
ATOM     38  O   UNL     1     -10.066   0.203  -2.298  0.00  0.00    -0.461 OA
BRANCH  38  39
ATOM     39  C   UNL     1     -11.132   0.946  -2.894  0.00  0.00    +0.229 C 
ATOM     40  C   UNL     1     -10.754   2.427  -2.947  0.00  0.00    +0.048 C 
ENDBRANCH  38  39
ENDBRANCH  36  38
ENDBRANCH  30  36
ENDBRANCH   1  28
TORSDOF 12
