REMARK  Name = ZINC59309546
REMARK  9 active torsions:
REMARK  status: ('A' for Active; 'I' for Inactive)
REMARK    1  A    between atoms: C_1  and  C_2
REMARK    2  A    between atoms: C_2  and  C_3
REMARK    3  A    between atoms: C_9  and  C_11
REMARK    4  A    between atoms: C_11  and  S_12
REMARK    5  A    between atoms: S_12  and  C_13
REMARK    6  A    between atoms: N_18  and  N_19
REMARK    7  A    between atoms: C_20  and  C_21
REMARK    8  A    between atoms: C_20  and  C_22
REMARK    9  A    between atoms: C_25  and  N_28
REMARK                            x       y       z     vdW  Elec       q    Type
REMARK                         _______ _______ _______ _____ _____    ______ ____
ROOT
ATOM      1  C   UNL     1      -9.892  -3.659  -0.214  0.00  0.00    +0.211 A 
ATOM      2  N   UNL     1     -10.970  -4.062  -0.896  0.00  0.00    -0.186 NA
ATOM      3  C   UNL     1     -11.920  -4.413  -0.054  0.00  0.00    +0.232 A 
ATOM      4  N   UNL     1     -11.452  -4.236   1.200  0.00  0.00    -0.245 N 
ATOM      5  N   UNL     1     -10.139  -3.755   1.070  0.00  0.00    -0.144 NA
ATOM      6  N   UNL     1     -13.175  -4.881  -0.395  0.00  0.00    -0.205 N 
ATOM      7  H   UNL     1     -13.811  -5.115   0.300  0.00  0.00    +0.177 HD
ATOM      8  H   UNL     1     -11.927  -4.412   2.027  0.00  0.00    +0.192 HD
ENDROOT
BRANCH   6   9
ATOM      9  N   UNL     1     -13.530  -5.016  -1.743  0.00  0.00    -0.184 NA
ATOM     10  C   UNL     1     -14.710  -5.455  -2.063  0.00  0.00    +0.063 C 
ATOM     11  C   UNL     1     -15.696  -5.819  -0.984  0.00  0.00    +0.068 C 
BRANCH  10  12
ATOM     12  C   UNL     1     -15.083  -5.598  -3.482  0.00  0.00    -0.002 A 
ATOM     13  C   UNL     1     -16.354  -6.065  -3.829  0.00  0.00    +0.011 A 
ATOM     14  C   UNL     1     -16.699  -6.197  -5.155  0.00  0.00    +0.023 A 
ATOM     15  C   UNL     1     -15.785  -5.866  -6.150  0.00  0.00    +0.025 A 
ATOM     16  C   UNL     1     -14.520  -5.401  -5.809  0.00  0.00    +0.023 A 
ATOM     17  C   UNL     1     -14.169  -5.261  -4.484  0.00  0.00    +0.011 A 
BRANCH  15  18
ATOM     18  N   UNL     1     -16.139  -6.001  -7.493  0.00  0.00    -0.358 N 
ATOM     19  H   UNL     1     -17.021  -6.326  -7.732  0.00  0.00    +0.142 HD
ATOM     20  H   UNL     1     -15.502  -5.771  -8.188  0.00  0.00    +0.142 HD
ENDBRANCH  15  18
ENDBRANCH  10  12
ENDBRANCH   6   9
BRANCH   1  21
ATOM     21  S   UNL     1      -8.381  -3.099  -0.927  0.00  0.00    -0.075 S 
BRANCH  21  22
ATOM     22  C   UNL     1      -7.335  -2.716   0.505  0.00  0.00    +0.173 C 
BRANCH  22  29
ATOM     23  C   UNL     1      -1.412  -0.526   0.013  0.00  0.00    +0.103 A 
ATOM     24  N   UNL     1      -2.212  -0.818  -0.993  0.00  0.00    -0.145 NA
ATOM     25  N   UNL     1      -3.375  -1.249  -0.747  0.00  0.00    -0.126 NA
ATOM     26  C   UNL     1      -3.811  -1.414   0.486  0.00  0.00    +0.188 A 
ATOM     27  S   UNL     1      -2.474  -0.930   1.392  0.00  0.00    -0.035 S 
ATOM     28  N   UNL     1      -5.048  -1.872   0.925  0.00  0.00    -0.263 N 
ATOM     29  C   UNL     1      -5.994  -2.219   0.030  0.00  0.00    +0.229 C 
ATOM     30  O   UNL     1      -5.766  -2.132  -1.158  0.00  0.00    -0.275 OA
ATOM     31  H   UNL     1      -5.231  -1.942   1.875  0.00  0.00    +0.157 HD
BRANCH  23  33
ATOM     32  C   UNL     1      -0.019   1.526   0.010  0.00  0.00    +0.011 C 
ATOM     33  C   UNL     1       0.002  -0.004   0.002  0.00  0.00    +0.061 C 
ENDBRANCH  23  33
ENDBRANCH  22  29
ENDBRANCH  21  22
ENDBRANCH   1  21
TORSDOF 7
