REMARK  Name = ZINC01434371
REMARK  7 active torsions:
REMARK  status: ('A' for Active; 'I' for Inactive)
REMARK    1  A    between atoms: C_3  and  C_9
REMARK    2  A    between atoms: C_4  and  O_8
REMARK    3  A    between atoms: C_6  and  O_7
REMARK    4  A    between atoms: N_10  and  N_11
REMARK    5  A    between atoms: C_12  and  C_14
REMARK    6  A    between atoms: C_14  and  N_15
REMARK    7  A    between atoms: N_15  and  C_16
REMARK                            x       y       z     vdW  Elec       q    Type
REMARK                         _______ _______ _______ _____ _____    ______ ____
ROOT
ATOM      1  N   UNL     1       6.288   1.044  -1.694  0.00  0.00    -0.206 N 
ATOM      2  C   UNL     1       7.300   1.052  -0.803  0.00  0.00    +0.249 C 
ATOM      3  O   UNL     1       7.108   0.681   0.336  0.00  0.00    -0.272 OA
ATOM      4  H   UNL     1       6.441   1.340  -2.605  0.00  0.00    +0.177 HD
ENDROOT
BRANCH   1   6
ATOM      5  C   UNL     1       4.041   0.599  -2.162  0.00  0.00    +0.142 C 
ATOM      6  N   UNL     1       5.015   0.607  -1.304  0.00  0.00    -0.188 NA
BRANCH   5   9
ATOM      7  C   UNL     1       0.402  -0.301  -2.286  0.00  0.00    +0.046 A 
ATOM      8  C   UNL     1       1.652   0.130  -2.673  0.00  0.00    +0.016 A 
ATOM      9  C   UNL     1       2.702   0.139  -1.752  0.00  0.00    +0.036 A 
ATOM     10  C   UNL     1       2.478  -0.291  -0.436  0.00  0.00    +0.129 A 
ATOM     11  C   UNL     1       1.218  -0.721  -0.059  0.00  0.00    +0.091 A 
ATOM     12  C   UNL     1       0.181  -0.727  -0.982  0.00  0.00    +0.120 A 
BRANCH  12  13
ATOM     13  O   UNL     1      -1.054  -1.150  -0.608  0.00  0.00    -0.507 OA
ATOM     14  H   UNL     1      -1.200  -2.098  -0.733  0.00  0.00    +0.292 HD
ENDBRANCH  12  13
BRANCH  10  15
ATOM     15  O   UNL     1       3.494  -0.285   0.465  0.00  0.00    -0.506 OA
ATOM     16  H   UNL     1       3.576   0.542   0.959  0.00  0.00    +0.292 HD
ENDBRANCH  10  15
ENDBRANCH   5   9
ENDBRANCH   1   6
BRANCH   2  17
ATOM     17  C   UNL     1       8.669   1.522  -1.223  0.00  0.00    +0.199 C 
BRANCH  17  18
ATOM     18  N   UNL     1       9.585   1.435  -0.083  0.00  0.00    -0.334 N 
ATOM     19  H   UNL     1       9.284   1.044   0.752  0.00  0.00    +0.147 HD
BRANCH  18  20
ATOM     20  C   UNL     1      10.892   1.917  -0.199  0.00  0.00    +0.056 A 
ATOM     21  C   UNL     1      11.178   3.240   0.118  0.00  0.00    +0.041 A 
ATOM     22  C   UNL     1      12.471   3.713   0.004  0.00  0.00    +0.032 A 
ATOM     23  C   UNL     1      13.481   2.871  -0.428  0.00  0.00    +0.020 A 
ATOM     24  C   UNL     1      13.200   1.554  -0.745  0.00  0.00    +0.032 A 
ATOM     25  C   UNL     1      11.910   1.073  -0.626  0.00  0.00    +0.041 A 
ATOM     26 BR   UNL     1      11.529  -0.729  -1.052  0.00  0.00    -0.048 Br
ATOM     27 BR   UNL     1      15.249   3.523  -0.584  0.00  0.00    -0.050 Br
ATOM     28 BR   UNL     1       9.797   4.391   0.707  0.00  0.00    -0.048 Br
ENDBRANCH  18  20
ENDBRANCH  17  18
ENDBRANCH   2  17
TORSDOF 7
