REMARK  Name = ZINC04482454
REMARK  12 active torsions:
REMARK  status: ('A' for Active; 'I' for Inactive)
REMARK    1  A    between atoms: C_1  and  C_2
REMARK    2  A    between atoms: C_2  and  O_3
REMARK    3  A    between atoms: O_3  and  C_4
REMARK    4  A    between atoms: C_7  and  C_13
REMARK    5  A    between atoms: C_9  and  O_10
REMARK    6  A    between atoms: O_10  and  C_11
REMARK    7  A    between atoms: C_11  and  C_12
REMARK    8  A    between atoms: C_13  and  C_14
REMARK    9  A    between atoms: C_14  and  N_15
REMARK   10  A    between atoms: C_24  and  C_28
REMARK   11  A    between atoms: C_24  and  C_32
REMARK   12  A    between atoms: C_25  and  C_27
REMARK                            x       y       z     vdW  Elec       q    Type
REMARK                         _______ _______ _______ _____ _____    ______ ____
ROOT
ATOM      1  N   UNL     1       1.057   3.224   0.382  0.00  0.00    -0.281 N 
ATOM      2  C   UNL     1       1.221   4.037   1.475  0.00  0.00    +0.119 A 
ATOM      3  C   UNL     1       1.210   5.391   1.317  0.00  0.00    +0.098 A 
ATOM      4  C   UNL     1       1.022   5.927   0.032  0.00  0.00    +0.262 A 
ATOM      5  O   UNL     1       1.004   7.134  -0.135  0.00  0.00    -0.267 OA
ATOM      6  N   UNL     1       0.862   5.093  -1.016  0.00  0.00    -0.275 N 
ATOM      7  H   UNL     1       0.724   5.470  -1.932  0.00  0.00    +0.173 HD
ATOM      8  C   UNL     1       0.886   3.759  -0.841  0.00  0.00    +0.331 A 
ATOM      9  O   UNL     1       0.747   3.027  -1.802  0.00  0.00    -0.246 OA
ATOM     10  C   UNL     1       1.402   6.299   2.499  0.00  0.00    +0.264 C 
ATOM     11  C   UNL     1       1.214   4.298   3.835  0.00  0.00    +0.071 C 
ATOM     12  N   UNL     1       1.392   3.502   2.731  0.00  0.00    -0.291 N 
ATOM     13  C   UNL     1       1.015   3.651   5.181  0.00  0.00    +0.081 C 
ATOM     14  H   UNL     1       1.636   2.569   2.835  0.00  0.00    +0.155 HD
ATOM     15  N   UNL     1       1.198   5.626   3.831  0.00  0.00    -0.352 N 
ATOM     16  H   UNL     1       1.054   6.166   4.692  0.00  0.00    +0.162 HD
ENDROOT
BRANCH  10  17
ATOM     17  C   UNL     1       2.818   6.876   2.463  0.00  0.00    +0.426 C 
ATOM     18  F   UNL     1       2.997   7.601   1.280  0.00  0.00    -0.167 F 
ATOM     19  F   UNL     1       3.005   7.723   3.561  0.00  0.00    -0.167 F 
ATOM     20  F   UNL     1       3.749   5.833   2.515  0.00  0.00    -0.167 F 
ENDBRANCH  10  17
BRANCH  10  21
ATOM     21  C   UNL     1       0.392   7.445   2.420  0.00  0.00    +0.426 C 
ATOM     22  F   UNL     1      -0.866   6.936   2.083  0.00  0.00    -0.167 F 
ATOM     23  F   UNL     1       0.318   8.088   3.661  0.00  0.00    -0.167 F 
ATOM     24  F   UNL     1       0.801   8.361   1.445  0.00  0.00    -0.167 F 
ENDBRANCH  10  21
BRANCH   1  25
ATOM     25  C   UNL     1       1.074   1.768   0.546  0.00  0.00    +0.133 C 
BRANCH  25  26
ATOM     26  C   UNL     1      -0.347   1.268   0.813  0.00  0.00    +0.057 C 
BRANCH  26  30
ATOM     27  C   UNL     1      -0.299  -2.982   1.285  0.00  0.00    +0.162 A 
ATOM     28  C   UNL     1      -0.480  -2.424   0.030  0.00  0.00    +0.050 A 
ATOM     29  C   UNL     1      -0.501  -1.049  -0.119  0.00  0.00    +0.007 A 
ATOM     30  C   UNL     1      -0.330  -0.229   0.981  0.00  0.00    -0.042 A 
ATOM     31  C   UNL     1      -0.149  -0.780   2.236  0.00  0.00    +0.053 A 
ATOM     32  C   UNL     1      -0.133  -2.157   2.393  0.00  0.00    +0.162 A 
BRANCH  27  33
ATOM     33  O   UNL     1      -0.284  -4.334   1.434  0.00  0.00    -0.489 OA
BRANCH  33  35
ATOM     34  C   UNL     1      -0.416  -6.604   0.616  0.00  0.00    +0.048 C 
ATOM     35  C   UNL     1      -0.461  -5.118   0.253  0.00  0.00    +0.226 C 
ENDBRANCH  33  35
ENDBRANCH  27  33
BRANCH  32  36
ATOM     36  O   UNL     1       0.046  -2.700   3.627  0.00  0.00    -0.489 OA
BRANCH  36  37
ATOM     37  C   UNL     1       0.211  -1.792   4.718  0.00  0.00    +0.226 C 
ATOM     38  C   UNL     1       0.397  -2.582   6.015  0.00  0.00    +0.048 C 
ENDBRANCH  36  37
ENDBRANCH  32  36
ENDBRANCH  26  30
ENDBRANCH  25  26
ENDBRANCH   1  25
TORSDOF 9
