REMARK  Name = ZINC19939557
REMARK  13 active torsions:
REMARK  status: ('A' for Active; 'I' for Inactive)
REMARK    1  A    between atoms: C_1  and  C_2
REMARK    2  A    between atoms: C_2  and  O_3
REMARK    3  A    between atoms: O_3  and  C_4
REMARK    4  A    between atoms: C_9  and  C_10
REMARK    5  A    between atoms: C_12  and  C_38
REMARK    6  A    between atoms: C_13  and  S_27
REMARK    7  A    between atoms: C_15  and  C_26
REMARK    8  A    between atoms: C_16  and  C_17
REMARK    9  A    between atoms: N_19  and  C_20
REMARK   10  A    between atoms: S_27  and  C_28
REMARK   11  A    between atoms: C_28  and  C_29
REMARK   12  A    between atoms: C_29  and  C_31
REMARK   13  A    between atoms: C_34  and  C_37
REMARK                            x       y       z     vdW  Elec       q    Type
REMARK                         _______ _______ _______ _____ _____    ______ ____
ROOT
ATOM      1  C   UNL     1       5.808  -2.317  -0.039  0.00  0.00    +0.102 C 
ATOM      2  C   UNL     1       7.127  -2.935  -0.407  0.00  0.00    +0.069 C 
ATOM      3  C   UNL     1       8.284  -2.224  -0.335  0.00  0.00    +0.080 C 
ATOM      4  N   UNL     1       8.272  -0.909   0.073  0.00  0.00    -0.312 N 
ATOM      5  C   UNL     1       7.103  -0.198   0.060  0.00  0.00    +0.014 C 
ATOM      6  C   UNL     1       5.915  -0.820   0.009  0.00  0.00    +0.044 C 
ATOM      7  C   UNL     1       7.151   1.308   0.110  0.00  0.00    +0.061 C 
ATOM      8  H   UNL     1       9.203  -0.429   0.410  0.00  0.00    +0.152 HD
ENDROOT
BRANCH   1  14
ATOM      9  C   UNL     1       4.200  -3.540   1.446  0.00  0.00    +0.125 A 
ATOM     10  C   UNL     1       3.813  -4.013   2.692  0.00  0.00    +0.046 A 
ATOM     11  C   UNL     1       4.600  -3.762   3.799  0.00  0.00    +0.004 A 
ATOM     12  C   UNL     1       5.776  -3.047   3.665  0.00  0.00    +0.001 A 
ATOM     13  C   UNL     1       6.167  -2.580   2.424  0.00  0.00    +0.008 A 
ATOM     14  C   UNL     1       5.383  -2.827   1.314  0.00  0.00    +0.007 A 
BRANCH   9  15
ATOM     15  O   UNL     1       3.425  -3.780   0.356  0.00  0.00    -0.492 OA
BRANCH  15  17
ATOM     16  C   UNL     1       1.486  -4.690  -0.765  0.00  0.00    +0.048 C 
ATOM     17  C   UNL     1       2.221  -4.521   0.567  0.00  0.00    +0.225 C 
ENDBRANCH  15  17
ENDBRANCH   9  15
ENDBRANCH   1  14
BRANCH   6  18
ATOM     18  C   UNL     1       4.731  -0.044  -0.007  0.00  0.00    +0.247 C 
ATOM     19  O   UNL     1       4.098   0.081  -1.040  0.00  0.00    -0.270 OA
ATOM     20  N   UNL     1       4.303   0.556   1.122  0.00  0.00    -0.282 N 
ATOM     21  H   UNL     1       4.918   0.515   2.033  0.00  0.00    +0.155 HD
BRANCH  20  22
ATOM     22  C   UNL     1       3.079   1.232   1.134  0.00  0.00    +0.034 A 
ATOM     23  C   UNL     1       2.023   0.773   0.356  0.00  0.00    +0.023 A 
ATOM     24  C   UNL     1       0.816   1.442   0.370  0.00  0.00    +0.002 A 
ATOM     25  C   UNL     1       0.657   2.569   1.157  0.00  0.00    +0.000 A 
ATOM     26  C   UNL     1       1.706   3.028   1.932  0.00  0.00    +0.002 A 
ATOM     27  C   UNL     1       2.916   2.363   1.923  0.00  0.00    +0.023 A 
ENDBRANCH  20  22
ENDBRANCH   6  18
BRANCH   2  28
ATOM     28  C   UNL     1       7.167  -4.299  -0.843  0.00  0.00    +0.098 C 
ATOM     29  N   UNL     1       7.198  -5.380  -1.188  0.00  0.00    -0.191 NA
ENDBRANCH   2  28
BRANCH   3  30
ATOM     30  S   UNL     1       9.811  -2.992  -0.766  0.00  0.00    -0.101 S 
BRANCH  30  31
ATOM     31  C   UNL     1      10.947  -1.611  -0.484  0.00  0.00    +0.155 C 
BRANCH  31  32
ATOM     32  C   UNL     1      12.355  -2.048  -0.797  0.00  0.00    +0.173 C 
ATOM     33  O   UNL     1      12.569  -3.180  -1.175  0.00  0.00    -0.291 OA
BRANCH  32  34
ATOM     34  C   UNL     1      13.470  -1.099  -0.646  0.00  0.00    +0.018 A 
ATOM     35  C   UNL     1      13.227   0.209  -0.217  0.00  0.00    +0.011 A 
ATOM     36  C   UNL     1      14.278   1.090  -0.071  0.00  0.00    +0.004 A 
ATOM     37  C   UNL     1      15.570   0.685  -0.360  0.00  0.00    -0.050 A 
ATOM     38  C   UNL     1      15.818  -0.606  -0.792  0.00  0.00    +0.004 A 
ATOM     39  C   UNL     1      14.778  -1.501  -0.936  0.00  0.00    +0.011 A 
ATOM     40  C   UNL     1      16.712   1.656  -0.204  0.00  0.00    +0.044 C 
ENDBRANCH  32  34
ENDBRANCH  31  32
ENDBRANCH  30  31
ENDBRANCH   3  30
TORSDOF 10
