REMARK  Name = ZINC39671477
REMARK  4 active torsions:
REMARK  status: ('A' for Active; 'I' for Inactive)
REMARK    1  A    between atoms: C_6  and  C_11
REMARK    2  A    between atoms: C_11  and  N_12
REMARK    3  A    between atoms: C_13  and  C_15
REMARK    4  A    between atoms: C_26  and  C_28
REMARK                            x       y       z     vdW  Elec       q    Type
REMARK                         _______ _______ _______ _____ _____    ______ ____
ROOT
ATOM      1  C   UNL     1      -8.483   0.325   2.525  0.00  0.00    +0.100 C 
ATOM      2  C   UNL     1      -7.884   1.333   3.530  0.00  0.00    +0.121 C 
ATOM      3  N   UNL     1      -8.967   2.317   3.764  0.00  0.00    -0.296 N 
ATOM      4  C   UNL     1     -10.204   1.500   3.811  0.00  0.00    +0.115 C 
ATOM      5  C   UNL     1     -10.006   0.435   2.714  0.00  0.00    -0.004 C 
ATOM      6  C   UNL     1     -10.579  -0.904   3.169  0.00  0.00    -0.010 C 
ATOM      7  C   UNL     1     -12.101  -0.786   3.294  0.00  0.00    -0.082 C 
ATOM      8  N   UNL     1     -12.672  -0.400   1.998  0.00  0.00    +0.379 N 
ATOM      9  C   UNL     1     -12.187   0.930   1.613  0.00  0.00    -0.082 C 
ATOM     10  C   UNL     1     -10.669   0.884   1.416  0.00  0.00    -0.010 C 
ATOM     11  C   UNL     1      -8.854   3.653   3.903  0.00  0.00    +0.248 C 
ATOM     12  O   UNL     1      -9.830   4.319   4.187  0.00  0.00    -0.270 OA
ATOM     13  H   UNL     1     -12.398  -1.073   1.298  0.00  0.00    -0.086 HD
ATOM     14  H   UNL     1     -13.679  -0.382   2.067  0.00  0.00    -0.086 HD
ENDROOT
BRANCH  11  15
ATOM     15  C   UNL     1      -7.543   4.307   3.711  0.00  0.00    +0.057 A 
ATOM     16  C   UNL     1      -6.372   3.662   4.111  0.00  0.00    +0.014 A 
ATOM     17  C   UNL     1      -5.151   4.277   3.929  0.00  0.00    +0.002 A 
ATOM     18  C   UNL     1      -5.084   5.533   3.351  0.00  0.00    +0.021 A 
ATOM     19  C   UNL     1      -6.240   6.181   2.952  0.00  0.00    +0.060 A 
ATOM     20  C   UNL     1      -7.470   5.572   3.123  0.00  0.00    +0.071 A 
ATOM     21 CL   UNL     1      -8.920   6.381   2.615  0.00  0.00    -0.081 Cl
ATOM     22 CL   UNL     1      -6.146   7.756   2.230  0.00  0.00    -0.082 Cl
ENDBRANCH  11  15
BRANCH   1  24
ATOM     23  N   UNL     1      -8.017  -0.252   0.165  0.00  0.00    -0.309 N 
ATOM     24  C   UNL     1      -8.102   0.699   1.115  0.00  0.00    +0.219 C 
ATOM     25  O   UNL     1      -7.871   1.857   0.837  0.00  0.00    -0.275 OA
ATOM     26  H   UNL     1      -8.202  -1.178   0.388  0.00  0.00    +0.149 HD
BRANCH  23  27
ATOM     27  C   UNL     1      -7.646   0.112  -1.205  0.00  0.00    +0.157 C 
BRANCH  27  33
ATOM     28  C   UNL     1      -6.997  -4.913  -4.576  0.00  0.00    +0.001 A 
ATOM     29  C   UNL     1      -8.362  -4.754  -4.765  0.00  0.00    +0.002 A 
ATOM     30  C   UNL     1      -9.035  -3.704  -4.179  0.00  0.00    +0.026 A 
ATOM     31  C   UNL     1      -8.341  -2.793  -3.389  0.00  0.00    +0.047 A 
ATOM     32  N   UNL     1      -8.715  -1.670  -2.687  0.00  0.00    -0.357 N 
ATOM     33  C   UNL     1      -7.624  -1.126  -2.065  0.00  0.00    +0.034 A 
ATOM     34  H   UNL     1      -9.617  -1.317  -2.639  0.00  0.00    +0.166 HD
ATOM     35  C   UNL     1      -6.531  -1.857  -2.335  0.00  0.00    +0.032 A 
ATOM     36  C   UNL     1      -6.957  -2.960  -3.200  0.00  0.00    -0.000 A 
ATOM     37  C   UNL     1      -6.296  -4.034  -3.799  0.00  0.00    +0.010 A 
ENDBRANCH  27  33
ENDBRANCH  23  27
ENDBRANCH   1  24
TORSDOF 4
