REMARK  Name = ZINC24747351
REMARK  10 active torsions:
REMARK  status: ('A' for Active; 'I' for Inactive)
REMARK    1  A    between atoms: C_1  and  C_2
REMARK    2  A    between atoms: C_2  and  O_3
REMARK    3  A    between atoms: O_3  and  C_4
REMARK    4  A    between atoms: C_7  and  S_10
REMARK    5  A    between atoms: S_10  and  N_13
REMARK    6  A    between atoms: N_24  and  C_25
REMARK    7  A    between atoms: C_27  and  C_33
REMARK    8  A    between atoms: C_27  and  C_34
REMARK    9  A    between atoms: C_29  and  C_31
REMARK   10  A    between atoms: C_29  and  C_32
REMARK                            x       y       z     vdW  Elec       q    Type
REMARK                         _______ _______ _______ _____ _____    ______ ____
ROOT
ATOM      1  N   UNL     1       3.542   2.038  -0.021  0.00  0.00    -0.197 N 
ATOM      2  C   UNL     1       2.356   1.320  -0.013  0.00  0.00    +0.179 A 
ATOM      3  C   UNL     1       1.117   2.007   0.002  0.00  0.00    +0.161 A 
ATOM      4  N   UNL     1      -0.016   1.337   0.009  0.00  0.00    -0.227 NA
ATOM      5  C   UNL     1       0.002  -0.004   0.002  0.00  0.00    +0.091 A 
ATOM      6  C   UNL     1      -1.193  -0.741   0.009  0.00  0.00    +0.030 A 
ATOM      7  C   UNL     1      -1.149  -2.102   0.001  0.00  0.00    +0.002 A 
ATOM      8  C   UNL     1       0.069  -2.777  -0.014  0.00  0.00    +0.002 A 
ATOM      9  C   UNL     1       1.247  -2.095  -0.021  0.00  0.00    +0.030 A 
ATOM     10  C   UNL     1       1.239  -0.691  -0.013  0.00  0.00    +0.091 A 
ATOM     11  N   UNL     1       2.387   0.004  -0.021  0.00  0.00    -0.226 NA
ATOM     12  N   UNL     1       1.099   3.394   0.010  0.00  0.00    -0.324 N 
ATOM     13  H   UNL     1       3.519   3.138  -0.015  0.00  0.00    +0.175 HD
ATOM     14  H   UNL     1       2.044   3.956   0.004  0.00  0.00    +0.148 HD
ENDROOT
BRANCH  12  15
ATOM     15  C   UNL     1      -0.183   4.111   0.026  0.00  0.00    +0.069 C 
ATOM     16  C   UNL     1      -0.688   4.270  -1.408  0.00  0.00    +0.009 C 
ATOM     17  C   UNL     1      -2.011   5.032  -1.423  0.00  0.00    -0.072 C 
ATOM     18  N   UNL     1      -1.969   6.252  -0.644  0.00  0.00    +0.386 N 
ATOM     19  C   UNL     1      -1.287   6.279   0.633  0.00  0.00    -0.072 C 
ATOM     20  C   UNL     1       0.026   5.501   0.625  0.00  0.00    +0.009 C 
ATOM     21  C   UNL     1      -2.189   5.750   1.754  0.00  0.00    -0.010 C 
ATOM     22  C   UNL     1      -0.954   7.750   0.970  0.00  0.00    -0.010 C 
ATOM     23  C   UNL     1      -3.139   4.109  -0.947  0.00  0.00    -0.010 C 
ATOM     24  C   UNL     1      -2.316   5.406  -2.890  0.00  0.00    -0.010 C 
ATOM     25  H   UNL     1      -1.471   7.041  -1.226  0.00  0.00    -0.084 HD
ATOM     26  H   UNL     1      -2.995   6.567  -0.401  0.00  0.00    -0.084 HD
ENDBRANCH  12  15
BRANCH   1  27
ATOM     27  S   UNL     1       4.993   1.240  -0.040  0.00  0.00    +0.074 S 
ATOM     28  O   UNL     1       6.005   2.237  -0.072  0.00  0.00    -0.150 OA
ATOM     29  O   UNL     1       4.927   0.254   0.981  0.00  0.00    -0.150 OA
BRANCH  27  33
ATOM     30  C   UNL     1       5.245  -0.987  -3.975  0.00  0.00    +0.121 A 
ATOM     31  C   UNL     1       5.726   0.311  -3.879  0.00  0.00    +0.047 A 
ATOM     32  C   UNL     1       5.648   0.988  -2.677  0.00  0.00    +0.032 A 
ATOM     33  C   UNL     1       5.091   0.373  -1.571  0.00  0.00    +0.109 A 
ATOM     34  C   UNL     1       4.616  -0.922  -1.663  0.00  0.00    +0.032 A 
ATOM     35  C   UNL     1       4.687  -1.601  -2.864  0.00  0.00    +0.047 A 
BRANCH  30  36
ATOM     36  O   UNL     1       5.321  -1.655  -5.156  0.00  0.00    -0.492 OA
BRANCH  36  38
ATOM     37  C   UNL     1       4.977  -3.573  -6.585  0.00  0.00    +0.048 C 
ATOM     38  C   UNL     1       4.806  -2.987  -5.182  0.00  0.00    +0.225 C 
ENDBRANCH  36  38
ENDBRANCH  30  36
ENDBRANCH  27  33
ENDBRANCH   1  27
TORSDOF 5
