REMARK  Name = ZINC13146527
REMARK  14 active torsions:
REMARK  status: ('A' for Active; 'I' for Inactive)
REMARK    1  A    between atoms: C_1  and  C_2
REMARK    2  A    between atoms: C_2  and  N_3
REMARK    3  A    between atoms: C_7  and  S_29
REMARK    4  A    between atoms: C_11  and  C_12
REMARK    5  A    between atoms: C_12  and  C_13
REMARK    6  A    between atoms: C_13  and  C_14
REMARK    7  A    between atoms: N_16  and  C_17
REMARK    8  A    between atoms: C_17  and  C_18
REMARK    9  A    between atoms: C_18  and  N_82
REMARK   10  A    between atoms: S_29  and  N_32
REMARK   11  A    between atoms: N_32  and  C_33
REMARK   12  A    between atoms: N_32  and  C_35
REMARK   13  A    between atoms: C_33  and  C_34
REMARK   14  A    between atoms: C_35  and  C_36
REMARK                            x       y       z     vdW  Elec       q    Type
REMARK                         _______ _______ _______ _____ _____    ______ ____
ROOT
ATOM      1  C   UNL     1       0.627   0.745  -4.730  0.00  0.00    +0.083 C 
ENDROOT
BRANCH   1  10
ATOM      2  N   UNL     1      -0.789   0.393  -6.813  0.00  0.00    -0.328 N 
ATOM      3  C   UNL     1      -1.041   1.088  -7.979  0.00  0.00    +0.069 A 
ATOM      4  C   UNL     1      -1.834   0.850  -9.094  0.00  0.00    +0.030 A 
ATOM      5  C   UNL     1      -1.859   1.769 -10.121  0.00  0.00    +0.030 A 
ATOM      6  C   UNL     1      -1.099   2.927 -10.048  0.00  0.00    +0.108 A 
ATOM      7  C   UNL     1      -0.314   3.178  -8.959  0.00  0.00    +0.058 A 
ATOM      8  C   UNL     1      -0.272   2.261  -7.905  0.00  0.00    +0.091 A 
ATOM      9  N   UNL     1       0.392   2.225  -6.721  0.00  0.00    -0.232 NA
ATOM     10  C   UNL     1       0.086   1.134  -6.081  0.00  0.00    +0.111 A 
BRANCH   6  11
ATOM     11  S   UNL     1      -1.147   4.087 -11.374  0.00  0.00    +0.061 S 
ATOM     12  O   UNL     1       0.067   4.824 -11.313  0.00  0.00    -0.153 OA
ATOM     13  O   UNL     1      -1.543   3.365 -12.532  0.00  0.00    -0.153 OA
BRANCH  11  14
ATOM     14  N   UNL     1      -2.367   5.157 -11.044  0.00  0.00    -0.177 NA
BRANCH  14  15
ATOM     15  C   UNL     1      -2.087   6.374 -10.277  0.00  0.00    +0.106 C 
ATOM     16  C   UNL     1      -1.824   7.534 -11.240  0.00  0.00    +0.022 C 
ENDBRANCH  14  15
BRANCH  14  17
ATOM     17  C   UNL     1      -3.726   4.888 -11.519  0.00  0.00    +0.106 C 
ATOM     18  C   UNL     1      -4.526   4.198 -10.411  0.00  0.00    +0.022 C 
ENDBRANCH  14  17
ENDBRANCH  11  14
ENDBRANCH   6  11
BRANCH   2  20
ATOM     19  C   UNL     1      -2.664  -0.677  -5.663  0.00  0.00    +0.027 C 
ATOM     20  C   UNL     1      -1.361  -0.901  -6.433  0.00  0.00    +0.120 C 
ENDBRANCH   2  20
ENDBRANCH   1  10
BRANCH   1  21
ATOM     21  C   UNL     1      -0.290   1.294  -3.635  0.00  0.00    +0.103 C 
BRANCH  21  22
ATOM     22  C   UNL     1       0.251   0.906  -2.284  0.00  0.00    +0.213 C 
ATOM     23  O   UNL     1       1.271   0.253  -2.204  0.00  0.00    -0.276 OA
ATOM     24  N   UNL     1      -0.397   1.283  -1.164  0.00  0.00    -0.317 N 
ATOM     25  H   UNL     1      -1.212   1.804  -1.228  0.00  0.00    +0.149 HD
BRANCH  24  26
ATOM     26  C   UNL     1       0.129   0.905   0.150  0.00  0.00    +0.092 C 
BRANCH  26  27
ATOM     27  C   UNL     1      -0.867   1.315   1.236  0.00  0.00    -0.050 C 
ATOM     28  C   UNL     1      -1.215   2.796   1.076  0.00  0.00    -0.010 C 
ATOM     29  C   UNL     1       0.057   3.636   1.208  0.00  0.00    -0.001 C 
ATOM     30  C   UNL     1       0.680   3.404   2.586  0.00  0.00    -0.000 C 
ATOM     31  C   UNL     1       1.028   1.922   2.746  0.00  0.00    -0.001 C 
ATOM     32  C   UNL     1      -0.244   1.083   2.614  0.00  0.00    -0.010 C 
BRANCH  27  38
ATOM     33  C   UNL     1      -1.788  -0.924   1.222  0.00  0.00    -0.078 C 
ATOM     34  C   UNL     1      -3.094  -1.722   1.232  0.00  0.00    -0.019 C 
ATOM     35  C   UNL     1      -3.865  -1.444  -0.061  0.00  0.00    -0.004 C 
ATOM     36  C   UNL     1      -4.124   0.061  -0.180  0.00  0.00    -0.019 C 
ATOM     37  C   UNL     1      -2.788   0.806  -0.148  0.00  0.00    -0.078 C 
ATOM     38  N   UNL     1      -2.107   0.517   1.132  0.00  0.00    +0.384 N 
ATOM     39  H   UNL     1      -2.732   0.769   1.906  0.00  0.00    -0.081 HD
ENDBRANCH  27  38
ENDBRANCH  26  27
ENDBRANCH  24  26
ENDBRANCH  21  22
ENDBRANCH   1  21
TORSDOF 11
