REMARK  Name = ZINC16091307
REMARK  6 active torsions:
REMARK  status: ('A' for Active; 'I' for Inactive)
REMARK    1  A    between atoms: C_1  and  C_2
REMARK    2  A    between atoms: C_5  and  C_8
REMARK    3  A    between atoms: C_9  and  C_28
REMARK    4  A    between atoms: C_14  and  C_16
REMARK    5  A    between atoms: C_16  and  N_17
REMARK    6  A    between atoms: C_31  and  C_34
REMARK                            x       y       z     vdW  Elec       q    Type
REMARK                         _______ _______ _______ _____ _____    ______ ____
ROOT
ATOM      1  C   UNL     1      -2.894  -3.243  -4.758  0.00  0.00    +0.088 A 
ATOM      2  C   UNL     1      -2.325  -2.059  -4.298  0.00  0.00    +0.048 A 
ATOM      3  S   UNL     1      -3.779  -1.205  -3.704  0.00  0.00    -0.051 S 
ATOM      4  C   UNL     1      -4.970  -2.473  -4.114  0.00  0.00    +0.166 A 
ATOM      5  N   UNL     1      -4.200  -3.406  -4.643  0.00  0.00    -0.224 NA
ATOM      6  N   UNL     1      -6.344  -2.477  -3.922  0.00  0.00    -0.263 N 
ATOM      7  C   UNL     1      -7.075  -3.543  -4.305  0.00  0.00    +0.237 C 
ATOM      8  O   UNL     1      -6.531  -4.498  -4.818  0.00  0.00    -0.274 OA
ATOM      9  H   UNL     1      -6.838  -1.611  -3.457  0.00  0.00    +0.157 HD
ENDROOT
BRANCH   1  14
ATOM     10  C   UNL     1       0.384  -7.359  -7.094  0.00  0.00    +0.044 C 
ATOM     11  C   UNL     1      -0.474  -6.282  -6.482  0.00  0.00    -0.050 A 
ATOM     12  C   UNL     1      -0.055  -5.637  -5.332  0.00  0.00    +0.004 A 
ATOM     13  C   UNL     1      -0.836  -4.649  -4.768  0.00  0.00    +0.010 A 
ATOM     14  C   UNL     1      -2.051  -4.302  -5.358  0.00  0.00    +0.002 A 
ATOM     15  C   UNL     1      -2.471  -4.960  -6.514  0.00  0.00    +0.010 A 
ATOM     16  C   UNL     1      -1.679  -5.942  -7.072  0.00  0.00    +0.004 A 
ENDBRANCH   1  14
BRANCH   2  17
ATOM     17  C   UNL     1      -0.914  -1.628  -4.301  0.00  0.00    -0.009 A 
ATOM     18  C   UNL     1      -0.136  -1.779  -5.452  0.00  0.00    +0.009 A 
ATOM     19  C   UNL     1       1.181  -1.369  -5.449  0.00  0.00    +0.004 A 
ATOM     20  C   UNL     1       1.735  -0.820  -4.306  0.00  0.00    -0.050 A 
ATOM     21  C   UNL     1       0.973  -0.673  -3.161  0.00  0.00    +0.004 A 
ATOM     22  C   UNL     1      -0.347  -1.073  -3.151  0.00  0.00    +0.009 A 
ATOM     23  C   UNL     1       3.176  -0.380  -4.309  0.00  0.00    +0.044 C 
ENDBRANCH   2  17
BRANCH   7  24
ATOM     24  C   UNL     1      -8.567  -3.548  -4.097  0.00  0.00    +0.214 C 
BRANCH  24  25
ATOM     25  N   UNL     1      -9.126  -4.808  -4.593  0.00  0.00    -0.215 N 
ATOM     26  C   UNL     1      -9.273  -5.921  -3.842  0.00  0.00    +0.247 C 
ATOM     27  O   UNL     1      -8.976  -6.066  -2.676  0.00  0.00    -0.273 OA
ATOM     28  C   UNL     1      -9.878  -6.947  -4.766  0.00  0.00    +0.113 C 
ATOM     29  C   UNL     1     -11.238  -7.427  -4.242  0.00  0.00    +0.035 C 
ATOM     30  C   UNL     1     -11.288  -8.924  -4.645  0.00  0.00    +0.003 C 
ATOM     31  C   UNL     1      -9.823  -9.385  -4.440  0.00  0.00    +0.003 C 
ATOM     32  C   UNL     1      -8.977  -8.177  -4.899  0.00  0.00    +0.035 C 
ATOM     33  N   UNL     1     -10.021  -6.249  -6.045  0.00  0.00    -0.285 N 
ATOM     34  C   UNL     1      -9.554  -5.000  -5.848  0.00  0.00    +0.310 C 
ATOM     35  O   UNL     1      -9.524  -4.145  -6.710  0.00  0.00    -0.252 OA
ATOM     36  H   UNL     1     -10.447  -6.774  -6.914  0.00  0.00    +0.151 HD
ENDBRANCH  24  25
ENDBRANCH   7  24
TORSDOF 4
