REMARK  Name = ZINC23448307
REMARK  19 active torsions:
REMARK  status: ('A' for Active; 'I' for Inactive)
REMARK    1  A    between atoms: C_1  and  C_2
REMARK    2  A    between atoms: C_2  and  N_3
REMARK    3  A    between atoms: N_3  and  C_4
REMARK    4  A    between atoms: N_3  and  C_6
REMARK    5  A    between atoms: C_4  and  C_5
REMARK    6  A    between atoms: C_6  and  C_7
REMARK    7  A    between atoms: C_7  and  C_8
REMARK    8  A    between atoms: C_8  and  C_9
REMARK    9  A    between atoms: C_9  and  C_11
REMARK   10  A    between atoms: C_9  and  N_12
REMARK   11  A    between atoms: C_13  and  C_15
REMARK   12  A    between atoms: C_18  and  N_21
REMARK   13  A    between atoms: C_22  and  C_31
REMARK   14  A    between atoms: C_24  and  C_26
REMARK   15  A    between atoms: C_26  and  O_28
REMARK   16  A    between atoms: O_28  and  C_29
REMARK   17  A    between atoms: C_29  and  C_30
REMARK   18  A    between atoms: C_34  and  O_37
REMARK   19  A    between atoms: O_37  and  C_38
REMARK                            x       y       z     vdW  Elec       q    Type
REMARK                         _______ _______ _______ _____ _____    ______ ____
ROOT
ATOM      1  C   UNL     1       2.065  -0.786   3.527  0.00  0.00    +0.037 A 
ATOM      2  C   UNL     1       0.970  -1.553   3.121  0.00  0.00    +0.015 A 
ATOM      3  C   UNL     1       0.776  -2.808   3.652  0.00  0.00    +0.028 A 
ATOM      4  C   UNL     1       1.662  -3.309   4.600  0.00  0.00    +0.066 A 
ATOM      5  C   UNL     1       2.750  -2.546   5.011  0.00  0.00    +0.028 A 
ATOM      6  C   UNL     1       2.953  -1.291   4.480  0.00  0.00    +0.015 A 
ENDROOT
BRANCH   4   7
ATOM      7  N   UNL     1       1.458  -4.581   5.141  0.00  0.00    -0.231 N 
ATOM      8  C   UNL     1       0.260  -5.059   5.593  0.00  0.00    +0.075 A 
ATOM      9  C   UNL     1       0.485  -6.332   6.037  0.00  0.00    +0.065 A 
ATOM     10  C   UNL     1       1.863  -6.564   5.830  0.00  0.00    +0.170 A 
ATOM     11  N   UNL     1       2.371  -5.472   5.293  0.00  0.00    -0.159 NA
BRANCH   8  12
ATOM     12  C   UNL     1      -1.032  -4.338   5.598  0.00  0.00    +0.001 A 
ATOM     13  C   UNL     1      -1.056  -2.945   5.682  0.00  0.00    +0.013 A 
ATOM     14  C   UNL     1      -2.261  -2.277   5.681  0.00  0.00    +0.046 A 
ATOM     15  C   UNL     1      -3.452  -2.988   5.607  0.00  0.00    +0.120 A 
ATOM     16  C   UNL     1      -3.432  -4.374   5.529  0.00  0.00    +0.046 A 
ATOM     17  C   UNL     1      -2.230  -5.050   5.524  0.00  0.00    +0.013 A 
BRANCH  15  18
ATOM     18  O   UNL     1      -4.638  -2.326   5.612  0.00  0.00    -0.495 OA
ATOM     19  C   UNL     1      -4.585  -0.901   5.695  0.00  0.00    +0.277 C 
ENDBRANCH  15  18
ENDBRANCH   8  12
BRANCH  10  20
ATOM     20  C   UNL     1       2.599  -7.802   6.155  0.00  0.00    +0.360 C 
ATOM     21  O   UNL     1       2.013  -8.745   6.650  0.00  0.00    -0.243 OA
BRANCH  20  22
ATOM     22  O   UNL     1       3.919  -7.887   5.902  0.00  0.00    -0.460 OA
BRANCH  22  23
ATOM     23  C   UNL     1       4.578  -9.134   6.247  0.00  0.00    +0.229 C 
ATOM     24  C   UNL     1       6.063  -9.043   5.891  0.00  0.00    +0.048 C 
ENDBRANCH  22  23
ENDBRANCH  20  22
ENDBRANCH  10  20
ENDBRANCH   4   7
BRANCH   1  26
ATOM     25  N   UNL     1       1.422   1.046   2.037  0.00  0.00    -0.309 N 
ATOM     26  C   UNL     1       2.279   0.559   2.956  0.00  0.00    +0.244 C 
ATOM     27  O   UNL     1       3.229   1.227   3.314  0.00  0.00    -0.270 OA
ATOM     28  H   UNL     1       0.562   0.441   1.712  0.00  0.00    +0.149 HD
BRANCH  25  29
ATOM     29  C   UNL     1       1.634   2.380   1.470  0.00  0.00    +0.070 C 
ATOM     30  C   UNL     1       1.013   3.431   2.392  0.00  0.00    +0.028 C 
BRANCH  29  31
ATOM     31  C   UNL     1       0.977   2.458   0.091  0.00  0.00    +0.020 C 
BRANCH  31  32
ATOM     32  C   UNL     1       1.682   1.495  -0.866  0.00  0.00    -0.017 C 
BRANCH  32  33
ATOM     33  C   UNL     1       1.024   1.574  -2.245  0.00  0.00    -0.079 C 
BRANCH  33  34
ATOM     34  N   UNL     1       1.701   0.648  -3.164  0.00  0.00    +0.379 N 
ATOM     35  H   UNL     1       2.780   0.855  -3.118  0.00  0.00    -0.082 HD
BRANCH  34  37
ATOM     36  C   UNL     1      -0.005  -1.069  -2.794  0.00  0.00    -0.017 C 
ATOM     37  C   UNL     1       1.490  -0.747  -2.756  0.00  0.00    -0.082 C 
ENDBRANCH  34  37
BRANCH  34  38
ATOM     38  C   UNL     1       1.260   0.864  -4.549  0.00  0.00    -0.082 C 
ATOM     39  C   UNL     1       2.239   0.185  -5.508  0.00  0.00    -0.017 C 
ENDBRANCH  34  38
ENDBRANCH  33  34
ENDBRANCH  32  33
ENDBRANCH  31  32
ENDBRANCH  29  31
ENDBRANCH  25  29
ENDBRANCH   1  26
TORSDOF 14
