REMARK  Name = ZINC44792605
REMARK  6 active torsions:
REMARK  status: ('A' for Active; 'I' for Inactive)
REMARK    1  A    between atoms: C_1  and  C_2
REMARK    2  A    between atoms: C_8  and  C_10
REMARK    3  A    between atoms: C_10  and  N_11
REMARK    4  A    between atoms: C_12  and  C_14
REMARK    5  A    between atoms: C_14  and  C_20
REMARK    6  A    between atoms: N_21  and  O_22
REMARK                            x       y       z     vdW  Elec       q    Type
REMARK                         _______ _______ _______ _____ _____    ______ ____
ROOT
ATOM      1  C   UNL     1       1.092  -0.560   6.130  0.00  0.00    +0.109 C 
ATOM      2  C   UNL     1       0.324  -0.139   7.386  0.00  0.00    +0.052 C 
ATOM      3  C   UNL     1       0.283   1.390   7.461  0.00  0.00    +0.161 C 
ATOM      4  O   UNL     1       1.617   1.901   7.464  0.00  0.00    -0.380 OA
ATOM      5  C   UNL     1       2.368   1.578   6.292  0.00  0.00    +0.161 C 
ATOM      6  C   UNL     1       2.493   0.057   6.171  0.00  0.00    +0.052 C 
ENDROOT
BRANCH   1   7
ATOM      7  C   UNL     1       1.204  -2.063   6.086  0.00  0.00    +0.147 C 
ATOM      8  N   UNL     1       2.362  -2.627   6.181  0.00  0.00    -0.076 NA
ATOM      9  N   UNL     1       0.072  -2.834   5.946  0.00  0.00    -0.343 N 
ATOM     10  H   UNL     1      -0.803  -2.416   5.951  0.00  0.00    +0.144 HD
ATOM     11  H   UNL     1       0.150  -3.795   5.841  0.00  0.00    +0.144 HD
BRANCH   8  12
ATOM     12  O   UNL     1       2.468  -4.038   6.139  0.00  0.00    -0.408 OA
ATOM     13  H   UNL     1       3.374  -4.367   6.217  0.00  0.00    +0.328 HD
ENDBRANCH   8  12
ENDBRANCH   1   7
BRANCH   1  15
ATOM     14  N   UNL     1       0.926  -0.202   3.688  0.00  0.00    -0.314 N 
ATOM     15  C   UNL     1       0.361  -0.074   4.905  0.00  0.00    +0.227 C 
ATOM     16  O   UNL     1      -0.735   0.434   5.014  0.00  0.00    -0.275 OA
ATOM     17  H   UNL     1       1.832  -0.539   3.607  0.00  0.00    +0.149 HD
BRANCH  14  18
ATOM     18  C   UNL     1       0.172   0.168   2.488  0.00  0.00    +0.108 C 
BRANCH  18  25
ATOM     19  C   UNL     1       0.018   1.927   0.150  0.00  0.00    +0.008 C 
ATOM     20  C   UNL     1       0.298   0.430   0.006  0.00  0.00    -0.010 C 
ATOM     21  C   UNL     1       1.162   0.190  -1.233  0.00  0.00    +0.003 C 
ATOM     22  C   UNL     1       1.443  -1.307  -1.377  0.00  0.00    +0.000 C 
ATOM     23  C   UNL     1       2.182  -1.809  -0.135  0.00  0.00    +0.000 C 
ATOM     24  C   UNL     1       1.317  -1.569   1.105  0.00  0.00    +0.005 C 
ATOM     25  C   UNL     1       1.037  -0.072   1.249  0.00  0.00    +0.009 C 
ENDBRANCH  18  25
ENDBRANCH  14  18
ENDBRANCH   1  15
TORSDOF 5
