REMARK  Name = ZINC23188899
REMARK  13 active torsions:
REMARK  status: ('A' for Active; 'I' for Inactive)
REMARK    1  A    between atoms: C_1  and  C_2
REMARK    2  A    between atoms: C_2  and  C_3
REMARK    3  A    between atoms: C_2  and  C_4
REMARK    4  A    between atoms: C_4  and  C_6
REMARK    5  A    between atoms: C_4  and  N_28
REMARK    6  A    between atoms: C_6  and  N_7
REMARK    7  A    between atoms: C_8  and  C_10
REMARK    8  A    between atoms: N_13  and  S_16
REMARK    9  A    between atoms: S_16  and  C_19
REMARK   10  A    between atoms: C_21  and  C_25
REMARK   11  A    between atoms: N_22  and  C_24
REMARK   12  A    between atoms: N_28  and  C_29
REMARK   13  A    between atoms: N_28  and  C_30
REMARK                            x       y       z     vdW  Elec       q    Type
REMARK                         _______ _______ _______ _____ _____    ______ ____
ROOT
ATOM      1  C   UNL     1      -4.375   4.096   0.474  0.00  0.00    +0.077 C 
ATOM      2  C   UNL     1      -3.607   5.250   1.124  0.00  0.00    +0.030 C 
ATOM      3  C   UNL     1      -2.417   4.689   1.908  0.00  0.00    +0.110 C 
ATOM      4  N   UNL     1      -2.910   3.681   2.857  0.00  0.00    -0.176 NA
ATOM      5  C   UNL     1      -3.731   2.573   2.349  0.00  0.00    +0.110 C 
ATOM      6  C   UNL     1      -4.910   3.162   1.561  0.00  0.00    +0.030 C 
ENDROOT
BRANCH   1   8
ATOM      7  N   UNL     1      -6.347   3.810  -0.991  0.00  0.00    -0.317 N 
ATOM      8  C   UNL     1      -5.527   4.647  -0.327  0.00  0.00    +0.216 C 
ATOM      9  O   UNL     1      -5.715   5.845  -0.373  0.00  0.00    -0.276 OA
ATOM     10  H   UNL     1      -6.176   2.724  -0.949  0.00  0.00    +0.149 HD
BRANCH   7  11
ATOM     11  C   UNL     1      -7.467   4.345  -1.770  0.00  0.00    +0.089 C 
BRANCH  11  12
ATOM     12  C   UNL     1      -8.234   3.192  -2.419  0.00  0.00    -0.049 C 
BRANCH  12  13
ATOM     13  N   UNL     1      -7.308   2.373  -3.213  0.00  0.00    +0.379 N 
ATOM     14  C   UNL     1      -7.844   1.021  -3.417  0.00  0.00    -0.096 C 
ATOM     15  C   UNL     1      -7.003   3.018  -4.497  0.00  0.00    -0.096 C 
ATOM     16  H   UNL     1      -6.368   2.283  -2.648  0.00  0.00    -0.082 HD
ENDBRANCH  12  13
BRANCH  12  18
ATOM     17  C   UNL     1     -10.151   2.605  -3.910  0.00  0.00    +0.005 C 
ATOM     18  C   UNL     1      -9.326   3.756  -3.331  0.00  0.00    -0.029 C 
ATOM     19  C   UNL     1     -10.238   4.681  -2.523  0.00  0.00    +0.005 C 
ENDBRANCH  12  18
ENDBRANCH  11  12
ENDBRANCH   7  11
ENDBRANCH   1   8
BRANCH   4  20
ATOM     20  S   UNL     1      -2.541   3.788   4.468  0.00  0.00    +0.062 S 
ATOM     21  O   UNL     1      -2.646   2.473   4.997  0.00  0.00    -0.153 OA
ATOM     22  O   UNL     1      -1.347   4.553   4.561  0.00  0.00    -0.153 OA
BRANCH  20  23
ATOM     23  C   UNL     1      -3.811   4.741   5.231  0.00  0.00    +0.124 A 
ATOM     24  C   UNL     1      -4.994   4.242   5.786  0.00  0.00    +0.061 A 
ATOM     25  C   UNL     1      -5.700   5.322   6.273  0.00  0.00    +0.106 A 
ATOM     26  N   UNL     1      -4.958   6.452   6.016  0.00  0.00    -0.344 N 
ATOM     27  C   UNL     1      -3.813   6.086   5.390  0.00  0.00    +0.114 A 
ATOM     28  C   UNL     1      -5.339   7.822   6.367  0.00  0.00    +0.149 C 
BRANCH  25  29
ATOM     29  C   UNL     1      -7.005   5.274   6.941  0.00  0.00    +0.258 C 
ATOM     30  O   UNL     1      -7.570   6.308   7.247  0.00  0.00    -0.269 OA
ATOM     31  N   UNL     1      -7.579   4.086   7.215  0.00  0.00    -0.324 N 
ATOM     32  H   UNL     1      -8.557   4.050   7.716  0.00  0.00    +0.145 HD
ATOM     33  H   UNL     1      -7.068   3.152   6.939  0.00  0.00    +0.145 HD
ENDBRANCH  25  29
ENDBRANCH  20  23
ENDBRANCH   4  20
TORSDOF 8
