REMARK  Name = ZINC22019439
REMARK  5 active torsions:
REMARK  status: ('A' for Active; 'I' for Inactive)
REMARK    1  A    between atoms: C_1  and  N_2
REMARK    2  A    between atoms: C_15  and  S_16
REMARK    3  A    between atoms: S_16  and  C_17
REMARK    4  A    between atoms: C_17  and  C_18
REMARK    5  A    between atoms: N_24  and  C_25
REMARK                            x       y       z     vdW  Elec       q    Type
REMARK                         _______ _______ _______ _____ _____    ______ ____
ROOT
ATOM      1  C   UNL     1       3.458   6.190   0.306  0.00  0.00    +0.146 A 
ATOM      2  N   UNL     1       4.615   5.550   0.292  0.00  0.00    -0.199 NA
ATOM      3  C   UNL     1       4.643   4.224   0.185  0.00  0.00    +0.217 A 
ATOM      4  N   UNL     1       3.506   3.543   0.092  0.00  0.00    -0.181 NA
ATOM      5  C   UNL     1       2.346   4.189   0.106  0.00  0.00    +0.224 A 
ATOM      6  N   UNL     1       2.326   5.516   0.208  0.00  0.00    -0.198 NA
ATOM      7  N   UNL     1       1.161   3.485   0.009  0.00  0.00    -0.284 N 
ATOM      8  N   UNL     1       5.851   3.557   0.172  0.00  0.00    -0.327 N 
ATOM      9  H   UNL     1       0.206   4.025  -0.071  0.00  0.00    +0.155 HD
ATOM     10  H   UNL     1       5.874   2.461   0.084  0.00  0.00    +0.145 HD
ATOM     11  H   UNL     1       6.792   4.122   0.250  0.00  0.00    +0.145 HD
ENDROOT
BRANCH   7  12
ATOM     12  C   UNL     1       1.176   2.086   0.013  0.00  0.00    +0.034 A 
ATOM     13  C   UNL     1       2.132   1.403   0.754  0.00  0.00    +0.025 A 
ATOM     14  C   UNL     1       2.144   0.022   0.756  0.00  0.00    +0.022 A 
ATOM     15  C   UNL     1       1.206  -0.681   0.021  0.00  0.00    +0.041 A 
ATOM     16  C   UNL     1       0.253  -0.003  -0.719  0.00  0.00    +0.022 A 
ATOM     17  C   UNL     1       0.236   1.379  -0.725  0.00  0.00    +0.025 A 
ATOM     18 CL   UNL     1       1.224  -2.417   0.025  0.00  0.00    -0.084 Cl
ENDBRANCH   7  12
BRANCH   1  19
ATOM     19  C   UNL     1       3.431   7.692   0.428  0.00  0.00    +0.153 C 
BRANCH  19  20
ATOM     20  S   UNL     1       3.478   8.433  -1.227  0.00  0.00    -0.078 S 
BRANCH  20  35
ATOM     21  C   UNL     1       3.377  14.824  -1.193  0.00  0.00    +0.155 C 
ATOM     22  N   UNL     1       3.422  13.557  -1.926  0.00  0.00    -0.280 N 
ATOM     23  C   UNL     1       3.486  13.571  -3.273  0.00  0.00    +0.263 A 
ATOM     24  O   UNL     1       3.495  14.625  -3.881  0.00  0.00    -0.267 OA
ATOM     25  C   UNL     1       3.533  12.287  -3.996  0.00  0.00    +0.064 A 
ATOM     26  C   UNL     1       3.590  12.243  -5.388  0.00  0.00    +0.015 A 
ATOM     27  C   UNL     1       3.634  11.023  -6.030  0.00  0.00    +0.001 A 
ATOM     28  C   UNL     1       3.621   9.846  -5.298  0.00  0.00    +0.002 A 
ATOM     29  C   UNL     1       3.565   9.877  -3.918  0.00  0.00    +0.027 A 
ATOM     30  C   UNL     1       3.521  11.095  -3.257  0.00  0.00    +0.064 A 
ATOM     31  N   UNL     1       3.464  11.155  -1.866  0.00  0.00    -0.256 N 
ATOM     32  C   UNL     1       3.417  12.361  -1.223  0.00  0.00    +0.240 A 
ATOM     33  N   UNL     1       3.377  12.126   0.069  0.00  0.00    -0.109 NA
ATOM     34  N   UNL     1       3.391  10.739   0.260  0.00  0.00    -0.120 NA
ATOM     35  C   UNL     1       3.441  10.168  -0.918  0.00  0.00    +0.198 A 
ENDBRANCH  20  35
ENDBRANCH  19  20
ENDBRANCH   1  19
TORSDOF 4
