REMARK  Name = ZINC39406199
REMARK  9 active torsions:
REMARK  status: ('A' for Active; 'I' for Inactive)
REMARK    1  A    between atoms: C_1  and  C_2
REMARK    2  A    between atoms: C_2  and  C_3
REMARK    3  A    between atoms: C_3  and  C_4
REMARK    4  A    between atoms: C_4  and  C_6
REMARK    5  A    between atoms: C_4  and  N_7
REMARK    6  A    between atoms: C_12  and  C_15
REMARK    7  A    between atoms: C_18  and  C_20
REMARK    8  A    between atoms: C_24  and  S_26
REMARK    9  A    between atoms: S_26  and  N_29
REMARK                            x       y       z     vdW  Elec       q    Type
REMARK                         _______ _______ _______ _____ _____    ______ ____
ROOT
ATOM      1  C   UNL     1      -2.688  -2.357   2.738  0.00  0.00    +0.145 A 
ATOM      2  C   UNL     1      -3.867  -1.815   3.101  0.00  0.00    +0.049 A 
ATOM      3  C   UNL     1      -3.624  -1.030   4.246  0.00  0.00    +0.050 A 
ATOM      4  C   UNL     1      -2.297  -1.138   4.521  0.00  0.00    +0.135 A 
ATOM      5  O   UNL     1      -1.743  -1.951   3.602  0.00  0.00    -0.456 OA
ENDROOT
BRANCH   1  10
ATOM      6  N   UNL     1      -0.631  -2.534  -1.375  0.00  0.00    -0.230 N 
ATOM      7  C   UNL     1      -1.344  -3.389  -0.422  0.00  0.00    +0.212 C 
ATOM      8  C   UNL     1      -2.787  -2.947  -0.659  0.00  0.00    +0.094 C 
ATOM      9  N   UNL     1      -3.400  -2.939   0.473  0.00  0.00    -0.257 NA
ATOM     10  C   UNL     1      -2.468  -3.274   1.562  0.00  0.00    +0.241 C 
ATOM     11  N   UNL     1      -1.089  -3.082   0.991  0.00  0.00    -0.265 NA
ATOM     12  C   UNL     1      -2.771  -2.601  -2.082  0.00  0.00    +0.156 C 
ATOM     13  N   UNL     1      -1.549  -2.298  -2.416  0.00  0.00    -0.189 NA
ATOM     14  H   UNL     1      -0.427  -3.731   1.389  0.00  0.00    +0.126 HD
BRANCH   6  15
ATOM     15  C   UNL     1       0.739  -2.027  -1.265  0.00  0.00    +0.092 C 
ATOM     16  C   UNL     1       1.562  -2.520  -2.457  0.00  0.00    +0.030 C 
BRANCH  15  17
ATOM     17  C   UNL     1       0.718  -0.497  -1.257  0.00  0.00    +0.023 C 
BRANCH  17  19
ATOM     18  C   UNL     1      -0.019   1.526   0.010  0.00  0.00    +0.004 C 
ATOM     19  C   UNL     1       0.002  -0.004   0.002  0.00  0.00    -0.002 C 
ENDBRANCH  17  19
ENDBRANCH  15  17
ENDBRANCH   6  15
ENDBRANCH   1  10
BRANCH   4  20
ATOM     20  C   UNL     1      -1.587  -0.482   5.639  0.00  0.00    +0.019 A 
ATOM     21  C   UNL     1      -2.287   0.331   6.533  0.00  0.00    +0.011 A 
ATOM     22  C   UNL     1      -1.618   0.940   7.575  0.00  0.00    +0.003 A 
ATOM     23  C   UNL     1      -0.257   0.746   7.735  0.00  0.00    +0.028 A 
ATOM     24  C   UNL     1       0.442  -0.058   6.852  0.00  0.00    +0.106 A 
ATOM     25  C   UNL     1      -0.216  -0.677   5.810  0.00  0.00    +0.040 A 
BRANCH  24  26
ATOM     26  S   UNL     1       2.175  -0.297   7.064  0.00  0.00    +0.056 S 
ATOM     27  O   UNL     1       2.694  -0.653   5.791  0.00  0.00    -0.153 OA
ATOM     28  O   UNL     1       2.652   0.823   7.796  0.00  0.00    -0.153 OA
BRANCH  26  29
ATOM     29  N   UNL     1       2.370  -1.620   8.042  0.00  0.00    -0.204 NA
ATOM     30  H   UNL     1       1.593  -2.095   8.376  0.00  0.00    +0.144 HD
ATOM     31  H   UNL     1       3.261  -1.919   8.281  0.00  0.00    +0.144 HD
ENDBRANCH  26  29
ENDBRANCH  24  26
ENDBRANCH   4  20
TORSDOF 7
