REMARK  Name = ZINC15931409
REMARK  8 active torsions:
REMARK  status: ('A' for Active; 'I' for Inactive)
REMARK    1  A    between atoms: C_1  and  C_2
REMARK    2  A    between atoms: C_3  and  C_9
REMARK    3  A    between atoms: C_4  and  C_8
REMARK    4  A    between atoms: N_5  and  C_7
REMARK    5  A    between atoms: C_9  and  N_10
REMARK    6  A    between atoms: N_10  and  C_11
REMARK    7  A    between atoms: C_12  and  C_14
REMARK    8  A    between atoms: C_19  and  C_34
REMARK                            x       y       z     vdW  Elec       q    Type
REMARK                         _______ _______ _______ _____ _____    ______ ____
ROOT
ATOM      1  C   UNL     1       2.987   1.776  -3.592  0.00  0.00    +0.149 A 
ATOM      2  C   UNL     1       3.465   3.103  -3.490  0.00  0.00    +0.078 A 
ATOM      3  C   UNL     1       4.592   3.186  -4.224  0.00  0.00    +0.119 A 
ATOM      4  N   UNL     1       4.835   1.958  -4.771  0.00  0.00    -0.238 N 
ATOM      5  N   UNL     1       3.819   1.097  -4.361  0.00  0.00    -0.164 NA
ATOM      6  C   UNL     1       5.992   1.658  -5.625  0.00  0.00    +0.218 C 
ATOM      7  C   UNL     1       7.050   2.741  -5.394  0.00  0.00    +0.047 C 
ATOM      8  C   UNL     1       8.169   2.626  -6.431  0.00  0.00    +0.013 C 
ATOM      9  C   UNL     1       9.308   3.553  -6.011  0.00  0.00    +0.036 C 
ATOM     10  C   UNL     1       8.794   4.931  -5.686  0.00  0.00    -0.042 A 
ATOM     11  C   UNL     1       9.718   5.966  -5.618  0.00  0.00    +0.004 A 
ATOM     12  C   UNL     1       9.314   7.249  -5.316  0.00  0.00    +0.000 A 
ATOM     13  C   UNL     1       7.978   7.512  -5.079  0.00  0.00    +0.000 A 
ATOM     14  C   UNL     1       7.057   6.487  -5.148  0.00  0.00    +0.006 A 
ATOM     15  C   UNL     1       7.461   5.195  -5.455  0.00  0.00    -0.024 A 
ATOM     16  C   UNL     1       6.409   4.124  -5.533  0.00  0.00    +0.108 C 
ATOM     17  N   UNL     1       5.426   4.289  -4.445  0.00  0.00    -0.322 N 
ATOM     18  H   UNL     1       5.363   5.102  -3.921  0.00  0.00    +0.148 HD
ENDROOT
BRANCH   1  21
ATOM     19  N   UNL     1       1.492  -0.075  -3.019  0.00  0.00    -0.295 N 
ATOM     20  C   UNL     1       2.450  -0.993  -3.641  0.00  0.00    +0.132 C 
ATOM     21  C   UNL     1       1.771   1.242  -2.945  0.00  0.00    +0.267 C 
ATOM     22  O   UNL     1       1.022   1.989  -2.347  0.00  0.00    -0.268 OA
BRANCH  19  23
ATOM     23  C   UNL     1       0.232  -0.588  -2.477  0.00  0.00    +0.146 C 
BRANCH  23  26
ATOM     24  C   UNL     1      -0.192   1.317   0.020  0.00  0.00    +0.068 C 
ATOM     25  C   UNL     1       0.237  -0.127   0.072  0.00  0.00    +0.065 A 
ATOM     26  C   UNL     1       0.424  -0.967  -1.031  0.00  0.00    +0.013 A 
ATOM     27  C   UNL     1       0.808  -2.180  -0.570  0.00  0.00    +0.041 A 
ATOM     28  N   UNL     1       0.862  -2.110   0.777  0.00  0.00    -0.271 N 
ATOM     29  N   UNL     1       0.504  -0.809   1.156  0.00  0.00    -0.176 NA
ATOM     30  C   UNL     1       1.234  -3.200   1.683  0.00  0.00    +0.172 C 
ATOM     31  C   UNL     1       1.119  -3.392  -1.409  0.00  0.00    +0.065 C 
ENDBRANCH  23  26
ENDBRANCH  19  23
ENDBRANCH   1  21
BRANCH   6  32
ATOM     32  C   UNL     1       6.564   0.288  -5.257  0.00  0.00    +0.412 C 
ATOM     33  F   UNL     1       5.584  -0.692  -5.443  0.00  0.00    -0.168 F 
ATOM     34  F   UNL     1       7.665   0.008  -6.073  0.00  0.00    -0.168 F 
ATOM     35  F   UNL     1       6.967   0.296  -3.917  0.00  0.00    -0.168 F 
ENDBRANCH   6  32
TORSDOF 4
