REMARK  Name = ZINC37072273
REMARK  3 active torsions:
REMARK  status: ('A' for Active; 'I' for Inactive)
REMARK    1  A    between atoms: C_3  and  N_10
REMARK    2  A    between atoms: C_6  and  C_7
REMARK    3  A    between atoms: N_10  and  C_11
REMARK                            x       y       z     vdW  Elec       q    Type
REMARK                         _______ _______ _______ _____ _____    ______ ____
ROOT
ATOM      1  N   UNL     1       3.576   2.133  -0.022  0.00  0.00    -0.340 N 
ATOM      2  H   UNL     1       4.423   1.661  -0.033  0.00  0.00    +0.146 HD
ENDROOT
BRANCH   1   3
ATOM      3  C   UNL     1       3.554   3.598  -0.014  0.00  0.00    +0.071 C 
ATOM      4  C   UNL     1       3.434   4.098   1.426  0.00  0.00    +0.027 C 
ATOM      5  C   UNL     1       3.406   5.628   1.434  0.00  0.00    +0.067 C 
ATOM      6  C   UNL     1       4.696   6.164   0.809  0.00  0.00    +0.170 C 
ATOM      7  C   UNL     1       4.822   5.661  -0.630  0.00  0.00    +0.067 C 
ATOM      8  C   UNL     1       4.847   4.131  -0.634  0.00  0.00    +0.027 C 
ATOM      9  O   UNL     1       4.668   7.600   0.813  0.00  0.00    -0.346 OA
ATOM     10  C   UNL     1       5.387   7.981   2.011  0.00  0.00    +0.191 C 
ATOM     11  C   UNL     1       6.492   6.896   2.073  0.00  0.00    +0.191 C 
ATOM     12  O   UNL     1       5.822   5.720   1.575  0.00  0.00    -0.346 OA
ENDBRANCH   1   3
BRANCH   1  15
ATOM     13  C   UNL     1      -0.017   1.394   0.010  0.00  0.00    +0.021 A 
ATOM     14  C   UNL     1       1.167   2.097   0.002  0.00  0.00    +0.025 A 
ATOM     15  C   UNL     1       2.381   1.418  -0.013  0.00  0.00    +0.042 A 
ATOM     16  C   UNL     1       2.404   0.026  -0.021  0.00  0.00    +0.040 A 
ATOM     17  C   UNL     1       1.224  -0.684  -0.013  0.00  0.00    +0.036 A 
ATOM     18  C   UNL     1       0.002  -0.004   0.002  0.00  0.00    +0.053 A 
ATOM     19 BR   UNL     1       4.058  -0.891  -0.043  0.00  0.00    -0.048 Br
BRANCH  18  20
ATOM     20  C   UNL     1      -1.227  -0.738   0.010  0.00  0.00    +0.099 C 
ATOM     21  N   UNL     1      -2.203  -1.321   0.017  0.00  0.00    -0.191 NA
ENDBRANCH  18  20
ENDBRANCH   1  15
TORSDOF 3
