REMARK  Name = ZINC43399944
REMARK  7 active torsions:
REMARK  status: ('A' for Active; 'I' for Inactive)
REMARK    1  A    between atoms: C_1  and  C_2
REMARK    2  A    between atoms: C_5  and  C_19
REMARK    3  A    between atoms: C_6  and  N_8
REMARK    4  A    between atoms: N_8  and  C_9
REMARK    5  A    between atoms: N_8  and  C_10
REMARK    6  A    between atoms: C_15  and  C_18
REMARK    7  A    between atoms: N_20  and  O_21
REMARK                            x       y       z     vdW  Elec       q    Type
REMARK                         _______ _______ _______ _____ _____    ______ ____
ROOT
ATOM      1  C   UNL     1       2.606  -0.399  -0.926  0.00  0.00    +0.065 C 
ATOM      2  C   UNL     1       1.271  -0.907  -0.447  0.00  0.00    +0.040 A 
ATOM      3  C   UNL     1       0.146  -0.698  -1.224  0.00  0.00    +0.024 A 
ATOM      4  C   UNL     1      -1.081  -1.165  -0.784  0.00  0.00    +0.016 A 
ATOM      5  C   UNL     1      -1.138  -1.836   0.440  0.00  0.00    +0.058 A 
ATOM      6  C   UNL     1       0.048  -2.009   1.171  0.00  0.00    +0.132 A 
ATOM      7  N   UNL     1       1.197  -1.548   0.704  0.00  0.00    -0.237 NA
ENDROOT
BRANCH   5   8
ATOM      8  C   UNL     1      -2.423  -2.354   0.955  0.00  0.00    +0.166 C 
ATOM      9  N   UNL     1      -2.450  -3.047   2.057  0.00  0.00    -0.071 NA
ATOM     10  N   UNL     1      -3.597  -2.102   0.266  0.00  0.00    -0.340 N 
ATOM     11  H   UNL     1      -3.577  -1.585  -0.554  0.00  0.00    +0.144 HD
ATOM     12  H   UNL     1      -4.440  -2.442   0.605  0.00  0.00    +0.144 HD
BRANCH   9  13
ATOM     13  O   UNL     1      -3.660  -3.642   2.489  0.00  0.00    -0.408 OA
ATOM     14  H   UNL     1      -3.582  -4.136   3.317  0.00  0.00    +0.328 HD
ENDBRANCH   9  13
ENDBRANCH   5   8
BRANCH   6  15
ATOM     15  N   UNL     1       0.015  -2.672   2.388  0.00  0.00    -0.315 N 
ATOM     16  C   UNL     1       0.062  -4.136   2.426  0.00  0.00    +0.131 C 
BRANCH  15  17
ATOM     17  C   UNL     1      -0.066  -1.909   3.636  0.00  0.00    +0.075 C 
ATOM     18  C   UNL     1       1.110  -2.285   4.540  0.00  0.00    +0.022 C 
ATOM     19  C   UNL     1       1.026  -1.488   5.844  0.00  0.00    +0.002 C 
ATOM     20  C   UNL     1      -0.289  -1.812   6.555  0.00  0.00    +0.003 C 
ATOM     21  C   UNL     1      -1.465  -1.436   5.651  0.00  0.00    -0.012 C 
ATOM     22  C   UNL     1      -1.381  -2.233   4.348  0.00  0.00    +0.025 C 
ATOM     23  C   UNL     1      -2.780  -1.760   6.363  0.00  0.00    +0.007 C 
ENDBRANCH  15  17
ENDBRANCH   6  15
TORSDOF 4
