REMARK  Name = ZINC15228809
REMARK  8 active torsions:
REMARK  status: ('A' for Active; 'I' for Inactive)
REMARK    1  A    between atoms: C_6  and  C_7
REMARK    2  A    between atoms: N_9  and  C_10
REMARK    3  A    between atoms: C_10  and  C_11
REMARK    4  A    between atoms: C_11  and  O_13
REMARK    5  A    between atoms: O_13  and  C_14
REMARK    6  A    between atoms: C_14  and  C_15
REMARK    7  A    between atoms: N_17  and  C_18
REMARK    8  A    between atoms: C_19  and  C_27
REMARK                            x       y       z     vdW  Elec       q    Type
REMARK                         _______ _______ _______ _____ _____    ______ ____
ROOT
ATOM      1  C   UNL     1      -0.014   1.209   0.009  0.00  0.00    +0.255 C 
ATOM      2  O   UNL     1       0.002  -0.004   0.002  0.00  0.00    -0.272 OA
ATOM      3  N   UNL     1       1.143   1.898   0.001  0.00  0.00    -0.277 N 
ATOM      4  H   UNL     1       1.130   2.868   0.007  0.00  0.00    +0.155 HD
ENDROOT
BRANCH   3   5
ATOM      5  C   UNL     1       2.354   1.221  -0.014  0.00  0.00    +0.084 A 
ATOM      6  C   UNL     1       3.637   1.749  -0.029  0.00  0.00    +0.068 A 
ATOM      7  C   UNL     1       4.748   0.813  -0.039  0.00  0.00    -0.023 A 
ATOM      8  C   UNL     1       4.401  -0.492  -0.044  0.00  0.00    -0.004 A 
ATOM      9  S   UNL     1       2.630  -0.489  -0.026  0.00  0.00    -0.077 S 
ATOM     10  C   UNL     1       5.323  -1.672  -0.060  0.00  0.00    +0.043 C 
ATOM     11  C   UNL     1       6.726  -1.184  -0.449  0.00  0.00    +0.005 C 
ATOM     12  C   UNL     1       7.070   0.049   0.392  0.00  0.00    +0.005 C 
ATOM     13  C   UNL     1       6.212   1.236  -0.050  0.00  0.00    +0.037 C 
BRANCH   6  14
ATOM     14  C   UNL     1       3.863   3.198  -0.031  0.00  0.00    +0.244 C 
ATOM     15  O   UNL     1       3.970   3.799   1.023  0.00  0.00    -0.270 OA
ATOM     16  N   UNL     1       3.952   3.865  -1.199  0.00  0.00    -0.325 N 
ATOM     17  H   UNL     1       3.867   3.386  -2.038  0.00  0.00    +0.145 HD
ATOM     18  H   UNL     1       4.102   4.823  -1.200  0.00  0.00    +0.145 HD
ENDBRANCH   6  14
ENDBRANCH   3   5
BRANCH   1  19
ATOM     19  C   UNL     1      -1.330   1.944   0.019  0.00  0.00    +0.328 C 
BRANCH  19  20
ATOM     20  O   UNL     1      -2.420   0.986   0.019  0.00  0.00    -0.454 OA
BRANCH  20  21
ATOM     21  C   UNL     1      -3.667   1.482   0.028  0.00  0.00    +0.325 C 
ATOM     22  O   UNL     1      -3.842   2.678   0.035  0.00  0.00    -0.249 OA
BRANCH  21  23
ATOM     23  C   UNL     1      -4.850   0.548   0.028  0.00  0.00    +0.225 C 
BRANCH  23  26
ATOM     24  C   UNL     1      -7.282   0.701   0.040  0.00  0.00    +0.245 C 
ATOM     25  O   UNL     1      -7.329  -0.514   0.034  0.00  0.00    -0.270 OA
ATOM     26  N   UNL     1      -6.089   1.329   0.038  0.00  0.00    -0.301 N 
ATOM     27  H   UNL     1      -6.052   2.298   0.043  0.00  0.00    +0.150 HD
BRANCH  24  33
ATOM     28  C   UNL     1      -8.481   2.884   0.064  0.00  0.00    +0.014 A 
ATOM     29  C   UNL     1      -9.651   3.614   0.067  0.00  0.00    +0.016 A 
ATOM     30  C   UNL     1     -10.875   2.966   0.070  0.00  0.00    +0.018 A 
ATOM     31  C   UNL     1     -10.932   1.582   0.062  0.00  0.00    +0.016 A 
ATOM     32  C   UNL     1      -9.769   0.841   0.053  0.00  0.00    +0.014 A 
ATOM     33  C   UNL     1      -8.532   1.489   0.051  0.00  0.00    +0.037 A 
ATOM     34 BR   UNL     1     -12.475   3.974   0.083  0.00  0.00    -0.050 Br
ENDBRANCH  24  33
ENDBRANCH  23  26
ENDBRANCH  21  23
ENDBRANCH  20  21
ENDBRANCH  19  20
ENDBRANCH   1  19
TORSDOF 8
