REMARK  Name = ZINC38033755
REMARK  5 active torsions:
REMARK  status: ('A' for Active; 'I' for Inactive)
REMARK    1  A    between atoms: C_1  and  C_2
REMARK    2  A    between atoms: C_3  and  S_8
REMARK    3  A    between atoms: S_8  and  N_11
REMARK    4  A    between atoms: N_11  and  C_12
REMARK    5  A    between atoms: C_14  and  N_19
REMARK                            x       y       z     vdW  Elec       q    Type
REMARK                         _______ _______ _______ _____ _____    ______ ____
ROOT
ATOM      1  N   UNL     1       0.791  -1.248  -3.738  0.00  0.00    -0.214 N 
ATOM      2  H   UNL     1       1.620  -1.007  -4.181  0.00  0.00    +0.174 HD
ENDROOT
BRANCH   1   3
ATOM      3  C   UNL     1       0.325  -2.564  -3.798  0.00  0.00    +0.068 A 
ATOM      4  C   UNL     1      -1.038  -2.815  -3.871  0.00  0.00    +0.048 A 
ATOM      5  C   UNL     1      -1.498  -4.123  -3.931  0.00  0.00    +0.026 A 
ATOM      6  C   UNL     1      -0.593  -5.178  -3.918  0.00  0.00    +0.024 A 
ATOM      7  C   UNL     1       0.764  -4.925  -3.846  0.00  0.00    +0.024 A 
ATOM      8  C   UNL     1       1.225  -3.623  -3.791  0.00  0.00    +0.063 A 
ATOM      9 CL   UNL     1       2.931  -3.310  -3.708  0.00  0.00    -0.082 Cl
BRANCH   5  10
ATOM     10  N   UNL     1      -2.869  -4.380  -4.003  0.00  0.00    -0.358 N 
ATOM     11  H   UNL     1      -3.501  -3.644  -4.012  0.00  0.00    +0.142 HD
ATOM     12  H   UNL     1      -3.190  -5.295  -4.045  0.00  0.00    +0.142 HD
ENDBRANCH   5  10
ENDBRANCH   1   3
BRANCH   1  13
ATOM     13  S   UNL     1      -0.071  -0.101  -2.912  0.00  0.00    +0.081 S 
ATOM     14  O   UNL     1      -1.396  -0.141  -3.424  0.00  0.00    -0.149 OA
ATOM     15  O   UNL     1       0.714   1.083  -2.923  0.00  0.00    -0.149 OA
BRANCH  13  18
ATOM     16  C   UNL     1      -0.268   1.616  -0.140  0.00  0.00    +0.068 C 
ATOM     17  C   UNL     1      -0.245   0.110  -0.099  0.00  0.00    +0.076 A 
ATOM     18  C   UNL     1      -0.164  -0.627  -1.233  0.00  0.00    +0.171 A 
ATOM     19  S   UNL     1      -0.177  -2.280  -0.557  0.00  0.00    -0.004 S 
ATOM     20  C   UNL     1      -0.283  -1.865   1.071  0.00  0.00    +0.312 A 
ATOM     21  O   UNL     1      -0.334  -2.686   2.148  0.00  0.00    -0.258 OA
ATOM     22  N   UNL     1      -0.298  -0.551   1.044  0.00  0.00    -0.206 NA
ENDBRANCH  13  18
ENDBRANCH   1  13
TORSDOF 4
