REMARK  Name = ZINC01474677
REMARK  8 active torsions:
REMARK  status: ('A' for Active; 'I' for Inactive)
REMARK    1  A    between atoms: C_1  and  C_2
REMARK    2  A    between atoms: C_5  and  C_8
REMARK    3  A    between atoms: C_11  and  S_20
REMARK    4  A    between atoms: N_12  and  C_13
REMARK    5  A    between atoms: C_16  and  C_19
REMARK    6  A    between atoms: S_20  and  C_21
REMARK    7  A    between atoms: C_21  and  C_22
REMARK    8  A    between atoms: N_24  and  N_25
REMARK                            x       y       z     vdW  Elec       q    Type
REMARK                         _______ _______ _______ _____ _____    ______ ____
ROOT
ATOM      1  C   UNL     1       0.262  -4.253  -0.102  0.00  0.00    +0.169 A 
ATOM      2  N   UNL     1      -0.250  -5.029  -1.029  0.00  0.00    -0.128 NA
ATOM      3  N   UNL     1      -0.121  -6.262  -0.691  0.00  0.00    -0.122 NA
ATOM      4  C   UNL     1       0.482  -6.352   0.474  0.00  0.00    +0.197 A 
ATOM      5  N   UNL     1       0.752  -5.076   0.888  0.00  0.00    -0.270 N 
ENDROOT
BRANCH   1  10
ATOM      6  C   UNL     1       0.445   1.498  -0.173  0.00  0.00    +0.044 C 
ATOM      7  C   UNL     1       0.397  -0.008  -0.154  0.00  0.00    -0.050 A 
ATOM      8  C   UNL     1       0.111  -0.703  -1.316  0.00  0.00    +0.004 A 
ATOM      9  C   UNL     1       0.065  -2.082  -1.306  0.00  0.00    +0.012 A 
ATOM     10  C   UNL     1       0.309  -2.776  -0.120  0.00  0.00    +0.020 A 
ATOM     11  C   UNL     1       0.598  -2.069   1.048  0.00  0.00    +0.012 A 
ATOM     12  C   UNL     1       0.645  -0.691   1.023  0.00  0.00    +0.004 A 
ENDBRANCH   1  10
BRANCH   5  13
ATOM     13  C   UNL     1       1.390  -4.688   2.075  0.00  0.00    +0.051 A 
ATOM     14  C   UNL     1       2.617  -4.039   2.024  0.00  0.00    +0.026 A 
ATOM     15  C   UNL     1       3.244  -3.658   3.194  0.00  0.00    +0.005 A 
ATOM     16  C   UNL     1       2.651  -3.922   4.415  0.00  0.00    -0.050 A 
ATOM     17  C   UNL     1       1.430  -4.568   4.469  0.00  0.00    +0.005 A 
ATOM     18  C   UNL     1       0.795  -4.946   3.302  0.00  0.00    +0.026 A 
ATOM     19  C   UNL     1       3.337  -3.505   5.690  0.00  0.00    +0.044 C 
ENDBRANCH   5  13
BRANCH   4  20
ATOM     20  S   UNL     1       0.873  -7.837   1.337  0.00  0.00    -0.076 S 
BRANCH  20  21
ATOM     21  C   UNL     1       0.258  -9.152   0.249  0.00  0.00    +0.174 C 
BRANCH  21  22
ATOM     22  C   UNL     1       0.533 -10.494   0.878  0.00  0.00    +0.242 C 
ATOM     23  O   UNL     1       1.089 -10.557   1.954  0.00  0.00    -0.273 OA
ATOM     24  N   UNL     1       0.161 -11.624   0.245  0.00  0.00    -0.206 N 
ATOM     25  H   UNL     1      -0.284 -11.573  -0.616  0.00  0.00    +0.177 HD
BRANCH  24  26
ATOM     26  N   UNL     1       0.417 -12.871   0.829  0.00  0.00    -0.175 NA
ATOM     27  C   UNL     1       0.153 -13.971   0.168  0.00  0.00    +0.152 C 
ATOM     28  C   UNL     1      -0.237 -14.096  -1.256  0.00  0.00    +0.028 A 
ATOM     29  C   UNL     1      -0.437 -13.170  -2.273  0.00  0.00    +0.012 A 
ATOM     30  C   UNL     1      -0.808 -13.603  -3.531  0.00  0.00    +0.001 A 
ATOM     31  C   UNL     1      -0.979 -14.955  -3.776  0.00  0.00    +0.002 A 
ATOM     32  C   UNL     1      -0.783 -15.882  -2.773  0.00  0.00    +0.024 A 
ATOM     33  C   UNL     1      -0.410 -15.465  -1.500  0.00  0.00    +0.043 A 
ATOM     34  N   UNL     1      -0.153 -16.176  -0.333  0.00  0.00    -0.280 N 
ATOM     35  C   UNL     1       0.188 -15.357   0.676  0.00  0.00    +0.269 C 
ATOM     36  O   UNL     1       0.471 -15.698   1.810  0.00  0.00    -0.268 OA
ATOM     37  H   UNL     1      -0.209 -17.142  -0.259  0.00  0.00    +0.155 HD
ENDBRANCH  24  26
ENDBRANCH  21  22
ENDBRANCH  20  21
ENDBRANCH   4  20
TORSDOF 6
