REMARK  Name = ZINC38596144
REMARK  12 active torsions:
REMARK  status: ('A' for Active; 'I' for Inactive)
REMARK    1  A    between atoms: C_1  and  C_2
REMARK    2  A    between atoms: C_4  and  C_36
REMARK    3  A    between atoms: C_5  and  S_9
REMARK    4  A    between atoms: C_6  and  C_8
REMARK    5  A    between atoms: S_9  and  N_12
REMARK    6  A    between atoms: N_12  and  C_13
REMARK    7  A    between atoms: C_13  and  C_15
REMARK    8  A    between atoms: C_13  and  C_16
REMARK    9  A    between atoms: C_16  and  C_18
REMARK   10  A    between atoms: C_16  and  N_23
REMARK   11  A    between atoms: N_26  and  C_29
REMARK   12  A    between atoms: C_29  and  C_30
REMARK                            x       y       z     vdW  Elec       q    Type
REMARK                         _______ _______ _______ _____ _____    ______ ____
ROOT
ATOM      1  C   UNL     1       1.840  -6.653   2.123  0.00  0.00    +0.112 C 
ENDROOT
BRANCH   1   2
ATOM      2  N   UNL     1       3.022  -6.614   2.995  0.00  0.00    -0.297 NA
ATOM      3  C   UNL     1       2.632  -6.477   4.405  0.00  0.00    +0.066 C 
ATOM      4  C   UNL     1       3.889  -6.380   5.272  0.00  0.00    -0.063 C 
ATOM      5  N   UNL     1       4.705  -7.587   5.088  0.00  0.00    +0.384 N 
ATOM      6  C   UNL     1       5.108  -7.698   3.679  0.00  0.00    -0.063 C 
ATOM      7  C   UNL     1       3.861  -7.805   2.799  0.00  0.00    +0.066 C 
ATOM      8  H   UNL     1       4.167  -8.400   5.348  0.00  0.00    -0.081 HD
BRANCH   5   9
ATOM      9  C   UNL     1       5.903  -7.503   5.934  0.00  0.00    -0.043 C 
BRANCH   9  10
ATOM     10  C   UNL     1       6.678  -8.792   5.839  0.00  0.00    -0.064 A 
ATOM     11  C   UNL     1       6.408  -9.826   6.715  0.00  0.00    +0.002 A 
ATOM     12  C   UNL     1       7.119 -11.009   6.628  0.00  0.00    +0.000 A 
ATOM     13  C   UNL     1       8.099 -11.157   5.664  0.00  0.00    +0.000 A 
ATOM     14  C   UNL     1       8.367 -10.123   4.787  0.00  0.00    +0.000 A 
ATOM     15  C   UNL     1       7.654  -8.942   4.872  0.00  0.00    +0.002 A 
ENDBRANCH   9  10
ENDBRANCH   5   9
ENDBRANCH   1   2
BRANCH   1  16
ATOM     16  C   UNL     1       1.033  -7.889   2.426  0.00  0.00    +0.008 A 
ATOM     17  C   UNL     1       0.697  -8.912   1.602  0.00  0.00    +0.013 A 
ATOM     18  C   UNL     1      -0.059  -9.955   2.103  0.00  0.00    +0.008 A 
ATOM     19  C   UNL     1      -0.441  -9.925   3.403  0.00  0.00    +0.045 A 
ATOM     20  S   UNL     1       0.279  -8.391   3.965  0.00  0.00    -0.100 S 
ENDBRANCH   1  16
BRANCH   1  21
ATOM     21  C   UNL     1       0.983  -5.410   2.372  0.00  0.00    +0.095 C 
ATOM     22  C   UNL     1       1.802  -4.155   2.064  0.00  0.00    +0.027 C 
BRANCH  21  23
ATOM     23  N   UNL     1      -0.196  -5.449   1.502  0.00  0.00    -0.185 NA
ATOM     24  H   UNL     1      -0.121  -5.796   0.599  0.00  0.00    +0.148 HD
BRANCH  23  25
ATOM     25  S   UNL     1      -1.655  -4.901   2.061  0.00  0.00    +0.059 S 
ATOM     26  O   UNL     1      -1.845  -5.483   3.343  0.00  0.00    -0.153 OA
ATOM     27  O   UNL     1      -2.586  -5.072   1.001  0.00  0.00    -0.153 OA
BRANCH  25  32
ATOM     28  C   UNL     1      -1.107   1.045   2.932  0.00  0.00    +0.044 C 
ATOM     29  C   UNL     1      -1.244  -0.440   2.714  0.00  0.00    -0.050 A 
ATOM     30  C   UNL     1      -1.041  -1.315   3.765  0.00  0.00    +0.008 A 
ATOM     31  C   UNL     1      -1.166  -2.677   3.566  0.00  0.00    -0.024 A 
ATOM     32  C   UNL     1      -1.496  -3.164   2.315  0.00  0.00    +0.111 A 
ATOM     33  C   UNL     1      -1.701  -2.290   1.264  0.00  0.00    -0.024 A 
ATOM     34  C   UNL     1      -1.579  -0.928   1.465  0.00  0.00    +0.008 A 
ATOM     35  C   UNL     1      -2.060  -2.822  -0.099  0.00  0.00    +0.046 C 
ATOM     36  C   UNL     1      -0.943  -3.630   4.712  0.00  0.00    +0.046 C 
ENDBRANCH  25  32
ENDBRANCH  23  25
ENDBRANCH  21  23
ENDBRANCH   1  21
TORSDOF 8
