REMARK  Name = ZINC34972324
REMARK  11 active torsions:
REMARK  status: ('A' for Active; 'I' for Inactive)
REMARK    1  A    between atoms: C_4  and  O_7
REMARK    2  A    between atoms: O_7  and  C_8
REMARK    3  A    between atoms: C_11  and  N_14
REMARK    4  A    between atoms: N_14  and  C_15
REMARK    5  A    between atoms: C_15  and  C_16
REMARK    6  A    between atoms: C_16  and  C_17
REMARK    7  A    between atoms: C_17  and  N_18
REMARK    8  A    between atoms: C_19  and  C_21
REMARK    9  A    between atoms: C_21  and  C_22
REMARK   10  A    between atoms: C_22  and  C_23
REMARK   11  A    between atoms: N_30  and  C_31
REMARK                            x       y       z     vdW  Elec       q    Type
REMARK                         _______ _______ _______ _____ _____    ______ ____
ROOT
ATOM      1  N   UNL     1       3.091  -6.211   0.745  0.00  0.00    -0.255 N 
ATOM      2  C   UNL     1       1.914  -6.862   0.655  0.00  0.00    +0.311 C 
ATOM      3  O   UNL     1       0.904  -6.358   1.109  0.00  0.00    -0.252 OA
ATOM      4  N   UNL     1       1.855  -8.071   0.062  0.00  0.00    -0.269 N 
ATOM      5  H   UNL     1       2.672  -8.519  -0.207  0.00  0.00    +0.156 HD
ENDROOT
BRANCH   4   6
ATOM      6  C   UNL     1       0.616  -8.679  -0.166  0.00  0.00    +0.035 A 
ATOM      7  C   UNL     1      -0.497  -7.902  -0.461  0.00  0.00    +0.025 A 
ATOM      8  C   UNL     1      -1.719  -8.506  -0.686  0.00  0.00    +0.022 A 
ATOM      9  C   UNL     1      -1.835  -9.883  -0.618  0.00  0.00    +0.041 A 
ATOM     10  C   UNL     1      -0.728 -10.659  -0.324  0.00  0.00    +0.022 A 
ATOM     11  C   UNL     1       0.497 -10.062  -0.103  0.00  0.00    +0.025 A 
ATOM     12 CL   UNL     1      -3.372 -10.638  -0.901  0.00  0.00    -0.084 Cl
ENDBRANCH   4   6
BRANCH   1  16
ATOM     13  C   UNL     1       3.222  -2.348   2.308  0.00  0.00    +0.129 A 
ATOM     14  C   UNL     1       3.514  -2.564   0.969  0.00  0.00    +0.048 A 
ATOM     15  C   UNL     1       3.471  -3.844   0.451  0.00  0.00    +0.027 A 
ATOM     16  C   UNL     1       3.135  -4.913   1.270  0.00  0.00    +0.038 A 
ATOM     17  C   UNL     1       2.843  -4.696   2.610  0.00  0.00    +0.027 A 
ATOM     18  C   UNL     1       2.892  -3.417   3.129  0.00  0.00    +0.048 A 
BRANCH  13  19
ATOM     19  O   UNL     1       3.265  -1.088   2.818  0.00  0.00    -0.456 OA
BRANCH  19  23
ATOM     20  C   UNL     1       0.083   1.422   2.047  0.00  0.00    +0.000 A 
ATOM     21  C   UNL     1       1.111   1.844   2.870  0.00  0.00    +0.004 A 
ATOM     22  C   UNL     1       2.178   1.005   3.130  0.00  0.00    +0.046 A 
ATOM     23  C   UNL     1       2.217  -0.261   2.564  0.00  0.00    +0.128 A 
ATOM     24  C   UNL     1       1.184  -0.682   1.739  0.00  0.00    +0.046 A 
ATOM     25  C   UNL     1       0.120   0.161   1.482  0.00  0.00    +0.004 A 
ENDBRANCH  19  23
ENDBRANCH  13  19
ENDBRANCH   1  16
BRANCH   1  26
ATOM     26  C   UNL     1       4.323  -6.862   0.294  0.00  0.00    +0.117 C 
BRANCH  26  27
ATOM     27  C   UNL     1       4.951  -7.630   1.459  0.00  0.00    +0.038 C 
BRANCH  27  28
ATOM     28  C   UNL     1       6.238  -8.309   0.987  0.00  0.00    +0.105 C 
BRANCH  28  29
ATOM     29  N   UNL     1       6.839  -9.044   2.103  0.00  0.00    -0.315 N 
ATOM     30  C   UNL     1       7.988  -9.725   1.920  0.00  0.00    +0.213 C 
ATOM     31  O   UNL     1       8.524  -9.728   0.832  0.00  0.00    -0.276 OA
ATOM     32  H   UNL     1       6.410  -9.041   2.973  0.00  0.00    +0.149 HD
BRANCH  30  33
ATOM     33  C   UNL     1       8.606 -10.481   3.067  0.00  0.00    +0.096 C 
BRANCH  33  34
ATOM     34  C   UNL     1       9.894 -11.160   2.596  0.00  0.00    +0.013 C 
BRANCH  34  35
ATOM     35  C   UNL     1      10.521 -11.928   3.761  0.00  0.00    -0.011 C 
ATOM     36  C   UNL     1      11.031 -10.941   4.831  0.00  0.00    +0.003 C 
ATOM     37  C   UNL     1      12.340 -11.585   5.349  0.00  0.00    +0.000 C 
ATOM     38  C   UNL     1      12.960 -12.183   4.062  0.00  0.00    +0.000 C 
ATOM     39  C   UNL     1      11.748 -12.718   3.272  0.00  0.00    +0.003 C 
ENDBRANCH  34  35
ENDBRANCH  33  34
ENDBRANCH  30  33
ENDBRANCH  28  29
ENDBRANCH  27  28
ENDBRANCH  26  27
ENDBRANCH   1  26
TORSDOF 11
