REMARK  Name = ZINC65135398
REMARK  9 active torsions:
REMARK  status: ('A' for Active; 'I' for Inactive)
REMARK    1  A    between atoms: C_1  and  C_2
REMARK    2  A    between atoms: C_3  and  C_17
REMARK    3  A    between atoms: C_10  and  C_13
REMARK    4  A    between atoms: N_19  and  N_20
REMARK    5  A    between atoms: N_23  and  C_24
REMARK    6  A    between atoms: C_24  and  C_25
REMARK    7  A    between atoms: C_25  and  C_26
REMARK    8  A    between atoms: C_26  and  C_27
REMARK    9  A    between atoms: C_26  and  C_28
REMARK                            x       y       z     vdW  Elec       q    Type
REMARK                         _______ _______ _______ _____ _____    ______ ____
ROOT
ATOM      1  C   UNL     1      -0.018   1.503   0.010  0.00  0.00    +0.066 C 
ATOM      2  C   UNL     1       0.002  -0.004   0.002  0.00  0.00    +0.056 A 
ATOM      3  C   UNL     1       0.009  -0.815  -1.115  0.00  0.00    +0.079 A 
ATOM      4  C   UNL     1       0.029  -2.153  -0.659  0.00  0.00    +0.148 A 
ATOM      5  N   UNL     1       0.035  -2.136   0.646  0.00  0.00    -0.172 NA
ATOM      6  N   UNL     1       0.023  -0.807   1.082  0.00  0.00    -0.218 N 
ATOM      7  C   UNL     1       0.029  -0.384   2.415  0.00  0.00    +0.154 A 
ATOM      8  C   UNL     1      -0.455  -1.228   3.407  0.00  0.00    +0.049 A 
ATOM      9  C   UNL     1      -0.443  -0.798   4.722  0.00  0.00    +0.017 A 
ATOM     10  C   UNL     1       0.056   0.468   5.000  0.00  0.00    +0.073 A 
ATOM     11  C   UNL     1       0.521   1.253   3.964  0.00  0.00    +0.125 A 
ATOM     12  N   UNL     1       0.501   0.814   2.720  0.00  0.00    -0.236 NA
ENDROOT
BRANCH  10  13
ATOM     13  C   UNL     1       0.088   0.979   6.417  0.00  0.00    +0.419 C 
ATOM     14  F   UNL     1       1.305   0.628   7.012  0.00  0.00    -0.166 F 
ATOM     15  F   UNL     1      -0.044   2.372   6.414  0.00  0.00    -0.166 F 
ATOM     16  F   UNL     1      -0.966   0.412   7.142  0.00  0.00    -0.166 F 
ENDBRANCH  10  13
BRANCH   3  17
ATOM     17  C   UNL     1      -0.004  -0.370  -2.520  0.00  0.00    +0.263 C 
ATOM     18  O   UNL     1      -0.023   0.818  -2.781  0.00  0.00    -0.269 OA
ATOM     19  N   UNL     1       0.004  -1.279  -3.515  0.00  0.00    -0.229 N 
ATOM     20  H   UNL     1       0.019  -2.226  -3.307  0.00  0.00    +0.173 HD
BRANCH  19  21
ATOM     21  N   UNL     1      -0.008  -0.855  -4.850  0.00  0.00    -0.218 N 
ATOM     22  C   UNL     1       0.000  -1.764  -5.846  0.00  0.00    +0.316 C 
ATOM     23  O   UNL     1      -0.010  -1.397  -7.005  0.00  0.00    -0.251 OA
ATOM     24  N   UNL     1       0.021  -3.080  -5.556  0.00  0.00    -0.298 N 
ATOM     25  H   UNL     1      -0.023   0.092  -5.059  0.00  0.00    +0.174 HD
ATOM     26  H   UNL     1       0.029  -3.373  -4.631  0.00  0.00    +0.150 HD
BRANCH  24  27
ATOM     27  C   UNL     1       0.030  -4.068  -6.638  0.00  0.00    +0.106 C 
BRANCH  27  28
ATOM     28  C   UNL     1       0.053  -5.477  -6.042  0.00  0.00    +0.022 C 
BRANCH  28  29
ATOM     29  C   UNL     1       0.063  -6.509  -7.171  0.00  0.00    -0.016 C 
ATOM     30  C   UNL     1       0.211  -7.912  -6.579  0.00  0.00    +0.007 C 
ATOM     31  C   UNL     1      -1.250  -6.421  -7.953  0.00  0.00    +0.007 C 
ENDBRANCH  28  29
ENDBRANCH  27  28
ENDBRANCH  24  27
ENDBRANCH  19  21
ENDBRANCH   3  17
TORSDOF 6
