REMARK  Name = ZINC35992307
REMARK  12 active torsions:
REMARK  status: ('A' for Active; 'I' for Inactive)
REMARK    1  A    between atoms: C_1  and  C_2
REMARK    2  A    between atoms: C_2  and  O_3
REMARK    3  A    between atoms: O_3  and  C_4
REMARK    4  A    between atoms: C_4  and  C_6
REMARK    5  A    between atoms: C_7  and  C_22
REMARK    6  A    between atoms: N_8  and  C_21
REMARK    7  A    between atoms: C_12  and  C_14
REMARK    8  A    between atoms: C_18  and  C_20
REMARK    9  A    between atoms: C_22  and  N_23
REMARK   10  A    between atoms: N_26  and  S_29
REMARK   11  A    between atoms: S_29  and  C_32
REMARK   12  A    between atoms: C_35  and  C_38
REMARK                            x       y       z     vdW  Elec       q    Type
REMARK                         _______ _______ _______ _____ _____    ______ ____
ROOT
ATOM      1  C   UNL     1       1.342  -2.337  -2.523  0.00  0.00    +0.080 C 
ATOM      2  C   UNL     1       1.628  -3.654  -2.615  0.00  0.00    +0.041 C 
ATOM      3  N   UNL     1       2.339  -4.149  -3.670  0.00  0.00    -0.260 N 
ATOM      4  C   UNL     1       2.802  -3.393  -4.674  0.00  0.00    +0.307 C 
ATOM      5  O   UNL     1       3.427  -3.924  -5.571  0.00  0.00    -0.252 OA
ATOM      6  N   UNL     1       2.598  -2.062  -4.722  0.00  0.00    -0.288 N 
ATOM      7  C   UNL     1       1.834  -1.430  -3.632  0.00  0.00    +0.144 C 
ATOM      8  C   UNL     1       2.613  -5.588  -3.706  0.00  0.00    +0.139 C 
ATOM      9  H   UNL     1       2.942  -1.532  -5.458  0.00  0.00    +0.151 HD
ENDROOT
BRANCH   7  10
ATOM     10  C   UNL     1       2.708  -0.370  -3.013  0.00  0.00    -0.022 A 
ATOM     11  C   UNL     1       4.022  -0.657  -2.693  0.00  0.00    +0.006 A 
ATOM     12  C   UNL     1       4.824   0.314  -2.125  0.00  0.00    +0.001 A 
ATOM     13  C   UNL     1       4.311   1.574  -1.876  0.00  0.00    +0.003 A 
ATOM     14  C   UNL     1       2.998   1.862  -2.196  0.00  0.00    -0.050 A 
ATOM     15  C   UNL     1       2.197   0.891  -2.768  0.00  0.00    +0.009 A 
ATOM     16  C   UNL     1       2.439   3.235  -1.924  0.00  0.00    +0.044 C 
ENDBRANCH   7  10
BRANCH   1  17
ATOM     17  C   UNL     1       0.605  -1.824  -1.431  0.00  0.00    +0.339 C 
ATOM     18  O   UNL     1      -0.577  -1.563  -1.563  0.00  0.00    -0.245 OA
BRANCH  17  19
ATOM     19  O   UNL     1       1.211  -1.623  -0.242  0.00  0.00    -0.462 OA
BRANCH  19  21
ATOM     20  C   UNL     1       1.260  -0.943   2.077  0.00  0.00    +0.048 C 
ATOM     21  C   UNL     1       0.405  -1.102   0.817  0.00  0.00    +0.229 C 
ENDBRANCH  19  21
ENDBRANCH  17  19
ENDBRANCH   1  17
BRANCH   2  22
ATOM     22  C   UNL     1       1.153  -4.593  -1.536  0.00  0.00    +0.136 C 
BRANCH  22  23
ATOM     23  N   UNL     1       0.182  -5.539  -2.102  0.00  0.00    -0.294 NA
ATOM     24  C   UNL     1      -1.039  -4.845  -2.533  0.00  0.00    +0.102 C 
ATOM     25  C   UNL     1      -1.946  -5.831  -3.278  0.00  0.00    +0.125 C 
ATOM     26  N   UNL     1      -2.167  -7.003  -2.419  0.00  0.00    -0.174 NA
ATOM     27  C   UNL     1      -0.994  -7.671  -1.836  0.00  0.00    +0.125 C 
ATOM     28  C   UNL     1      -0.124  -6.613  -1.147  0.00  0.00    +0.102 C 
BRANCH  26  29
ATOM     29  S   UNL     1      -3.698  -7.558  -2.116  0.00  0.00    +0.061 S 
ATOM     30  O   UNL     1      -3.636  -8.272  -0.889  0.00  0.00    -0.153 OA
ATOM     31  O   UNL     1      -4.575  -6.457  -2.313  0.00  0.00    -0.153 OA
BRANCH  29  32
ATOM     32  C   UNL     1      -4.082  -8.738  -3.367  0.00  0.00    +0.105 A 
ATOM     33  C   UNL     1      -4.679  -8.327  -4.544  0.00  0.00    +0.029 A 
ATOM     34  C   UNL     1      -4.980  -9.253  -5.526  0.00  0.00    +0.005 A 
ATOM     35  C   UNL     1      -4.684 -10.589  -5.330  0.00  0.00    -0.050 A 
ATOM     36  C   UNL     1      -4.086 -10.999  -4.153  0.00  0.00    +0.005 A 
ATOM     37  C   UNL     1      -3.781 -10.073  -3.173  0.00  0.00    +0.029 A 
ATOM     38  C   UNL     1      -5.013 -11.598  -6.399  0.00  0.00    +0.044 C 
ENDBRANCH  29  32
ENDBRANCH  26  29
ENDBRANCH  22  23
ENDBRANCH   2  22
TORSDOF 8
