REMARK  Name = ZINC64870686
REMARK  8 active torsions:
REMARK  status: ('A' for Active; 'I' for Inactive)
REMARK    1  A    between atoms: C_1  and  C_2
REMARK    2  A    between atoms: C_7  and  C_8
REMARK    3  A    between atoms: C_10  and  C_14
REMARK    4  A    between atoms: N_24  and  C_27
REMARK    5  A    between atoms: C_27  and  C_28
REMARK    6  A    between atoms: C_28  and  C_29
REMARK    7  A    between atoms: C_29  and  C_30
REMARK    8  A    between atoms: C_29  and  C_31
REMARK                            x       y       z     vdW  Elec       q    Type
REMARK                         _______ _______ _______ _____ _____    ______ ____
ROOT
ATOM      1  C   UNL     1      -0.775   0.596   5.553  0.00  0.00    +0.006 A 
ATOM      2  C   UNL     1      -1.935  -0.063   5.175  0.00  0.00    +0.009 A 
ATOM      3  C   UNL     1      -2.962  -0.244   6.078  0.00  0.00    +0.016 A 
ATOM      4  C   UNL     1      -2.826   0.241   7.377  0.00  0.00    +0.063 A 
ATOM      5  C   UNL     1      -1.650   0.909   7.759  0.00  0.00    +0.056 A 
ATOM      6  C   UNL     1      -0.626   1.076   6.839  0.00  0.00    +0.034 A 
ATOM      7  N   UNL     1      -1.543   1.381   9.059  0.00  0.00    -0.307 N 
ATOM      8  H   UNL     1      -0.737   1.844   9.337  0.00  0.00    +0.170 HD
ATOM      9  C   UNL     1      -2.545   1.203   9.937  0.00  0.00    +0.330 A 
ATOM     10  O   UNL     1      -2.411   1.632  11.067  0.00  0.00    -0.246 OA
ATOM     11  N   UNL     1      -3.686   0.573   9.620  0.00  0.00    -0.261 N 
ATOM     12  C   UNL     1      -3.892   0.075   8.381  0.00  0.00    +0.264 A 
ATOM     13  O   UNL     1      -4.929  -0.495   8.102  0.00  0.00    -0.267 OA
ENDROOT
BRANCH   1  16
ATOM     14  C   UNL     1       0.142   0.175   2.397  0.00  0.00    +0.134 C 
ATOM     15  N   UNL     1       0.336  -0.316   3.581  0.00  0.00    -0.339 N 
ATOM     16  C   UNL     1       0.336   0.784   4.553  0.00  0.00    +0.274 C 
ATOM     17  O   UNL     1       0.117   1.975   3.782  0.00  0.00    -0.243 OA
ATOM     18  N   UNL     1       0.007   1.540   2.436  0.00  0.00    -0.247 N 
ATOM     19  H   UNL     1      -0.142   2.115   1.668  0.00  0.00    +0.196 HD
ATOM     20  H   UNL     1       0.461  -1.255   3.790  0.00  0.00    +0.164 HD
BRANCH  14  27
ATOM     21  C   UNL     1      -2.190   0.343   0.692  0.00  0.00    +0.044 C 
ATOM     22  C   UNL     1      -1.040  -0.561   0.329  0.00  0.00    -0.040 A 
ATOM     23  C   UNL     1      -1.089  -1.313  -0.827  0.00  0.00    +0.004 A 
ATOM     24  C   UNL     1      -0.034  -2.143  -1.161  0.00  0.00    +0.000 A 
ATOM     25  C   UNL     1       1.077  -2.224  -0.341  0.00  0.00    +0.001 A 
ATOM     26  C   UNL     1       1.138  -1.476   0.818  0.00  0.00    +0.012 A 
ATOM     27  C   UNL     1       0.080  -0.634   1.158  0.00  0.00    +0.020 A 
ENDBRANCH  14  27
ENDBRANCH   1  16
BRANCH  11  28
ATOM     28  C   UNL     1      -4.730   0.421  10.637  0.00  0.00    +0.130 C 
BRANCH  28  29
ATOM     29  C   UNL     1      -5.673   1.624  10.584  0.00  0.00    +0.025 C 
BRANCH  29  30
ATOM     30  C   UNL     1      -6.763   1.466  11.646  0.00  0.00    -0.016 C 
ATOM     31  C   UNL     1      -7.632   2.724  11.677  0.00  0.00    +0.007 C 
ATOM     32  C   UNL     1      -7.633   0.254  11.307  0.00  0.00    +0.007 C 
ENDBRANCH  29  30
ENDBRANCH  28  29
ENDBRANCH  11  28
TORSDOF 5
