REMARK  Name = ZINC01178414
REMARK  6 active torsions:
REMARK  status: ('A' for Active; 'I' for Inactive)
REMARK    1  A    between atoms: C_1  and  C_2
REMARK    2  A    between atoms: C_3  and  C_30
REMARK    3  A    between atoms: C_4  and  C_21
REMARK    4  A    between atoms: C_10  and  C_15
REMARK    5  A    between atoms: C_25  and  N_27
REMARK    6  A    between atoms: N_32  and  C_33
REMARK                            x       y       z     vdW  Elec       q    Type
REMARK                         _______ _______ _______ _____ _____    ______ ____
ROOT
ATOM      1  C   UNL     1       3.720   5.083  -2.464  0.00  0.00    +0.061 C 
ATOM      2  C   UNL     1       3.077   4.580  -1.197  0.00  0.00    +0.014 C 
ATOM      3  C   UNL     1       1.827   4.095  -1.232  0.00  0.00    +0.043 C 
ATOM      4  C   UNL     1       1.156   3.576   0.007  0.00  0.00    +0.090 C 
ATOM      5  C   UNL     1       1.859   4.066   1.248  0.00  0.00    +0.024 C 
ATOM      6  C   UNL     1       3.115   4.558   1.180  0.00  0.00    +0.016 C 
ATOM      7  N   UNL     1       3.772   4.622  -0.019  0.00  0.00    -0.321 N 
ATOM      8  C   UNL     1       3.824   5.053   2.416  0.00  0.00    +0.059 C 
ATOM      9  C   UNL     1       3.337   4.270   3.637  0.00  0.00    +0.032 C 
ATOM     10  C   UNL     1       1.819   4.447   3.754  0.00  0.00    +0.088 C 
ATOM     11  C   UNL     1       1.174   3.994   2.473  0.00  0.00    +0.162 C 
ATOM     12  O   UNL     1       0.039   3.560   2.497  0.00  0.00    -0.292 OA
ATOM     13  H   UNL     1       4.869   4.707  -0.031  0.00  0.00    +0.152 HD
ENDROOT
BRANCH   9  14
ATOM     14  C   UNL     1       4.006   4.800   4.879  0.00  0.00    -0.044 A 
ATOM     15  C   UNL     1       3.858   6.128   5.230  0.00  0.00    +0.004 A 
ATOM     16  C   UNL     1       4.468   6.614   6.371  0.00  0.00    +0.000 A 
ATOM     17  C   UNL     1       5.234   5.772   7.157  0.00  0.00    +0.000 A 
ATOM     18  C   UNL     1       5.386   4.445   6.803  0.00  0.00    +0.000 A 
ATOM     19  C   UNL     1       4.772   3.958   5.664  0.00  0.00    +0.004 A 
ENDBRANCH   9  14
BRANCH   4  20
ATOM     20  C   UNL     1       1.179   2.069  -0.012  0.00  0.00    -0.033 A 
ATOM     21  C   UNL     1       2.387   1.397  -0.036  0.00  0.00    +0.005 A 
ATOM     22  C   UNL     1       2.408   0.015  -0.054  0.00  0.00    +0.003 A 
ATOM     23  C   UNL     1       1.222  -0.695  -0.049  0.00  0.00    +0.033 A 
ATOM     24  C   UNL     1       0.014  -0.022  -0.025  0.00  0.00    +0.126 A 
ATOM     25  C   UNL     1      -0.007   1.360  -0.007  0.00  0.00    +0.037 A 
BRANCH  24  26
ATOM     26  N   UNL     1      -1.256  -0.782  -0.019  0.00  0.00    +0.056 N 
ATOM     27  O   UNL     1      -2.320  -0.189   0.001  0.00  0.00    -0.126 OA
ATOM     28  O   UNL     1      -1.238  -2.000  -0.035  0.00  0.00    -0.126 OA
ENDBRANCH  24  26
ENDBRANCH   4  20
BRANCH   3  29
ATOM     29  C   UNL     1       1.126   4.071  -2.462  0.00  0.00    +0.247 C 
ATOM     30  O   UNL     1       1.659   4.489  -3.474  0.00  0.00    -0.270 OA
ATOM     31  N   UNL     1      -0.130   3.586  -2.513  0.00  0.00    -0.282 N 
ATOM     32  H   UNL     1      -0.584   3.139  -1.616  0.00  0.00    +0.155 HD
BRANCH  31  33
ATOM     33  C   UNL     1      -0.858   3.651  -3.707  0.00  0.00    +0.034 A 
ATOM     34  C   UNL     1      -2.230   3.861  -3.675  0.00  0.00    +0.026 A 
ATOM     35  C   UNL     1      -2.945   3.930  -4.855  0.00  0.00    +0.040 A 
ATOM     36  C   UNL     1      -2.296   3.778  -6.069  0.00  0.00    +0.124 A 
ATOM     37  C   UNL     1      -0.928   3.562  -6.103  0.00  0.00    +0.040 A 
ATOM     38  C   UNL     1      -0.209   3.498  -4.926  0.00  0.00    +0.026 A 
ATOM     39  F   UNL     1      -2.998   3.841  -7.221  0.00  0.00    -0.205 F 
ENDBRANCH  31  33
ENDBRANCH   3  29
TORSDOF 5
