REMARK  Name = ZINC01641983
REMARK  2 active torsions:
REMARK  status: ('A' for Active; 'I' for Inactive)
REMARK    1  A    between atoms: C_26  and  C_29
REMARK    2  A    between atoms: C_30  and  C_31
REMARK                            x       y       z     vdW  Elec       q    Type
REMARK                         _______ _______ _______ _____ _____    ______ ____
ROOT
ATOM      1  C   UNL     1      -9.072   7.639   4.589  0.00  0.00    +0.001 A 
ATOM      2  C   UNL     1      -7.749   7.751   4.213  0.00  0.00    +0.000 A 
ATOM      3  C   UNL     1      -7.355   7.622   2.885  0.00  0.00    +0.004 A 
ATOM      4  C   UNL     1      -8.345   7.375   1.957  0.00  0.00    -0.035 A 
ATOM      5  C   UNL     1      -9.696   7.258   2.329  0.00  0.00    -0.015 A 
ATOM      6  C   UNL     1     -10.077   7.391   3.668  0.00  0.00    +0.009 A 
ATOM      7  C   UNL     1     -10.505   6.999   1.139  0.00  0.00    -0.015 A 
ATOM      8  C   UNL     1     -11.885   6.811   1.010  0.00  0.00    +0.009 A 
ATOM      9  C   UNL     1     -12.374   6.580  -0.265  0.00  0.00    +0.001 A 
ATOM     10  C   UNL     1     -11.545   6.534  -1.367  0.00  0.00    +0.000 A 
ATOM     11  C   UNL     1     -10.171   6.718  -1.255  0.00  0.00    +0.004 A 
ATOM     12  C   UNL     1      -9.670   6.950   0.009  0.00  0.00    -0.035 A 
ATOM     13  C   UNL     1      -8.261   7.187   0.470  0.00  0.00    +0.087 C 
ATOM     14  C   UNL     1      -7.704   8.427  -0.177  0.00  0.00    +0.240 C 
ATOM     15  O   UNL     1      -8.463   9.298  -0.554  0.00  0.00    -0.274 OA
ATOM     16  N   UNL     1      -6.389   8.583  -0.342  0.00  0.00    -0.150 NA
ATOM     17  C   UNL     1      -5.594   7.570  -0.001  0.00  0.00    +0.202 C 
ATOM     18  N   UNL     1      -4.239   7.557   0.063  0.00  0.00    -0.111 NA
ATOM     19  N   UNL     1      -3.806   6.251   0.278  0.00  0.00    -0.156 N 
ATOM     20  C   UNL     1      -4.995   5.504   0.751  0.00  0.00    +0.279 C 
ATOM     21  N   UNL     1      -6.106   6.334   0.309  0.00  0.00    -0.314 N 
ATOM     22  N   UNL     1      -7.426   6.016   0.160  0.00  0.00    +0.412 N 
ATOM     23  N   UNL     1      -4.962   4.200   0.077  0.00  0.00    -0.231 N 
ATOM     24  N   UNL     1      -3.732   3.516   0.039  0.00  0.00    -0.179 NA
ATOM     25  C   UNL     1      -2.596   4.182   0.037  0.00  0.00    +0.145 C 
ATOM     26  C   UNL     1      -2.619   5.664   0.051  0.00  0.00    +0.287 C 
ATOM     27  O   UNL     1      -1.611   6.319  -0.138  0.00  0.00    -0.267 OA
ATOM     28  H   UNL     1      -7.680   5.192   0.845  0.00  0.00    -0.052 HD
ATOM     29  H   UNL     1      -5.759   3.824  -0.328  0.00  0.00    +0.172 HD
ATOM     30  H   UNL     1      -7.609   5.699  -0.877  0.00  0.00    -0.052 HD
ENDROOT
BRANCH  25  31
ATOM     31  C   UNL     1      -1.315   3.461   0.027  0.00  0.00    +0.035 C 
ATOM     32  C   UNL     1      -1.301   2.116   0.020  0.00  0.00    +0.010 C 
BRANCH  32  33
ATOM     33  C   UNL     1      -0.017   1.394   0.010  0.00  0.00    -0.025 A 
ATOM     34  C   UNL     1       1.188   2.103   0.002  0.00  0.00    +0.009 A 
ATOM     35  C   UNL     1       2.386   1.420  -0.013  0.00  0.00    +0.020 A 
ATOM     36  C   UNL     1       2.397   0.035  -0.020  0.00  0.00    +0.041 A 
ATOM     37  C   UNL     1       1.207  -0.674  -0.013  0.00  0.00    +0.020 A 
ATOM     38  C   UNL     1       0.002  -0.004   0.002  0.00  0.00    +0.009 A 
ATOM     39 CL   UNL     1       3.910  -0.817  -0.038  0.00  0.00    -0.084 Cl
ENDBRANCH  32  33
ENDBRANCH  25  31
TORSDOF 2
