REMARK  Name = ZINC67556446
REMARK  6 active torsions:
REMARK  status: ('A' for Active; 'I' for Inactive)
REMARK    1  A    between atoms: C_1  and  C_2
REMARK    2  A    between atoms: C_4  and  C_27
REMARK    3  A    between atoms: C_5  and  N_9
REMARK    4  A    between atoms: C_6  and  C_8
REMARK    5  A    between atoms: C_14  and  C_26
REMARK    6  A    between atoms: C_17  and  C_20
REMARK                            x       y       z     vdW  Elec       q    Type
REMARK                         _______ _______ _______ _____ _____    ______ ____
ROOT
ATOM      1  N   UNL     1      -0.227  -4.173  -0.207  0.00  0.00    -0.269 N 
ATOM      2  C   UNL     1      -0.163  -4.894   0.930  0.00  0.00    +0.307 C 
ATOM      3  O   UNL     1       0.071  -4.341   1.987  0.00  0.00    -0.252 OA
ATOM      4  N   UNL     1      -0.358  -6.227   0.895  0.00  0.00    -0.280 N 
ATOM      5  C   UNL     1      -0.529  -6.934  -0.384  0.00  0.00    +0.140 C 
ATOM      6  C   UNL     1      -1.786  -7.806  -0.290  0.00  0.00    +0.133 C 
ATOM      7  O   UNL     1      -1.707  -8.622   0.881  0.00  0.00    -0.366 OA
ATOM      8  C   UNL     1      -1.670  -7.886   2.106  0.00  0.00    +0.166 C 
ATOM      9  C   UNL     1      -0.401  -7.019   2.135  0.00  0.00    +0.145 C 
ATOM     10  C   UNL     1      -3.024  -6.910  -0.207  0.00  0.00    +0.039 C 
ATOM     11  H   UNL     1      -0.332  -4.623  -1.060  0.00  0.00    +0.156 HD
ENDROOT
BRANCH   1  16
ATOM     12  C   UNL     1       0.121   1.486  -0.005  0.00  0.00    +0.044 C 
ATOM     13  C   UNL     1       0.029  -0.018  -0.059  0.00  0.00    -0.050 A 
ATOM     14  C   UNL     1       1.051  -0.791   0.460  0.00  0.00    +0.008 A 
ATOM     15  C   UNL     1       0.969  -2.169   0.413  0.00  0.00    -0.029 A 
ATOM     16  C   UNL     1      -0.141  -2.778  -0.157  0.00  0.00    +0.041 A 
ATOM     17  C   UNL     1      -1.166  -1.998  -0.677  0.00  0.00    -0.029 A 
ATOM     18  C   UNL     1      -1.081  -0.621  -0.622  0.00  0.00    +0.008 A 
ATOM     19  C   UNL     1      -2.373  -2.655  -1.297  0.00  0.00    +0.045 C 
ATOM     20  C   UNL     1       2.084  -3.010   0.978  0.00  0.00    +0.045 C 
ENDBRANCH   1  16
BRANCH   8  21
ATOM     21  C   UNL     1      -1.650  -8.844   3.269  0.00  0.00    -0.017 A 
ATOM     22  C   UNL     1      -0.889  -9.996   3.203  0.00  0.00    +0.006 A 
ATOM     23  C   UNL     1      -0.871 -10.875   4.270  0.00  0.00    +0.000 A 
ATOM     24  C   UNL     1      -1.614 -10.602   5.403  0.00  0.00    +0.000 A 
ATOM     25  C   UNL     1      -2.375  -9.449   5.470  0.00  0.00    +0.000 A 
ATOM     26  C   UNL     1      -2.389  -8.568   4.404  0.00  0.00    +0.006 A 
ENDBRANCH   8  21
TORSDOF 2
