REMARK  Name = ZINC09705888
REMARK  7 active torsions:
REMARK  status: ('A' for Active; 'I' for Inactive)
REMARK    1  A    between atoms: C_1  and  C_2
REMARK    2  A    between atoms: C_7  and  N_8
REMARK    3  A    between atoms: C_9  and  C_11
REMARK    4  A    between atoms: C_12  and  N_20
REMARK    5  A    between atoms: C_21  and  C_23
REMARK    6  A    between atoms: N_25  and  C_26
REMARK    7  A    between atoms: C_26  and  C_27
REMARK                            x       y       z     vdW  Elec       q    Type
REMARK                         _______ _______ _______ _____ _____    ______ ____
ROOT
ATOM      1  C   UNL     1      -5.804   5.282  -5.618  0.00  0.00    +0.212 A 
ATOM      2  C   UNL     1      -6.172   5.957  -4.486  0.00  0.00    +0.093 A 
ATOM      3  C   UNL     1      -7.210   6.907  -4.905  0.00  0.00    +0.042 A 
ATOM      4  C   UNL     1      -7.969   7.870  -4.239  0.00  0.00    +0.013 A 
ATOM      5  C   UNL     1      -8.875   8.620  -4.937  0.00  0.00    +0.001 A 
ATOM      6  C   UNL     1      -9.038   8.433  -6.302  0.00  0.00    +0.004 A 
ATOM      7  C   UNL     1      -8.294   7.491  -6.978  0.00  0.00    +0.047 A 
ATOM      8  C   UNL     1      -7.367   6.717  -6.288  0.00  0.00    +0.138 A 
ATOM      9  O   UNL     1      -6.517   5.742  -6.670  0.00  0.00    -0.448 OA
ENDROOT
BRANCH   1  11
ATOM     10  N   UNL     1      -4.441   3.702  -6.871  0.00  0.00    -0.279 N 
ATOM     11  C   UNL     1      -4.794   4.227  -5.681  0.00  0.00    +0.285 C 
ATOM     12  O   UNL     1      -4.272   3.823  -4.658  0.00  0.00    -0.266 OA
ATOM     13  H   UNL     1      -4.910   3.968  -7.677  0.00  0.00    +0.155 HD
BRANCH  10  20
ATOM     14  C   UNL     1      -4.404   1.891  -9.065  0.00  0.00    +0.045 C 
ATOM     15  C   UNL     1      -3.341   1.871  -7.997  0.00  0.00    -0.029 A 
ATOM     16  C   UNL     1      -2.309   0.956  -8.066  0.00  0.00    +0.005 A 
ATOM     17  C   UNL     1      -1.333   0.937  -7.087  0.00  0.00    +0.000 A 
ATOM     18  C   UNL     1      -1.386   1.835  -6.036  0.00  0.00    +0.002 A 
ATOM     19  C   UNL     1      -2.412   2.756  -5.965  0.00  0.00    +0.023 A 
ATOM     20  C   UNL     1      -3.397   2.774  -6.944  0.00  0.00    +0.037 A 
ENDBRANCH  10  20
ENDBRANCH   1  11
BRANCH   2  21
ATOM     21  N   UNL     1      -5.671   5.776  -3.204  0.00  0.00    -0.274 N 
ATOM     22  C   UNL     1      -5.704   6.791  -2.318  0.00  0.00    +0.303 C 
ATOM     23  O   UNL     1      -6.108   7.883  -2.661  0.00  0.00    -0.265 OA
ATOM     24  H   UNL     1      -5.298   4.918  -2.946  0.00  0.00    +0.155 HD
BRANCH  22  25
ATOM     25  C   UNL     1      -5.242   6.573  -0.915  0.00  0.00    +0.300 C 
ATOM     26  O   UNL     1      -4.837   5.481  -0.572  0.00  0.00    -0.265 OA
ATOM     27  N   UNL     1      -5.274   7.588  -0.029  0.00  0.00    -0.303 N 
ATOM     28  H   UNL     1      -5.597   8.461  -0.303  0.00  0.00    +0.149 HD
BRANCH  27  29
ATOM     29  C   UNL     1      -4.821   7.374   1.347  0.00  0.00    +0.140 C 
BRANCH  29  30
ATOM     30  C   UNL     1      -4.959   8.657   2.127  0.00  0.00    -0.027 A 
ATOM     31  C   UNL     1      -3.920   9.574   2.173  0.00  0.00    +0.025 A 
ATOM     32  C   UNL     1      -4.081  10.737   2.902  0.00  0.00    +0.111 A 
ATOM     33  N   UNL     1      -5.209  10.983   3.539  0.00  0.00    -0.263 NA
ATOM     34  C   UNL     1      -6.219  10.136   3.513  0.00  0.00    +0.111 A 
ATOM     35  C   UNL     1      -6.129   8.950   2.809  0.00  0.00    +0.025 A 
ENDBRANCH  29  30
ENDBRANCH  27  29
ENDBRANCH  22  25
ENDBRANCH   2  21
TORSDOF 6
