REMARK  Name = ZINC33959555
REMARK  11 active torsions:
REMARK  status: ('A' for Active; 'I' for Inactive)
REMARK    1  A    between atoms: C_4  and  C_7
REMARK    2  A    between atoms: N_9  and  C_10
REMARK    3  A    between atoms: C_10  and  C_11
REMARK    4  A    between atoms: C_11  and  C_12
REMARK    5  A    between atoms: C_12  and  C_13
REMARK    6  A    between atoms: C_13  and  C_14
REMARK    7  A    between atoms: C_14  and  C_16
REMARK    8  A    between atoms: C_14  and  N_30
REMARK    9  A    between atoms: N_18  and  N_19
REMARK   10  A    between atoms: C_20  and  C_21
REMARK   11  A    between atoms: C_26  and  N_27
REMARK                            x       y       z     vdW  Elec       q    Type
REMARK                         _______ _______ _______ _____ _____    ______ ____
ROOT
ATOM      1  C   UNL     1       7.029  -7.168  -0.006  0.00  0.00    +0.021 C 
ENDROOT
BRANCH   1   2
ATOM      2  N   UNL     1       7.609  -6.892   1.315  0.00  0.00    +0.387 N 
ATOM      3  C   UNL     1       7.601  -5.444   1.558  0.00  0.00    -0.078 C 
ATOM      4  C   UNL     1       8.129  -5.156   2.965  0.00  0.00    -0.019 C 
ATOM      5  C   UNL     1       9.559  -5.688   3.087  0.00  0.00    -0.004 C 
ATOM      6  C   UNL     1       9.567  -7.184   2.759  0.00  0.00    -0.019 C 
ATOM      7  C   UNL     1       8.986  -7.397   1.359  0.00  0.00    -0.078 C 
ATOM      8  H   UNL     1       7.060  -7.353   2.025  0.00  0.00    -0.081 HD
ENDBRANCH   1   2
BRANCH   1   9
ATOM      9  C   UNL     1       6.917  -8.658  -0.203  0.00  0.00    +0.219 C 
ATOM     10  O   UNL     1       6.929  -9.399   0.757  0.00  0.00    -0.276 OA
ATOM     11  N   UNL     1       6.803  -9.166  -1.446  0.00  0.00    -0.208 N 
ATOM     12  H   UNL     1       6.793  -8.573  -2.214  0.00  0.00    +0.177 HD
BRANCH  11  13
ATOM     13  N   UNL     1       6.698 -10.551  -1.629  0.00  0.00    -0.188 NA
ATOM     14  C   UNL     1       6.588 -11.041  -2.826  0.00  0.00    +0.140 C 
BRANCH  14  15
ATOM     15  C   UNL     1       6.477 -12.499  -3.019  0.00  0.00    +0.025 A 
ATOM     16  C   UNL     1       6.615 -13.364  -1.930  0.00  0.00    +0.012 A 
ATOM     17  C   UNL     1       6.510 -14.726  -2.118  0.00  0.00    +0.001 A 
ATOM     18  C   UNL     1       6.270 -15.237  -3.381  0.00  0.00    +0.002 A 
ATOM     19  C   UNL     1       6.134 -14.387  -4.464  0.00  0.00    +0.033 A 
ATOM     20  C   UNL     1       6.229 -13.022  -4.290  0.00  0.00    +0.135 A 
BRANCH  20  21
ATOM     21  N   UNL     1       6.076 -12.113  -5.449  0.00  0.00    +0.057 N 
ATOM     22  O   UNL     1       5.752 -12.557  -6.526  0.00  0.00    -0.126 OA
ATOM     23  O   UNL     1       6.274 -10.928  -5.318  0.00  0.00    -0.126 OA
ENDBRANCH  20  21
ENDBRANCH  14  15
ENDBRANCH  11  13
ENDBRANCH   1   9
BRANCH   1  24
ATOM     24  C   UNL     1       5.640  -6.535  -0.096  0.00  0.00    -0.006 C 
BRANCH  24  25
ATOM     25  C   UNL     1       4.758  -7.077   1.031  0.00  0.00    +0.000 C 
BRANCH  25  26
ATOM     26  C   UNL     1       3.408  -6.358   1.013  0.00  0.00    +0.019 C 
BRANCH  26  27
ATOM     27  C   UNL     1       2.526  -6.900   2.140  0.00  0.00    +0.104 C 
BRANCH  27  30
ATOM     28  C   UNL     1       0.290  -6.527   3.032  0.00  0.00    +0.244 C 
ATOM     29  O   UNL     1       0.512  -7.383   3.866  0.00  0.00    -0.270 OA
ATOM     30  N   UNL     1       1.233  -6.212   2.123  0.00  0.00    -0.311 N 
ATOM     31  H   UNL     1       1.056  -5.529   1.457  0.00  0.00    +0.149 HD
BRANCH  28  35
ATOM     32  C   UNL     1      -3.459  -4.531   2.982  0.00  0.00    +0.000 A 
ATOM     33  C   UNL     1      -3.210  -5.505   3.933  0.00  0.00    +0.001 A 
ATOM     34  C   UNL     1      -1.995  -6.157   3.954  0.00  0.00    +0.013 A 
ATOM     35  C   UNL     1      -1.015  -5.833   3.014  0.00  0.00    +0.037 A 
ATOM     36  C   UNL     1      -1.273  -4.849   2.058  0.00  0.00    +0.013 A 
ATOM     37  C   UNL     1      -2.493  -4.205   2.048  0.00  0.00    +0.001 A 
ENDBRANCH  28  35
ENDBRANCH  27  30
ENDBRANCH  26  27
ENDBRANCH  25  26
ENDBRANCH  24  25
ENDBRANCH   1  24
TORSDOF 11
