REMARK  Name = ZINC64505234
REMARK  2 active torsions:
REMARK  status: ('A' for Active; 'I' for Inactive)
REMARK    1  A    between atoms: C_4  and  C_7
REMARK    2  A    between atoms: C_10  and  C_14
REMARK                            x       y       z     vdW  Elec       q    Type
REMARK                         _______ _______ _______ _____ _____    ______ ____
ROOT
ATOM      1  C   UNL     1       3.711  -0.707  -0.038  0.00  0.00    +0.180 C 
ATOM      2  N   UNL     1       3.584  -1.988  -0.783  0.00  0.00    -0.265 NA
ATOM      3  C   UNL     1       4.978  -2.243  -1.231  0.00  0.00    +0.247 C 
ATOM      4  O   UNL     1       5.501  -0.945  -1.566  0.00  0.00    -0.274 OA
ATOM      5  N   UNL     1       4.723   0.051  -0.811  0.00  0.00    -0.177 NA
ATOM      6  H   UNL     1       3.258  -2.727  -0.179  0.00  0.00    +0.127 HD
ATOM      7  H   UNL     1       5.317   0.590  -0.198  0.00  0.00    +0.156 HD
ENDROOT
BRANCH   3   8
ATOM      8  C   UNL     1       4.984  -3.142  -2.441  0.00  0.00    +0.061 A 
ATOM      9  H   UNL     1       2.916  -4.390  -4.591  0.00  0.00    +0.165 HD
ATOM     10  C   UNL     1       3.829  -3.420  -3.079  0.00  0.00    +0.094 A 
ATOM     11  N   UNL     1       3.774  -4.221  -4.170  0.00  0.00    -0.360 N 
ATOM     12  C   UNL     1       4.905  -4.803  -4.696  0.00  0.00    +0.050 A 
ATOM     13  C   UNL     1       4.838  -5.625  -5.818  0.00  0.00    +0.026 A 
ATOM     14  C   UNL     1       5.989  -6.191  -6.319  0.00  0.00    +0.002 A 
ATOM     15  C   UNL     1       7.217  -5.952  -5.718  0.00  0.00    +0.001 A 
ATOM     16  C   UNL     1       7.306  -5.148  -4.615  0.00  0.00    +0.014 A 
ATOM     17  C   UNL     1       6.152  -4.565  -4.092  0.00  0.00    +0.045 A 
ATOM     18  C   UNL     1       6.202  -3.688  -2.909  0.00  0.00    +0.196 A 
ATOM     19  O   UNL     1       7.259  -3.444  -2.349  0.00  0.00    -0.287 OA
ENDBRANCH   3   8
BRANCH   1  23
ATOM     20  C   UNL     1      -0.017   1.378   0.010  0.00  0.00    +0.000 A 
ATOM     21  C   UNL     1       1.171   2.086   0.002  0.00  0.00    +0.000 A 
ATOM     22  C   UNL     1       2.377   1.411  -0.013  0.00  0.00    +0.006 A 
ATOM     23  C   UNL     1       2.396   0.029  -0.020  0.00  0.00    -0.014 A 
ATOM     24  C   UNL     1       1.208  -0.679  -0.012  0.00  0.00    +0.006 A 
ATOM     25  C   UNL     1       0.002  -0.004   0.002  0.00  0.00    +0.000 A 
ENDBRANCH   1  23
TORSDOF 2
