REMARK  Name = ZINC17877683
REMARK  14 active torsions:
REMARK  status: ('A' for Active; 'I' for Inactive)
REMARK    1  A    between atoms: C_1  and  C_2
REMARK    2  A    between atoms: C_2  and  N_3
REMARK    3  A    between atoms: C_2  and  C_39
REMARK    4  A    between atoms: N_7  and  N_8
REMARK    5  A    between atoms: C_9  and  C_11
REMARK    6  A    between atoms: C_11  and  C_12
REMARK    7  A    between atoms: C_12  and  C_13
REMARK    8  A    between atoms: C_13  and  C_14
REMARK    9  A    between atoms: C_14  and  C_15
REMARK   10  A    between atoms: C_15  and  C_16
REMARK   11  A    between atoms: N_18  and  N_19
REMARK   12  A    between atoms: N_23  and  C_30
REMARK   13  A    between atoms: C_30  and  C_31
REMARK   14  A    between atoms: C_30  and  C_32
REMARK                            x       y       z     vdW  Elec       q    Type
REMARK                         _______ _______ _______ _____ _____    ______ ____
ROOT
ATOM      1  C   UNL     1      -1.675   1.112   9.726  0.00  0.00    +0.001 C 
ENDROOT
BRANCH   1   2
ATOM      2  C   UNL     1      -0.577   0.366   8.966  0.00  0.00    +0.009 C 
BRANCH   2   3
ATOM      3  C   UNL     1      -0.801   0.523   7.460  0.00  0.00    +0.097 C 
BRANCH   3   5
ATOM      4  N   UNL     1       0.286  -0.211   5.364  0.00  0.00    -0.206 N 
ATOM      5  C   UNL     1       0.280  -0.211   6.712  0.00  0.00    +0.232 C 
ATOM      6  O   UNL     1       1.146  -0.802   7.321  0.00  0.00    -0.274 OA
ATOM      7  H   UNL     1      -0.406   0.262   4.876  0.00  0.00    +0.177 HD
BRANCH   4  12
ATOM      8  N   UNL     1       0.711  -0.489   1.189  0.00  0.00    -0.263 N 
ATOM      9  C   UNL     1       0.332  -0.235   2.453  0.00  0.00    +0.272 C 
ATOM     10  O   UNL     1      -0.634   0.421   2.793  0.00  0.00    -0.268 OA
ATOM     11  C   UNL     1       1.297  -0.894   3.357  0.00  0.00    +0.153 C 
ATOM     12  N   UNL     1       1.292  -0.894   4.667  0.00  0.00    -0.175 NA
ATOM     13  C   UNL     1       2.272  -1.555   2.458  0.00  0.00    +0.028 A 
ATOM     14  C   UNL     1       1.856  -1.276   1.150  0.00  0.00    +0.046 A 
ATOM     15  C   UNL     1       2.593  -1.783   0.085  0.00  0.00    +0.024 A 
ATOM     16  C   UNL     1       3.714  -2.554   0.322  0.00  0.00    +0.002 A 
ATOM     17  C   UNL     1       4.118  -2.831   1.616  0.00  0.00    +0.001 A 
ATOM     18  C   UNL     1       3.405  -2.327   2.687  0.00  0.00    +0.012 A 
BRANCH   8  20
ATOM     19  C   UNL     1      -0.019   1.526   0.010  0.00  0.00    +0.028 C 
ATOM     20  C   UNL     1       0.002  -0.004   0.002  0.00  0.00    +0.076 C 
ATOM     21  C   UNL     1      -1.433  -0.534   0.013  0.00  0.00    +0.028 C 
ENDBRANCH   8  20
ENDBRANCH   4  12
ENDBRANCH   3   5
ENDBRANCH   2   3
ENDBRANCH   1   2
BRANCH   1  22
ATOM     22  C   UNL     1      -1.450   0.954  11.231  0.00  0.00    +0.009 C 
BRANCH  22  23
ATOM     23  C   UNL     1      -2.548   1.700  11.992  0.00  0.00    +0.097 C 
BRANCH  23  24
ATOM     24  C   UNL     1      -2.327   1.545  13.474  0.00  0.00    +0.232 C 
ATOM     25  O   UNL     1      -1.384   0.902  13.883  0.00  0.00    -0.274 OA
ATOM     26  N   UNL     1      -3.177   2.122  14.347  0.00  0.00    -0.206 N 
ATOM     27  H   UNL     1      -3.932   2.636  14.020  0.00  0.00    +0.177 HD
BRANCH  26  28
ATOM     28  N   UNL     1      -2.971   1.978  15.725  0.00  0.00    -0.175 NA
ATOM     29  C   UNL     1      -3.798   2.538  16.573  0.00  0.00    +0.153 C 
ATOM     30  C   UNL     1      -4.995   3.346  16.263  0.00  0.00    +0.272 C 
ATOM     31  O   UNL     1      -5.405   3.621  15.150  0.00  0.00    -0.268 OA
ATOM     32  N   UNL     1      -5.551   3.725  17.426  0.00  0.00    -0.263 N 
ATOM     33  C   UNL     1      -4.832   3.241  18.514  0.00  0.00    +0.046 A 
ATOM     34  C   UNL     1      -3.740   2.494  18.053  0.00  0.00    +0.028 A 
ATOM     35  C   UNL     1      -2.866   1.897  18.954  0.00  0.00    +0.012 A 
ATOM     36  C   UNL     1      -3.080   2.038  20.311  0.00  0.00    +0.001 A 
ATOM     37  C   UNL     1      -4.159   2.772  20.771  0.00  0.00    +0.002 A 
ATOM     38  C   UNL     1      -5.028   3.377  19.884  0.00  0.00    +0.024 A 
BRANCH  32  39
ATOM     39  C   UNL     1      -6.761   4.543  17.535  0.00  0.00    +0.076 C 
ATOM     40  C   UNL     1      -6.528   5.892  16.851  0.00  0.00    +0.028 C 
ATOM     41  C   UNL     1      -7.927   3.822  16.856  0.00  0.00    +0.028 C 
ENDBRANCH  32  39
ENDBRANCH  26  28
ENDBRANCH  23  24
ENDBRANCH  22  23
ENDBRANCH   1  22
TORSDOF 10
