REMARK  Name = ZINC22061345
REMARK  10 active torsions:
REMARK  status: ('A' for Active; 'I' for Inactive)
REMARK    1  A    between atoms: C_1  and  C_2
REMARK    2  A    between atoms: C_4  and  O_41
REMARK    3  A    between atoms: C_6  and  N_40
REMARK    4  A    between atoms: C_9  and  O_12
REMARK    5  A    between atoms: O_12  and  C_13
REMARK    6  A    between atoms: C_16  and  C_36
REMARK    7  A    between atoms: C_16  and  O_39
REMARK    8  A    between atoms: C_20  and  O_35
REMARK    9  A    between atoms: C_23  and  O_24
REMARK   10  A    between atoms: C_36  and  C_38
REMARK                            x       y       z     vdW  Elec       q    Type
REMARK                         _______ _______ _______ _____ _____    ______ ____
ROOT
ATOM      1  C   UNL     1      -0.118  -2.762  -0.077  0.00  0.00    +0.158 C 
ATOM      2  C   UNL     1      -0.714  -2.062   1.142  0.00  0.00    +0.079 C 
ATOM      3  C   UNL     1      -0.024  -0.702   1.302  0.00  0.00    +0.130 C 
ATOM      4  C   UNL     1       1.419  -0.945   1.740  0.00  0.00    +0.082 C 
ATOM      5  C   UNL     1       2.091  -1.939   0.829  0.00  0.00    +0.007 A 
ATOM      6  C   UNL     1       1.387  -2.776   0.002  0.00  0.00    +0.030 A 
ATOM      7  C   UNL     1       2.067  -3.687  -0.820  0.00  0.00    +0.134 A 
ATOM      8  C   UNL     1       3.459  -3.748  -0.809  0.00  0.00    +0.078 A 
ATOM      9  C   UNL     1       4.182  -2.885   0.038  0.00  0.00    +0.078 A 
ATOM     10  C   UNL     1       3.492  -1.987   0.850  0.00  0.00    +0.132 A 
ATOM     11  C   UNL     1       5.654  -2.936   0.062  0.00  0.00    +0.198 C 
ATOM     12  O   UNL     1       6.278  -2.190   0.792  0.00  0.00    -0.286 OA
ATOM     13  C   UNL     1       6.372  -3.896  -0.803  0.00  0.00    +0.033 A 
ATOM     14  C   UNL     1       7.763  -3.953  -0.786  0.00  0.00    +0.012 A 
ATOM     15  C   UNL     1       8.426  -4.855  -1.599  0.00  0.00    +0.001 A 
ATOM     16  C   UNL     1       7.716  -5.701  -2.432  0.00  0.00    +0.001 A 
ATOM     17  C   UNL     1       6.333  -5.658  -2.461  0.00  0.00    +0.012 A 
ATOM     18  C   UNL     1       5.650  -4.757  -1.649  0.00  0.00    +0.033 A 
ATOM     19  C   UNL     1       4.173  -4.704  -1.673  0.00  0.00    +0.198 C 
ATOM     20  O   UNL     1       3.549  -5.448  -2.404  0.00  0.00    -0.286 OA
ENDROOT
BRANCH   3  21
ATOM     21  C   UNL     1      -0.038   0.033  -0.013  0.00  0.00    +0.162 C 
ATOM     22  O   UNL     1       0.911  -0.039  -0.755  0.00  0.00    -0.295 OA
ATOM     23  C   UNL     1      -1.238   0.857  -0.402  0.00  0.00    +0.089 C 
ENDBRANCH   3  21
BRANCH  10  24
ATOM     24  O   UNL     1       4.181  -1.153   1.667  0.00  0.00    -0.506 OA
ATOM     25  H   UNL     1       5.280  -1.186   1.688  0.00  0.00    +0.292 HD
ENDBRANCH  10  24
BRANCH   7  26
ATOM     26  O   UNL     1       1.363  -4.514  -1.632  0.00  0.00    -0.506 OA
ATOM     27  H   UNL     1       1.892  -5.230  -2.278  0.00  0.00    +0.292 HD
ENDBRANCH   7  26
BRANCH   3  28
ATOM     28  O   UNL     1      -0.705   0.070   2.293  0.00  0.00    -0.381 OA
ATOM     29  H   UNL     1      -0.348   1.081   2.544  0.00  0.00    +0.211 HD
ENDBRANCH   3  28
BRANCH   1  30
ATOM     30  O   UNL     1      -0.599  -4.107  -0.130  0.00  0.00    -0.343 OA
BRANCH  30  36
ATOM     31  C   UNL     1      -5.221  -3.044  -0.261  0.00  0.00    +0.040 C 
ATOM     32  C   UNL     1      -4.104  -3.752  -1.032  0.00  0.00    +0.145 C 
ATOM     33  C   UNL     1      -4.475  -5.225  -1.229  0.00  0.00    +0.129 C 
ATOM     34  C   UNL     1      -3.327  -5.940  -1.947  0.00  0.00    -0.039 C 
ATOM     35  C   UNL     1      -2.042  -5.768  -1.131  0.00  0.00    +0.048 C 
ATOM     36  C   UNL     1      -1.766  -4.275  -0.938  0.00  0.00    +0.250 C 
ATOM     37  O   UNL     1      -2.885  -3.664  -0.293  0.00  0.00    -0.346 OA
BRANCH  34  38
ATOM     38  N   UNL     1      -3.641  -7.370  -2.074  0.00  0.00    +0.382 N 
ATOM     39  H   UNL     1      -2.816  -7.882  -2.590  0.00  0.00    -0.090 HD
ATOM     40  H   UNL     1      -4.568  -7.492  -2.653  0.00  0.00    -0.090 HD
ATOM     41  H   UNL     1      -3.775  -7.806  -1.072  0.00  0.00    -0.090 HD
ENDBRANCH  34  38
BRANCH  33  42
ATOM     42  O   UNL     1      -5.663  -5.317  -2.017  0.00  0.00    -0.391 OA
ATOM     43  H   UNL     1      -6.084  -6.303  -2.264  0.00  0.00    +0.210 HD
ENDBRANCH  33  42
ENDBRANCH  30  36
ENDBRANCH   1  30
TORSDOF 8
