REMARK  Name = ZINC63494725
REMARK  9 active torsions:
REMARK  status: ('A' for Active; 'I' for Inactive)
REMARK    1  A    between atoms: C_4  and  C_7
REMARK    2  A    between atoms: C_7  and  C_8
REMARK    3  A    between atoms: C_8  and  N_9
REMARK    4  A    between atoms: C_14  and  C_25
REMARK    5  A    between atoms: C_25  and  C_26
REMARK    6  A    between atoms: C_26  and  C_27
REMARK    7  A    between atoms: N_29  and  C_30
REMARK    8  A    between atoms: C_30  and  C_31
REMARK    9  A    between atoms: C_31  and  C_32
REMARK                            x       y       z     vdW  Elec       q    Type
REMARK                         _______ _______ _______ _____ _____    ______ ____
ROOT
ATOM      1  N   UNL     1       5.450  -1.678   1.382  0.00  0.00    -0.265 N 
ATOM      2  C   UNL     1       5.463  -3.140   1.369  0.00  0.00    +0.253 C 
ATOM      3  N   UNL     1       4.332  -3.708   2.124  0.00  0.00    -0.219 NA
ATOM      4  N   UNL     1       4.901  -4.168   3.401  0.00  0.00    -0.234 NA
ATOM      5  C   UNL     1       6.277  -4.606   3.029  0.00  0.00    +0.159 C 
ATOM      6  N   UNL     1       6.700  -3.594   2.041  0.00  0.00    -0.281 N 
ATOM      7  C   UNL     1       7.933  -3.039   1.765  0.00  0.00    +0.046 A 
ATOM      8  C   UNL     1       9.130  -3.720   1.830  0.00  0.00    +0.024 A 
ATOM      9  C   UNL     1      10.306  -3.064   1.514  0.00  0.00    +0.002 A 
ATOM     10  C   UNL     1      10.287  -1.731   1.133  0.00  0.00    +0.001 A 
ATOM     11  C   UNL     1       9.098  -1.034   1.069  0.00  0.00    +0.015 A 
ATOM     12  C   UNL     1       7.907  -1.676   1.390  0.00  0.00    +0.058 A 
ATOM     13  C   UNL     1       6.608  -0.981   1.373  0.00  0.00    +0.251 C 
ATOM     14  O   UNL     1       6.577   0.235   1.356  0.00  0.00    -0.270 OA
ATOM     15  H   UNL     1       3.909  -4.473   1.620  0.00  0.00    +0.144 HD
ATOM     16  H   UNL     1       4.366  -4.936   3.779  0.00  0.00    +0.143 HD
ENDROOT
BRANCH   1  17
ATOM     17  C   UNL     1       4.171  -0.963   1.399  0.00  0.00    +0.116 C 
BRANCH  17  18
ATOM     18  C   UNL     1       3.711  -0.707  -0.038  0.00  0.00    +0.054 C 
BRANCH  18  22
ATOM     19  C   UNL     1      -0.017   1.378   0.010  0.00  0.00    +0.000 A 
ATOM     20  C   UNL     1       1.171   2.086   0.002  0.00  0.00    +0.000 A 
ATOM     21  C   UNL     1       2.377   1.411  -0.013  0.00  0.00    +0.004 A 
ATOM     22  C   UNL     1       2.396   0.029  -0.020  0.00  0.00    -0.046 A 
ATOM     23  C   UNL     1       1.208  -0.679  -0.012  0.00  0.00    +0.004 A 
ATOM     24  C   UNL     1       0.002  -0.004   0.002  0.00  0.00    +0.000 A 
ENDBRANCH  18  22
ENDBRANCH  17  18
ENDBRANCH   1  17
BRANCH   5  25
ATOM     25  C   UNL     1       7.197  -4.596   4.251  0.00  0.00    +0.049 C 
BRANCH  25  26
ATOM     26  C   UNL     1       6.736  -5.665   5.245  0.00  0.00    +0.099 C 
BRANCH  26  27
ATOM     27  C   UNL     1       7.643  -5.655   6.449  0.00  0.00    +0.213 C 
ATOM     28  O   UNL     1       8.566  -4.871   6.507  0.00  0.00    -0.276 OA
ATOM     29  N   UNL     1       7.427  -6.519   7.461  0.00  0.00    -0.315 N 
ATOM     30  H   UNL     1       6.689  -7.146   7.415  0.00  0.00    +0.149 HD
BRANCH  29  31
ATOM     31  C   UNL     1       8.308  -6.509   8.632  0.00  0.00    +0.108 C 
BRANCH  31  32
ATOM     32  C   UNL     1       7.848  -7.578   9.625  0.00  0.00    +0.052 C 
BRANCH  32  33
ATOM     33  C   UNL     1       8.754  -7.569  10.829  0.00  0.00    -0.040 C 
ATOM     34  C   UNL     1       8.548  -6.917  11.996  0.00  0.00    -0.001 A 
ATOM     35  C   UNL     1       7.461  -6.055  12.476  0.00  0.00    +0.010 A 
ATOM     36  C   UNL     1       7.538  -5.535  13.722  0.00  0.00    +0.001 A 
ATOM     37  C   UNL     1       8.627  -5.797  14.565  0.00  0.00    +0.002 A 
ATOM     38  C   UNL     1       9.663  -6.580  14.195  0.00  0.00    +0.026 A 
ATOM     39  C   UNL     1       9.686  -7.179  12.906  0.00  0.00    +0.043 A 
ATOM     40  N   UNL     1      10.562  -7.962  12.323  0.00  0.00    -0.380 N 
ATOM     41  C   UNL     1      10.074  -8.290  10.979  0.00  0.00    +0.144 C 
ATOM     42  H   UNL     1      11.391  -8.275  12.717  0.00  0.00    +0.160 HD
ENDBRANCH  32  33
ENDBRANCH  31  32
ENDBRANCH  29  31
ENDBRANCH  26  27
ENDBRANCH  25  26
ENDBRANCH   5  25
TORSDOF 9
