REMARK  Name = ZINC63926162
REMARK  9 active torsions:
REMARK  status: ('A' for Active; 'I' for Inactive)
REMARK    1  A    between atoms: C_7  and  C_10
REMARK    2  A    between atoms: C_10  and  C_11
REMARK    3  A    between atoms: C_11  and  N_12
REMARK    4  A    between atoms: C_13  and  C_15
REMARK    5  A    between atoms: C_15  and  S_16
REMARK    6  A    between atoms: S_16  and  C_17
REMARK    7  A    between atoms: C_21  and  C_30
REMARK    8  A    between atoms: N_22  and  C_23
REMARK    9  A    between atoms: C_23  and  C_24
REMARK                            x       y       z     vdW  Elec       q    Type
REMARK                         _______ _______ _______ _____ _____    ______ ____
ROOT
ATOM      1  S   UNL     1      -2.029  -7.112  -4.326  0.00  0.00    -0.109 S 
ENDROOT
BRANCH   1   2
ATOM      2  C   UNL     1      -3.167  -8.514  -4.152  0.00  0.00    +0.237 C 
ATOM      3  N   UNL     1      -4.387  -8.103  -3.438  0.00  0.00    -0.237 N 
ATOM      4  N   UNL     1      -4.439  -8.874  -2.271  0.00  0.00    -0.168 NA
ATOM      5  C   UNL     1      -3.430  -9.681  -2.190  0.00  0.00    +0.155 C 
ATOM      6  N   UNL     1      -2.578  -9.553  -3.290  0.00  0.00    -0.282 N 
ATOM      7  H   UNL     1      -5.027  -7.431  -3.720  0.00  0.00    +0.171 HD
BRANCH   5   8
ATOM      8  C   UNL     1      -3.207 -10.617  -1.077  0.00  0.00    +0.054 A 
ATOM      9  C   UNL     1      -3.973 -10.830   0.041  0.00  0.00    +0.019 A 
ATOM     10  C   UNL     1      -3.559 -11.770   0.957  0.00  0.00    +0.008 A 
ATOM     11  C   UNL     1      -2.409 -12.456   0.729  0.00  0.00    +0.046 A 
ATOM     12  S   UNL     1      -1.872 -11.778  -0.833  0.00  0.00    -0.094 S 
ENDBRANCH   5   8
BRANCH   6  13
ATOM     13  C   UNL     1      -1.343 -10.301  -3.538  0.00  0.00    +0.140 C 
BRANCH  13  14
ATOM     14  C   UNL     1      -0.160  -9.552  -2.922  0.00  0.00    +0.136 C 
ATOM     15  C   UNL     1       1.159 -10.269  -3.282  0.00  0.00    +0.035 C 
ATOM     16  C   UNL     1       1.972 -10.145  -1.964  0.00  0.00    +0.031 C 
ATOM     17  C   UNL     1       0.839 -10.241  -0.911  0.00  0.00    +0.160 C 
ATOM     18  O   UNL     1      -0.277  -9.547  -1.495  0.00  0.00    -0.375 OA
ENDBRANCH  13  14
ENDBRANCH   6  13
ENDBRANCH   1   2
BRANCH   1  19
ATOM     19  C   UNL     1      -1.752  -6.557  -2.622  0.00  0.00    +0.168 C 
BRANCH  19  21
ATOM     20  N   UNL     1      -0.458  -4.798  -1.460  0.00  0.00    -0.314 N 
ATOM     21  C   UNL     1      -0.811  -5.380  -2.623  0.00  0.00    +0.223 C 
ATOM     22  O   UNL     1      -0.371  -4.957  -3.671  0.00  0.00    -0.275 OA
ATOM     23  H   UNL     1      -0.810  -5.136  -0.622  0.00  0.00    +0.149 HD
BRANCH  20  24
ATOM     24  C   UNL     1       0.457  -3.653  -1.462  0.00  0.00    +0.108 C 
BRANCH  24  25
ATOM     25  C   UNL     1       0.691  -3.186  -0.024  0.00  0.00    +0.052 C 
BRANCH  25  32
ATOM     26  C   UNL     1      -0.016   1.348   0.009  0.00  0.00    +0.001 A 
ATOM     27  C   UNL     1       1.166   2.101   0.002  0.00  0.00    +0.002 A 
ATOM     28  C   UNL     1       2.391   1.535  -0.013  0.00  0.00    +0.026 A 
ATOM     29  C   UNL     1       2.529   0.120  -0.022  0.00  0.00    +0.043 A 
ATOM     30  N   UNL     1       3.587  -0.654  -0.037  0.00  0.00    -0.380 N 
ATOM     31  C   UNL     1       3.143  -2.053  -0.041  0.00  0.00    +0.144 C 
ATOM     32  C   UNL     1       1.631  -2.008  -0.025  0.00  0.00    -0.040 C 
ATOM     33  C   UNL     1       1.295  -0.698  -0.014  0.00  0.00    -0.001 A 
ATOM     34  C   UNL     1       0.002  -0.004   0.002  0.00  0.00    +0.010 A 
ATOM     35  H   UNL     1       4.509  -0.353  -0.045  0.00  0.00    +0.160 HD
ENDBRANCH  25  32
ENDBRANCH  24  25
ENDBRANCH  20  24
ENDBRANCH  19  21
ENDBRANCH   1  19
TORSDOF 9
