REMARK  Name = ZINC21792883
REMARK  4 active torsions:
REMARK  status: ('A' for Active; 'I' for Inactive)
REMARK    1  A    between atoms: C_1  and  C_2
REMARK    2  A    between atoms: C_2  and  C_4
REMARK    3  A    between atoms: C_2  and  N_14
REMARK    4  A    between atoms: N_14  and  C_15
REMARK                            x       y       z     vdW  Elec       q    Type
REMARK                         _______ _______ _______ _____ _____    ______ ____
ROOT
ATOM      1  C   UNL     1      -0.758   1.968  -1.230  0.00  0.00    +0.036 C 
ATOM      2  C   UNL     1      -0.018   1.461   0.010  0.00  0.00    +0.133 C 
ENDROOT
BRANCH   2   3
ATOM      3  C   UNL     1      -0.723   1.947   1.250  0.00  0.00    +0.126 A 
ATOM      4  C   UNL     1      -0.340   2.997   1.988  0.00  0.00    +0.055 A 
ATOM      5  C   UNL     1      -1.310   3.101   3.086  0.00  0.00    +0.022 A 
ATOM      6  C   UNL     1      -1.465   3.964   4.170  0.00  0.00    +0.027 A 
ATOM      7  C   UNL     1      -2.517   3.780   5.041  0.00  0.00    +0.019 A 
ATOM      8  C   UNL     1      -3.417   2.741   4.841  0.00  0.00    +0.019 A 
ATOM      9  C   UNL     1      -3.274   1.882   3.773  0.00  0.00    +0.048 A 
ATOM     10  C   UNL     1      -2.220   2.051   2.883  0.00  0.00    +0.135 A 
ATOM     11  O   UNL     1      -1.831   1.393   1.772  0.00  0.00    -0.458 OA
ATOM     12 BR   UNL     1      -2.736   4.945   6.514  0.00  0.00    -0.050 Br
ENDBRANCH   2   3
BRANCH   2  13
ATOM     13  N   UNL     1       0.002  -0.004   0.002  0.00  0.00    -0.333 N 
ATOM     14  H   UNL     1      -0.765  -0.568   0.553  0.00  0.00    +0.147 HD
BRANCH  13  15
ATOM     15  C   UNL     1       0.996  -0.685  -0.705  0.00  0.00    +0.048 A 
ATOM     16  C   UNL     1       1.966   0.024  -1.401  0.00  0.00    +0.044 A 
ATOM     17  C   UNL     1       2.948  -0.653  -2.100  0.00  0.00    +0.043 A 
ATOM     18  C   UNL     1       2.965  -2.037  -2.106  0.00  0.00    +0.021 A 
ATOM     19  C   UNL     1       2.001  -2.746  -1.414  0.00  0.00    +0.023 A 
ATOM     20  C   UNL     1       1.020  -2.075  -0.709  0.00  0.00    +0.062 A 
ATOM     21 CL   UNL     1      -0.186  -2.967   0.165  0.00  0.00    -0.082 Cl
ATOM     22 CL   UNL     1       4.160   0.234  -2.970  0.00  0.00    -0.083 Cl
ENDBRANCH  13  15
ENDBRANCH   2  13
TORSDOF 3
