REMARK  Name = ZINC22203637
REMARK  7 active torsions:
REMARK  status: ('A' for Active; 'I' for Inactive)
REMARK    1  A    between atoms: C_4  and  C_7
REMARK    2  A    between atoms: C_7  and  C_9
REMARK    3  A    between atoms: C_7  and  O_21
REMARK    4  A    between atoms: C_9  and  C_15
REMARK    5  A    between atoms: N_10  and  N_11
REMARK    6  A    between atoms: N_11  and  C_12
REMARK    7  A    between atoms: C_12  and  N_14
REMARK                            x       y       z     vdW  Elec       q    Type
REMARK                         _______ _______ _______ _____ _____    ______ ____
ROOT
ATOM      1  C   UNL     1       3.978  -1.121  -1.427  0.00  0.00    +0.099 C 
ATOM      2  N   UNL     1       5.143  -0.775  -1.883  0.00  0.00    -0.182 NA
ENDROOT
BRANCH   1   3
ATOM      3  C   UNL     1       2.917  -1.544  -2.361  0.00  0.00    +0.001 A 
ATOM      4  C   UNL     1       2.320  -2.799  -2.223  0.00  0.00    +0.010 A 
ATOM      5  C   UNL     1       1.328  -3.187  -3.099  0.00  0.00    +0.001 A 
ATOM      6  C   UNL     1       0.924  -2.337  -4.113  0.00  0.00    +0.000 A 
ATOM      7  C   UNL     1       1.511  -1.092  -4.255  0.00  0.00    +0.001 A 
ATOM      8  C   UNL     1       2.500  -0.688  -3.383  0.00  0.00    +0.010 A 
ENDBRANCH   1   3
BRANCH   2   9
ATOM      9  N   UNL     1       5.432  -0.917  -3.247  0.00  0.00    -0.218 N 
ATOM     10  H   UNL     1       4.750  -1.241  -3.856  0.00  0.00    +0.176 HD
BRANCH   9  11
ATOM     11  C   UNL     1       6.658  -0.605  -3.712  0.00  0.00    +0.147 C 
ATOM     12  S   UNL     1       7.012  -0.779  -5.377  0.00  0.00    -0.017 S 
BRANCH  11  13
ATOM     13  N   UNL     1       7.605  -0.155  -2.865  0.00  0.00    -0.339 N 
ATOM     14  H   UNL     1       7.405  -0.056  -1.921  0.00  0.00    +0.144 HD
ATOM     15  H   UNL     1       8.488   0.070  -3.200  0.00  0.00    +0.144 HD
ENDBRANCH  11  13
ENDBRANCH   9  11
ENDBRANCH   2   9
BRANCH   1  16
ATOM     16  C   UNL     1       3.710  -1.093   0.055  0.00  0.00    +0.195 C 
BRANCH  16  20
ATOM     17  C   UNL     1       0.526   1.635   0.872  0.00  0.00    +0.000 A 
ATOM     18  C   UNL     1       1.838   2.064   0.941  0.00  0.00    +0.000 A 
ATOM     19  C   UNL     1       2.869   1.181   0.677  0.00  0.00    +0.006 A 
ATOM     20  C   UNL     1       2.587  -0.130   0.344  0.00  0.00    -0.013 A 
ATOM     21  C   UNL     1       1.275  -0.559   0.275  0.00  0.00    +0.006 A 
ATOM     22  C   UNL     1       0.244   0.324   0.538  0.00  0.00    +0.000 A 
ENDBRANCH  16  20
BRANCH  16  23
ATOM     23  O   UNL     1       3.343  -2.400   0.498  0.00  0.00    -0.381 OA
ATOM     24  H   UNL     1       2.550  -2.752   0.072  0.00  0.00    +0.211 HD
ENDBRANCH  16  23
ENDBRANCH   1  16
TORSDOF 7
