REMARK  Name = ZINC17877683
REMARK  14 active torsions:
REMARK  status: ('A' for Active; 'I' for Inactive)
REMARK    1  A    between atoms: C_1  and  C_2
REMARK    2  A    between atoms: C_2  and  C_3
REMARK    3  A    between atoms: C_2  and  N_4
REMARK    4  A    between atoms: N_12  and  N_13
REMARK    5  A    between atoms: C_14  and  C_16
REMARK    6  A    between atoms: C_16  and  C_17
REMARK    7  A    between atoms: C_17  and  C_18
REMARK    8  A    between atoms: C_18  and  C_19
REMARK    9  A    between atoms: C_19  and  C_20
REMARK   10  A    between atoms: C_20  and  C_21
REMARK   11  A    between atoms: N_23  and  N_24
REMARK   12  A    between atoms: N_32  and  C_35
REMARK   13  A    between atoms: C_35  and  C_36
REMARK   14  A    between atoms: C_35  and  C_37
REMARK                            x       y       z     vdW  Elec       q    Type
REMARK                         _______ _______ _______ _____ _____    ______ ____
ROOT
ATOM      1  C   UNL     1     -10.624  -2.588   1.192  0.00  0.00    +0.001 C 
ENDROOT
BRANCH   1   2
ATOM      2  C   UNL     1      -9.382  -1.910   1.774  0.00  0.00    +0.009 C 
BRANCH   2   3
ATOM      3  C   UNL     1      -8.188  -2.153   0.849  0.00  0.00    +0.097 C 
BRANCH   3   5
ATOM      4  N   UNL     1      -5.786  -1.565   0.774  0.00  0.00    -0.206 N 
ATOM      5  C   UNL     1      -6.965  -1.485   1.423  0.00  0.00    +0.232 C 
ATOM      6  O   UNL     1      -7.041  -0.875   2.468  0.00  0.00    -0.274 OA
ATOM      7  H   UNL     1      -5.725  -2.054  -0.062  0.00  0.00    +0.177 HD
BRANCH   4  16
ATOM      8  N   UNL     1      -1.348  -0.592   0.050  0.00  0.00    -0.263 N 
ATOM      9  C   UNL     1      -1.969  -1.150  -1.062  0.00  0.00    +0.046 A 
ATOM     10  C   UNL     1      -1.481  -1.489  -2.319  0.00  0.00    +0.024 A 
ATOM     11  C   UNL     1      -2.323  -2.040  -3.264  0.00  0.00    +0.002 A 
ATOM     12  C   UNL     1      -3.658  -2.262  -2.974  0.00  0.00    +0.001 A 
ATOM     13  C   UNL     1      -4.161  -1.932  -1.731  0.00  0.00    +0.012 A 
ATOM     14  C   UNL     1      -3.320  -1.377  -0.773  0.00  0.00    +0.028 A 
ATOM     15  C   UNL     1      -3.533  -0.920   0.620  0.00  0.00    +0.153 C 
ATOM     16  N   UNL     1      -4.649  -0.944   1.307  0.00  0.00    -0.175 NA
ATOM     17  C   UNL     1      -2.211  -0.438   1.069  0.00  0.00    +0.272 C 
ATOM     18  O   UNL     1      -1.950   0.019   2.166  0.00  0.00    -0.268 OA
BRANCH   8  20
ATOM     19  C   UNL     1       0.196   1.274   0.395  0.00  0.00    +0.028 C 
ATOM     20  C   UNL     1       0.069  -0.224   0.106  0.00  0.00    +0.076 C 
ATOM     21  C   UNL     1       0.759  -1.017   1.218  0.00  0.00    +0.028 C 
ENDBRANCH   8  20
ENDBRANCH   4  16
ENDBRANCH   3   5
ENDBRANCH   2   3
ENDBRANCH   1   2
BRANCH   1  22
ATOM     22  C   UNL     1     -11.819  -2.345   2.116  0.00  0.00    +0.009 C 
BRANCH  22  23
ATOM     23  C   UNL     1     -13.060  -3.024   1.534  0.00  0.00    +0.097 C 
BRANCH  23  24
ATOM     24  C   UNL     1     -14.237  -2.784   2.445  0.00  0.00    +0.232 C 
ATOM     25  O   UNL     1     -14.096  -2.135   3.459  0.00  0.00    -0.274 OA
ATOM     26  N   UNL     1     -15.446  -3.292   2.132  0.00  0.00    -0.206 N 
ATOM     27  H   UNL     1     -15.558  -3.811   1.320  0.00  0.00    +0.177 HD
BRANCH  26  28
ATOM     28  N   UNL     1     -16.540  -3.069   2.978  0.00  0.00    -0.175 NA
ATOM     29  C   UNL     1     -17.715  -3.563   2.674  0.00  0.00    +0.153 C 
ATOM     30  C   UNL     1     -18.976  -3.427   3.439  0.00  0.00    +0.028 A 
ATOM     31  C   UNL     1     -19.304  -2.787   4.629  0.00  0.00    +0.012 A 
ATOM     32  C   UNL     1     -20.600  -2.839   5.101  0.00  0.00    +0.001 A 
ATOM     33  C   UNL     1     -21.570  -3.526   4.389  0.00  0.00    +0.002 A 
ATOM     34  C   UNL     1     -21.255  -4.164   3.207  0.00  0.00    +0.024 A 
ATOM     35  C   UNL     1     -19.954  -4.122   2.716  0.00  0.00    +0.046 A 
ATOM     36  N   UNL     1     -19.380  -4.668   1.573  0.00  0.00    -0.263 N 
ATOM     37  C   UNL     1     -18.072  -4.370   1.490  0.00  0.00    +0.272 C 
ATOM     38  O   UNL     1     -17.316  -4.709   0.599  0.00  0.00    -0.268 OA
BRANCH  36  39
ATOM     39  C   UNL     1     -20.110  -5.463   0.582  0.00  0.00    +0.076 C 
ATOM     40  C   UNL     1     -20.031  -4.774  -0.782  0.00  0.00    +0.028 C 
ATOM     41  C   UNL     1     -19.487  -6.857   0.486  0.00  0.00    +0.028 C 
ENDBRANCH  36  39
ENDBRANCH  26  28
ENDBRANCH  23  24
ENDBRANCH  22  23
ENDBRANCH   1  22
TORSDOF 10
