REMARK  Name = ZINC01187047
REMARK  1 active torsions:
REMARK  status: ('A' for Active; 'I' for Inactive)
REMARK    1  A    between atoms: C_4  and  N_7
REMARK                            x       y       z     vdW  Elec       q    Type
REMARK                         _______ _______ _______ _____ _____    ______ ____
ROOT
ATOM      1  N   UNL     1       3.622  -0.651  -0.036  0.00  0.00    -0.188 N 
ATOM      2  C   UNL     1       3.635  -1.984   0.052  0.00  0.00    +0.241 C 
ATOM      3  O   UNL     1       2.570  -2.557   0.148  0.00  0.00    -0.273 OA
ATOM      4  C   UNL     1       4.872  -2.814   0.041  0.00  0.00    +0.101 C 
ATOM      5  C   UNL     1       6.157  -2.036  -0.104  0.00  0.00    +0.101 C 
ATOM      6  C   UNL     1       6.999  -2.539  -1.299  0.00  0.00    +0.062 C 
ATOM      7  C   UNL     1       6.071  -2.462  -2.502  0.00  0.00    -0.035 A 
ATOM      8  C   UNL     1       6.330  -1.755  -3.641  0.00  0.00    +0.004 A 
ATOM      9  C   UNL     1       5.392  -1.771  -4.666  0.00  0.00    +0.000 A 
ATOM     10  C   UNL     1       4.220  -2.490  -4.532  0.00  0.00    +0.000 A 
ATOM     11  C   UNL     1       3.963  -3.207  -3.370  0.00  0.00    +0.004 A 
ATOM     12  C   UNL     1       4.889  -3.186  -2.366  0.00  0.00    -0.035 A 
ATOM     13  C   UNL     1       4.751  -3.905  -1.048  0.00  0.00    +0.062 C 
ATOM     14  C   UNL     1       6.016  -4.740  -0.919  0.00  0.00    -0.035 A 
ATOM     15  C   UNL     1       7.194  -4.027  -1.047  0.00  0.00    -0.035 A 
ATOM     16  C   UNL     1       8.406  -4.649  -0.954  0.00  0.00    +0.004 A 
ATOM     17  C   UNL     1       8.440  -6.017  -0.719  0.00  0.00    +0.000 A 
ATOM     18  C   UNL     1       7.266  -6.733  -0.581  0.00  0.00    +0.000 A 
ATOM     19  C   UNL     1       6.040  -6.088  -0.700  0.00  0.00    +0.004 A 
ATOM     20  C   UNL     1       5.990  -0.560  -0.212  0.00  0.00    +0.234 C 
ATOM     21  O   UNL     1       6.991   0.117  -0.323  0.00  0.00    -0.274 OA
ATOM     22  N   UNL     1       4.813   0.071  -0.150  0.00  0.00    -0.227 N 
ATOM     23  H   UNL     1       4.783   1.038  -0.210  0.00  0.00    +0.173 HD
ENDROOT
BRANCH   1  27
ATOM     24  C   UNL     1      -0.017   1.378   0.010  0.00  0.00    +0.000 A 
ATOM     25  C   UNL     1       0.918   1.660  -0.969  0.00  0.00    +0.002 A 
ATOM     26  C   UNL     1       2.125   0.990  -0.987  0.00  0.00    +0.025 A 
ATOM     27  C   UNL     1       2.400   0.031  -0.021  0.00  0.00    +0.056 A 
ATOM     28  C   UNL     1       1.459  -0.250   0.961  0.00  0.00    +0.025 A 
ATOM     29  C   UNL     1       0.253   0.424   0.974  0.00  0.00    +0.002 A 
ENDBRANCH   1  27
TORSDOF 1
