REMARK  Name = ZINC40172232
REMARK  9 active torsions:
REMARK  status: ('A' for Active; 'I' for Inactive)
REMARK    1  A    between atoms: C_1  and  C_2
REMARK    2  A    between atoms: C_2  and  C_4
REMARK    3  A    between atoms: C_2  and  N_26
REMARK    4  A    between atoms: N_6  and  C_7
REMARK    5  A    between atoms: C_8  and  C_24
REMARK    6  A    between atoms: C_9  and  C_18
REMARK    7  A    between atoms: C_10  and  C_12
REMARK    8  A    between atoms: C_30  and  S_31
REMARK    9  A    between atoms: S_31  and  C_32
REMARK                            x       y       z     vdW  Elec       q    Type
REMARK                         _______ _______ _______ _____ _____    ______ ____
ROOT
ATOM      1  C   UNL     1       2.720  -0.713   2.494  0.00  0.00    +0.211 A 
ATOM      2  C   UNL     1       4.035  -0.427   2.824  0.00  0.00    +0.121 A 
ATOM      3  C   UNL     1       4.239  -1.002   4.167  0.00  0.00    +0.047 A 
ATOM      4  C   UNL     1       3.043  -1.572   4.512  0.00  0.00    +0.146 A 
ATOM      5  O   UNL     1       2.162  -1.383   3.511  0.00  0.00    -0.439 OA
ENDROOT
BRANCH   4   6
ATOM      6  C   UNL     1       2.764  -2.274   5.778  0.00  0.00    +0.018 A 
ATOM      7  C   UNL     1       3.138  -1.701   6.996  0.00  0.00    +0.011 A 
ATOM      8  C   UNL     1       2.873  -2.364   8.176  0.00  0.00    +0.001 A 
ATOM      9  C   UNL     1       2.238  -3.594   8.156  0.00  0.00    +0.000 A 
ATOM     10  C   UNL     1       1.865  -4.167   6.953  0.00  0.00    +0.001 A 
ATOM     11  C   UNL     1       2.118  -3.513   5.765  0.00  0.00    +0.011 A 
ENDBRANCH   4   6
BRANCH   3  12
ATOM     12  C   UNL     1       5.480  -0.972   4.974  0.00  0.00    -0.013 A 
ATOM     13  C   UNL     1       6.170  -2.154   5.243  0.00  0.00    +0.008 A 
ATOM     14  C   UNL     1       7.325  -2.118   5.996  0.00  0.00    +0.001 A 
ATOM     15  C   UNL     1       7.801  -0.914   6.483  0.00  0.00    +0.000 A 
ATOM     16  C   UNL     1       7.121   0.262   6.219  0.00  0.00    +0.001 A 
ATOM     17  C   UNL     1       5.967   0.241   5.463  0.00  0.00    +0.008 A 
ENDBRANCH   3  12
BRANCH   1  20
ATOM     18  C   UNL     1       0.798  -0.694   1.117  0.00  0.00    +0.242 C 
ATOM     19  O   UNL     1       0.191  -1.304   1.972  0.00  0.00    -0.273 OA
ATOM     20  N   UNL     1       2.088  -0.360   1.316  0.00  0.00    -0.253 N 
ATOM     21  H   UNL     1       2.574   0.127   0.633  0.00  0.00    +0.158 HD
BRANCH  18  23
ATOM     22  C   UNL     1       0.125   1.212  -0.318  0.00  0.00    +0.041 C 
ATOM     23  C   UNL     1       0.109  -0.310  -0.167  0.00  0.00    +0.175 C 
BRANCH  23  24
ATOM     24  N   UNL     1      -1.277  -0.784  -0.139  0.00  0.00    -0.279 N 
ATOM     25  C   UNL     1      -2.230  -0.424   0.772  0.00  0.00    +0.216 A 
ATOM     26  N   UNL     1      -3.338  -1.053   0.468  0.00  0.00    -0.113 NA
ATOM     27  N   UNL     1      -3.094  -1.839  -0.666  0.00  0.00    -0.121 NA
ATOM     28  C   UNL     1      -1.845  -1.659  -1.022  0.00  0.00    +0.193 A 
ATOM     29  N   UNL     1      -2.055   0.454   1.833  0.00  0.00    -0.328 N 
ATOM     30  H   UNL     1      -1.192   0.873   1.978  0.00  0.00    +0.145 HD
ATOM     31  H   UNL     1      -2.795   0.648   2.429  0.00  0.00    +0.145 HD
BRANCH  28  32
ATOM     32  S   UNL     1      -1.039  -2.416  -2.393  0.00  0.00    -0.089 S 
ATOM     33  C   UNL     1      -2.327  -3.448  -3.145  0.00  0.00    +0.093 C 
ENDBRANCH  28  32
ENDBRANCH  23  24
ENDBRANCH  18  23
ENDBRANCH   1  20
BRANCH   2  34
ATOM     34  C   UNL     1       4.994   0.279   2.029  0.00  0.00    +0.105 C 
ATOM     35  N   UNL     1       5.755   0.839   1.398  0.00  0.00    -0.191 NA
ENDBRANCH   2  34
TORSDOF 7
