REMARK  Name = ZINC36571090
REMARK  17 active torsions:
REMARK  status: ('A' for Active; 'I' for Inactive)
REMARK    1  A    between atoms: C_1  and  C_2
REMARK    2  A    between atoms: C_2  and  C_3
REMARK    3  A    between atoms: C_3  and  N_4
REMARK    4  A    between atoms: N_4  and  C_5
REMARK    5  A    between atoms: C_5  and  C_7
REMARK    6  A    between atoms: C_5  and  C_15
REMARK    7  A    between atoms: N_17  and  C_18
REMARK    8  A    between atoms: C_18  and  C_19
REMARK    9  A    between atoms: C_18  and  C_20
REMARK   10  A    between atoms: C_18  and  C_21
REMARK   11  A    between atoms: C_21  and  C_22
REMARK   12  A    between atoms: C_22  and  C_23
REMARK   13  A    between atoms: C_22  and  C_24
REMARK   14  A    between atoms: C_22  and  C_25
REMARK   15  A    between atoms: C_26  and  C_28
REMARK   16  A    between atoms: C_29  and  O_35
REMARK   17  A    between atoms: C_33  and  O_34
REMARK                            x       y       z     vdW  Elec       q    Type
REMARK                         _______ _______ _______ _____ _____    ______ ____
ROOT
ATOM      1  C   UNL     1      -0.525  -1.322   4.553  0.00  0.00    +0.195 C 
ENDROOT
BRANCH   1   2
ATOM      2  C   UNL     1       0.128  -1.048   5.883  0.00  0.00    +0.018 A 
ATOM      3  C   UNL     1       0.062   0.217   6.438  0.00  0.00    +0.048 A 
ATOM      4  C   UNL     1       0.662   0.468   7.660  0.00  0.00    +0.020 A 
ATOM      5  C   UNL     1       1.327  -0.545   8.324  0.00  0.00    +0.003 A 
ATOM      6  C   UNL     1       1.393  -1.809   7.770  0.00  0.00    +0.020 A 
ATOM      7  C   UNL     1       0.788  -2.063   6.551  0.00  0.00    +0.048 A 
ATOM      8 CL   UNL     1       0.864  -3.653   5.859  0.00  0.00    -0.083 Cl
ATOM      9 CL   UNL     1      -0.772   1.490   5.603  0.00  0.00    -0.083 Cl
ENDBRANCH   1   2
BRANCH   1  10
ATOM     10  C   UNL     1      -2.005  -1.054   4.655  0.00  0.00    +0.239 C 
ATOM     11  O   UNL     1      -2.504  -0.154   4.013  0.00  0.00    -0.273 OA
ATOM     12  N   UNL     1      -2.774  -1.815   5.459  0.00  0.00    -0.308 N 
ATOM     13  H   UNL     1      -2.375  -2.534   5.972  0.00  0.00    +0.149 HD
BRANCH  12  14
ATOM     14  C   UNL     1      -4.212  -1.554   5.558  0.00  0.00    +0.030 C 
ATOM     15  C   UNL     1      -4.438  -0.166   6.160  0.00  0.00    +0.031 C 
ATOM     16  C   UNL     1      -4.838  -1.614   4.164  0.00  0.00    +0.031 C 
BRANCH  14  17
ATOM     17  C   UNL     1      -4.861  -2.611   6.455  0.00  0.00    +0.031 C 
BRANCH  17  18
ATOM     18  C   UNL     1      -4.994  -3.924   5.681  0.00  0.00    -0.036 C 
ATOM     19  C   UNL     1      -3.692  -4.207   4.928  0.00  0.00    +0.010 C 
ATOM     20  C   UNL     1      -5.276  -5.066   6.660  0.00  0.00    +0.010 C 
ATOM     21  C   UNL     1      -6.147  -3.812   4.682  0.00  0.00    +0.010 C 
ENDBRANCH  17  18
ENDBRANCH  14  17
ENDBRANCH  12  14
ENDBRANCH   1  10
BRANCH   1  22
ATOM     22  N   UNL     1       0.060  -0.449   3.532  0.00  0.00    -0.282 N 
ATOM     23  C   UNL     1       1.169   0.264   3.811  0.00  0.00    +0.255 C 
ATOM     24  O   UNL     1       1.725   0.129   4.884  0.00  0.00    -0.270 OA
BRANCH  23  25
ATOM     25  C   UNL     1       1.708   1.206   2.816  0.00  0.00    +0.119 A 
ATOM     26  C   UNL     1       1.286   2.544   2.809  0.00  0.00    +0.133 A 
ATOM     27  C   UNL     1       1.799   3.422   1.868  0.00  0.00    +0.046 A 
ATOM     28  C   UNL     1       2.725   2.984   0.940  0.00  0.00    +0.007 A 
ATOM     29  C   UNL     1       3.148   1.668   0.938  0.00  0.00    +0.046 A 
ATOM     30  C   UNL     1       2.652   0.774   1.873  0.00  0.00    +0.133 A 
BRANCH  30  31
ATOM     31  O   UNL     1       3.073  -0.515   1.873  0.00  0.00    -0.506 OA
ATOM     32  H   UNL     1       2.542  -1.102   1.317  0.00  0.00    +0.292 HD
ENDBRANCH  30  31
BRANCH  26  33
ATOM     33  O   UNL     1       0.377   2.976   3.719  0.00  0.00    -0.506 OA
ATOM     34  H   UNL     1       0.768   3.311   4.537  0.00  0.00    +0.292 HD
ENDBRANCH  26  33
ENDBRANCH  23  25
BRANCH  22  35
ATOM     35  C   UNL     1      -0.561  -0.350   2.209  0.00  0.00    +0.109 C 
BRANCH  35  37
ATOM     36  C   UNL     1      -1.939   1.100   0.712  0.00  0.00    +0.005 C 
ATOM     37  C   UNL     1      -1.167   1.043   2.032  0.00  0.00    +0.016 C 
ENDBRANCH  35  37
ENDBRANCH  22  35
ENDBRANCH   1  22
TORSDOF 11
