REMARK  Name = ZINC13031616
REMARK  13 active torsions:
REMARK  status: ('A' for Active; 'I' for Inactive)
REMARK    1  A    between atoms: C_1  and  C_2
REMARK    2  A    between atoms: C_2  and  C_3
REMARK    3  A    between atoms: C_3  and  C_4
REMARK    4  A    between atoms: C_4  and  N_5
REMARK    5  A    between atoms: C_6  and  N_37
REMARK    6  A    between atoms: C_7  and  N_14
REMARK    7  A    between atoms: N_14  and  C_15
REMARK    8  A    between atoms: C_15  and  C_16
REMARK    9  A    between atoms: C_16  and  C_17
REMARK   10  A    between atoms: C_17  and  C_18
REMARK   11  A    between atoms: C_19  and  C_21
REMARK   12  A    between atoms: C_21  and  N_73
REMARK   13  A    between atoms: C_25  and  C_27
REMARK                            x       y       z     vdW  Elec       q    Type
REMARK                         _______ _______ _______ _____ _____    ______ ____
ROOT
ATOM      1  N   UNL     1       4.130   2.851   4.498  0.00  0.00    -0.266 N 
ATOM      2  C   UNL     1       4.259   2.861   3.155  0.00  0.00    +0.203 C 
ATOM      3  O   UNL     1       5.131   2.205   2.625  0.00  0.00    -0.277 OA
ENDROOT
BRANCH   1   6
ATOM      4  N   UNL     1       5.666  -0.166   5.925  0.00  0.00    -0.280 N 
ATOM      5  C   UNL     1       4.854   0.633   5.154  0.00  0.00    +0.127 A 
ATOM      6  C   UNL     1       4.944   2.005   5.279  0.00  0.00    +0.140 A 
ATOM      7  C   UNL     1       5.858   2.544   6.204  0.00  0.00    +0.277 A 
ATOM      8  O   UNL     1       5.955   3.752   6.338  0.00  0.00    -0.266 OA
ATOM      9  N   UNL     1       6.626   1.716   6.939  0.00  0.00    -0.273 N 
ATOM     10  H   UNL     1       7.276   2.098   7.596  0.00  0.00    +0.173 HD
ATOM     11  C   UNL     1       6.529   0.382   6.799  0.00  0.00    +0.331 A 
ATOM     12  O   UNL     1       7.234  -0.342   7.476  0.00  0.00    -0.246 OA
BRANCH   5  13
ATOM     13  N   UNL     1       3.968   0.073   4.266  0.00  0.00    -0.343 N 
ATOM     14  H   UNL     1       3.361   0.639   3.764  0.00  0.00    +0.144 HD
ATOM     15  H   UNL     1       3.950  -0.889   4.140  0.00  0.00    +0.144 HD
ENDBRANCH   5  13
BRANCH   4  16
ATOM     16  C   UNL     1       5.586  -1.623   5.797  0.00  0.00    +0.128 C 
BRANCH  16  17
ATOM     17  C   UNL     1       4.543  -2.164   6.776  0.00  0.00    +0.021 C 
BRANCH  17  19
ATOM     18  C   UNL     1       3.415  -4.228   7.622  0.00  0.00    +0.004 C 
ATOM     19  C   UNL     1       4.459  -3.686   6.643  0.00  0.00    -0.002 C 
ENDBRANCH  17  19
ENDBRANCH  16  17
ENDBRANCH   4  16
ENDBRANCH   1   6
BRANCH   1  20
ATOM     20  C   UNL     1       3.143   3.720   5.145  0.00  0.00    +0.114 C 
BRANCH  20  21
ATOM     21  C   UNL     1       1.818   2.969   5.288  0.00  0.00    +0.019 C 
BRANCH  21  22
ATOM     22  C   UNL     1       0.788   3.876   5.964  0.00  0.00    -0.002 C 
ATOM     23  C   UNL     1      -0.537   3.125   6.107  0.00  0.00    +0.004 C 
ENDBRANCH  21  22
ENDBRANCH  20  21
ENDBRANCH   1  20
BRANCH   2  24
ATOM     24  C   UNL     1       3.321   3.687   2.313  0.00  0.00    +0.020 C 
BRANCH  24  29
ATOM     25  C   UNL     1       4.904   4.282   0.558  0.00  0.00    -0.077 C 
ATOM     26  C   UNL     1       4.838   4.479  -0.972  0.00  0.00    -0.020 C 
ATOM     27  C   UNL     1       3.339   4.378  -1.325  0.00  0.00    -0.013 C 
ATOM     28  C   UNL     1       2.626   4.130   0.022  0.00  0.00    -0.037 C 
ATOM     29  N   UNL     1       3.677   3.549   0.865  0.00  0.00    +0.390 N 
ATOM     30  H   UNL     1       3.798   2.554   0.641  0.00  0.00    -0.080 HD
BRANCH  28  31
ATOM     31  C   UNL     1       1.477   3.172  -0.161  0.00  0.00    -0.057 A 
ATOM     32  C   UNL     1       1.722   1.818  -0.297  0.00  0.00    +0.006 A 
ATOM     33  C   UNL     1       0.670   0.937  -0.466  0.00  0.00    +0.049 A 
ATOM     34  C   UNL     1      -0.633   1.410  -0.505  0.00  0.00    +0.162 A 
ATOM     35  C   UNL     1      -0.880   2.770  -0.361  0.00  0.00    +0.162 A 
ATOM     36  C   UNL     1       0.180   3.649  -0.193  0.00  0.00    +0.051 A 
ATOM     37  O   UNL     1      -2.152   3.253  -0.382  0.00  0.00    -0.485 OA
ATOM     38  C   UNL     1      -3.156   2.393  -0.941  0.00  0.00    +0.270 C 
ATOM     39  C   UNL     1      -2.968   0.993  -0.341  0.00  0.00    +0.270 C 
ATOM     40  O   UNL     1      -1.657   0.531  -0.683  0.00  0.00    -0.485 OA
ENDBRANCH  28  31
ENDBRANCH  24  29
ENDBRANCH   2  24
TORSDOF 11
