REMARK  Name = ZINC33916933
REMARK  6 active torsions:
REMARK  status: ('A' for Active; 'I' for Inactive)
REMARK    1  A    between atoms: C_1  and  C_2
REMARK    2  A    between atoms: C_5  and  N_9
REMARK    3  A    between atoms: C_14  and  C_32
REMARK    4  A    between atoms: C_17  and  C_22
REMARK    5  A    between atoms: C_17  and  C_29
REMARK    6  A    between atoms: C_22  and  C_23
REMARK                            x       y       z     vdW  Elec       q    Type
REMARK                         _______ _______ _______ _____ _____    ______ ____
ROOT
ATOM      1  N   UNL     1       0.420  -4.003   1.455  0.00  0.00    -0.210 N 
ATOM      2  C   UNL     1       0.566  -4.277   0.117  0.00  0.00    +0.229 C 
ATOM      3  O   UNL     1       0.964  -3.533  -0.753  0.00  0.00    -0.275 OA
ATOM      4  C   UNL     1       0.138  -5.650  -0.022  0.00  0.00    +0.078 C 
ATOM      5  C   UNL     1       0.250  -6.777  -0.958  0.00  0.00    -0.020 C 
ATOM      6  N   UNL     1      -0.096  -7.981  -0.133  0.00  0.00    +0.396 N 
ATOM      7  C   UNL     1      -0.275  -7.521   1.283  0.00  0.00    +0.048 C 
ATOM      8  C   UNL     1       0.643  -6.280   1.337  0.00  0.00    +0.086 C 
ATOM      9  C   UNL     1       0.228  -5.126   2.207  0.00  0.00    +0.229 C 
ATOM     10  O   UNL     1      -0.193  -5.182   3.342  0.00  0.00    -0.275 OA
ATOM     11  H   UNL     1      -0.953  -8.392  -0.470  0.00  0.00    -0.083 HD
ATOM     12  H   UNL     1       0.652  -8.656  -0.182  0.00  0.00    -0.083 HD
ENDROOT
BRANCH   1  17
ATOM     13  C   UNL     1       0.618   1.239   3.624  0.00  0.00    +0.045 C 
ATOM     14  C   UNL     1       0.566  -0.152   3.048  0.00  0.00    -0.032 A 
ATOM     15  C   UNL     1       0.717  -0.342   1.687  0.00  0.00    +0.006 A 
ATOM     16  C   UNL     1       0.669  -1.617   1.156  0.00  0.00    +0.024 A 
ATOM     17  C   UNL     1       0.469  -2.708   1.991  0.00  0.00    +0.045 A 
ATOM     18  C   UNL     1       0.318  -2.516   3.357  0.00  0.00    +0.044 A 
ATOM     19  C   UNL     1       0.372  -1.238   3.884  0.00  0.00    +0.046 A 
ATOM     20 CL   UNL     1       0.189  -0.996   5.593  0.00  0.00    -0.083 Cl
ENDBRANCH   1  17
BRANCH   5  21
ATOM     21  C   UNL     1       1.657  -6.884  -1.488  0.00  0.00    -0.022 A 
ATOM     22  C   UNL     1       2.158  -6.456  -2.672  0.00  0.00    +0.011 A 
ATOM     23  C   UNL     1       3.496  -6.664  -2.949  0.00  0.00    +0.028 A 
ATOM     24  C   UNL     1       4.268  -7.291  -2.026  0.00  0.00    +0.078 A 
ATOM     25  S   UNL     1       3.097  -7.601  -0.715  0.00  0.00    -0.083 S 
ATOM     26 CL   UNL     1       5.957  -7.684  -2.099  0.00  0.00    -0.076 Cl
ENDBRANCH   5  21
BRANCH   7  27
ATOM     27  C   UNL     1       0.204  -8.572   2.251  0.00  0.00    +0.346 C 
ATOM     28  O   UNL     1       0.635  -9.634   1.833  0.00  0.00    -0.248 OA
ATOM     29  O   UNL     1       0.160  -8.361   3.451  0.00  0.00    -0.248 OA
ENDBRANCH   7  27
BRANCH   7  30
ATOM     30  C   UNL     1      -1.736  -7.157   1.554  0.00  0.00    +0.003 C 
BRANCH  30  31
ATOM     31  C   UNL     1      -2.542  -8.433   1.801  0.00  0.00    -0.012 C 
ATOM     32  C   UNL     1      -2.515  -9.304   0.543  0.00  0.00    +0.003 C 
ATOM     33  C   UNL     1      -3.322 -10.581   0.789  0.00  0.00    +0.000 C 
ATOM     34  C   UNL     1      -4.769 -10.214   1.124  0.00  0.00    +0.000 C 
ATOM     35  C   UNL     1      -4.795  -9.343   2.382  0.00  0.00    +0.000 C 
ATOM     36  C   UNL     1      -3.989  -8.066   2.136  0.00  0.00    +0.003 C 
ENDBRANCH  30  31
ENDBRANCH   7  30
TORSDOF 5
