REMARK  Name = ZINC33715497
REMARK  17 active torsions:
REMARK  status: ('A' for Active; 'I' for Inactive)
REMARK    1  A    between atoms: C_1  and  C_2
REMARK    2  A    between atoms: C_2  and  C_3
REMARK    3  A    between atoms: C_2  and  C_4
REMARK    4  A    between atoms: C_4  and  C_6
REMARK    5  A    between atoms: C_4  and  N_23
REMARK    6  A    between atoms: C_6  and  O_8
REMARK    7  A    between atoms: O_8  and  C_9
REMARK    8  A    between atoms: C_9  and  C_10
REMARK    9  A    between atoms: C_10  and  C_12
REMARK   10  A    between atoms: C_13  and  N_22
REMARK   11  A    between atoms: N_14  and  C_21
REMARK   12  A    between atoms: N_17  and  C_20
REMARK   13  A    between atoms: C_24  and  C_26
REMARK   14  A    between atoms: C_29  and  C_32
REMARK   15  A    between atoms: C_32  and  C_33
REMARK   16  A    between atoms: C_32  and  C_34
REMARK   17  A    between atoms: C_32  and  C_35
REMARK                            x       y       z     vdW  Elec       q    Type
REMARK                         _______ _______ _______ _____ _____    ______ ____
ROOT
ATOM      1  C   UNL     1      -0.758   3.528   1.366  0.00  0.00    +0.328 C 
ATOM      2  O   UNL     1      -1.811   4.119   1.397  0.00  0.00    -0.249 OA
ENDROOT
BRANCH   1   3
ATOM      3  C   UNL     1      -0.738   2.021   1.366  0.00  0.00    +0.185 C 
BRANCH   3   4
ATOM      4  N   UNL     1      -2.112   1.515   1.407  0.00  0.00    -0.298 N 
ATOM      5  C   UNL     1      -2.365   0.290   1.909  0.00  0.00    +0.245 C 
ATOM      6  O   UNL     1      -1.452  -0.396   2.326  0.00  0.00    -0.270 OA
ATOM      7  H   UNL     1      -2.939   2.135   1.029  0.00  0.00    +0.150 HD
BRANCH   5   8
ATOM      8  C   UNL     1      -3.751  -0.221   1.950  0.00  0.00    +0.037 A 
ATOM      9  C   UNL     1      -4.803   0.565   1.477  0.00  0.00    +0.013 A 
ATOM     10  C   UNL     1      -6.094   0.081   1.514  0.00  0.00    +0.005 A 
ATOM     11  C   UNL     1      -6.349  -1.177   2.030  0.00  0.00    -0.042 A 
ATOM     12  C   UNL     1      -5.312  -1.960   2.506  0.00  0.00    +0.005 A 
ATOM     13  C   UNL     1      -4.016  -1.490   2.469  0.00  0.00    +0.013 A 
BRANCH  11  14
ATOM     14  C   UNL     1      -7.763  -1.698   2.073  0.00  0.00    -0.013 C 
ATOM     15  C   UNL     1      -8.154  -1.992   3.523  0.00  0.00    +0.015 C 
ATOM     16  C   UNL     1      -8.711  -0.647   1.492  0.00  0.00    +0.015 C 
ATOM     17  C   UNL     1      -7.858  -2.983   1.248  0.00  0.00    +0.015 C 
ENDBRANCH  11  14
ENDBRANCH   5   8
ENDBRANCH   3   4
BRANCH   3  19
ATOM     18  C   UNL     1      -0.029  -0.010   0.095  0.00  0.00    +0.009 C 
ATOM     19  C   UNL     1      -0.048   1.520   0.095  0.00  0.00    +0.014 C 
ATOM     20  C   UNL     1       1.387   2.049   0.052  0.00  0.00    +0.009 C 
ENDBRANCH   3  19
ENDBRANCH   1   3
BRANCH   1  21
ATOM     21  O   UNL     1       0.395   4.214   1.331  0.00  0.00    -0.455 OA
BRANCH  21  22
ATOM     22  C   UNL     1       0.301   5.663   1.333  0.00  0.00    +0.311 C 
BRANCH  22  23
ATOM     23  C   UNL     1       1.685   6.257   1.292  0.00  0.00    +0.209 C 
ATOM     24  O   UNL     1       2.658   5.529   1.262  0.00  0.00    -0.288 OA
BRANCH  23  25
ATOM     25  C   UNL     1       1.852   7.658   1.286  0.00  0.00    +0.123 A 
ATOM     26  C   UNL     1       3.130   8.237   1.371  0.00  0.00    +0.116 A 
ATOM     27  N   UNL     1       3.241   9.598   1.356  0.00  0.00    -0.284 N 
ATOM     28  C   UNL     1       2.158  10.386   1.274  0.00  0.00    +0.333 A 
ATOM     29  O   UNL     1       2.309  11.592   1.269  0.00  0.00    -0.246 OA
ATOM     30  N   UNL     1       0.912   9.890   1.196  0.00  0.00    -0.263 N 
ATOM     31  C   UNL     1       0.695   8.559   1.198  0.00  0.00    +0.269 A 
ATOM     32  O   UNL     1      -0.435   8.113   1.127  0.00  0.00    -0.267 OA
ATOM     33  C   UNL     1      -0.227  10.808   1.109  0.00  0.00    +0.157 C 
ATOM     34  C   UNL     1       4.569  10.211   1.438  0.00  0.00    +0.155 C 
BRANCH  26  35
ATOM     35  N   UNL     1       4.239   7.454   1.460  0.00  0.00    -0.344 N 
ATOM     36  H   UNL     1       5.235   7.916   1.526  0.00  0.00    +0.144 HD
ATOM     37  H   UNL     1       4.140   6.358   1.467  0.00  0.00    +0.144 HD
ENDBRANCH  26  35
ENDBRANCH  23  25
ENDBRANCH  22  23
ENDBRANCH  21  22
ENDBRANCH   1  21
TORSDOF 10
