REMARK  Name = ZINC36609344
REMARK  14 active torsions:
REMARK  status: ('A' for Active; 'I' for Inactive)
REMARK    1  A    between atoms: C_1  and  C_2
REMARK    2  A    between atoms: C_2  and  C_3
REMARK    3  A    between atoms: C_3  and  C_4
REMARK    4  A    between atoms: C_4  and  N_5
REMARK    5  A    between atoms: C_6  and  C_8
REMARK    6  A    between atoms: C_8  and  C_10
REMARK    7  A    between atoms: C_8  and  N_19
REMARK    8  A    between atoms: C_11  and  O_18
REMARK    9  A    between atoms: C_13  and  O_17
REMARK   10  A    between atoms: C_15  and  O_16
REMARK   11  A    between atoms: N_19  and  C_20
REMARK   12  A    between atoms: C_26  and  C_28
REMARK   13  A    between atoms: C_30  and  N_35
REMARK   14  A    between atoms: C_33  and  O_34
REMARK                            x       y       z     vdW  Elec       q    Type
REMARK                         _______ _______ _______ _____ _____    ______ ____
ROOT
ATOM      1  C   UNL     1       2.595  -4.382  -3.623  0.00  0.00    +0.204 C 
ENDROOT
BRANCH   1   2
ATOM      2  C   UNL     1       3.516  -3.562  -4.490  0.00  0.00    +0.065 A 
ATOM      3  C   UNL     1       4.865  -3.873  -4.557  0.00  0.00    +0.129 A 
ATOM      4  C   UNL     1       5.712  -3.118  -5.354  0.00  0.00    +0.091 A 
ATOM      5  C   UNL     1       5.209  -2.053  -6.086  0.00  0.00    +0.124 A 
ATOM      6  C   UNL     1       3.860  -1.742  -6.020  0.00  0.00    +0.091 A 
ATOM      7  C   UNL     1       3.012  -2.499  -5.225  0.00  0.00    +0.129 A 
BRANCH   7   8
ATOM      8  O   UNL     1       1.688  -2.198  -5.164  0.00  0.00    -0.506 OA
ATOM      9  H   UNL     1       1.460  -1.567  -4.468  0.00  0.00    +0.292 HD
ENDBRANCH   7   8
BRANCH   5  10
ATOM     10  O   UNL     1       6.040  -1.313  -6.867  0.00  0.00    -0.507 OA
ATOM     11  H   UNL     1       6.122  -1.640  -7.773  0.00  0.00    +0.292 HD
ENDBRANCH   5  10
BRANCH   3  12
ATOM     12  O   UNL     1       5.358  -4.917  -3.840  0.00  0.00    -0.506 OA
ATOM     13  H   UNL     1       5.332  -5.763  -4.308  0.00  0.00    +0.292 HD
ENDBRANCH   3  12
ENDBRANCH   1   2
BRANCH   1  15
ATOM     14  N   UNL     1       2.270  -3.028  -1.579  0.00  0.00    -0.313 N 
ATOM     15  C   UNL     1       2.869  -4.079  -2.172  0.00  0.00    +0.239 C 
ATOM     16  O   UNL     1       3.629  -4.781  -1.539  0.00  0.00    -0.273 OA
ATOM     17  H   UNL     1       1.663  -2.466  -2.085  0.00  0.00    +0.149 HD
BRANCH  14  18
ATOM     18  C   UNL     1       2.537  -2.733  -0.169  0.00  0.00    +0.104 C 
BRANCH  18  19
ATOM     19  C   UNL     1       1.738  -1.499   0.254  0.00  0.00    +0.018 C 
BRANCH  19  21
ATOM     20  C   UNL     1       1.217   0.043   2.150  0.00  0.00    +0.004 C 
ATOM     21  C   UNL     1       2.016  -1.191   1.727  0.00  0.00    -0.002 C 
ENDBRANCH  19  21
ENDBRANCH  18  19
ENDBRANCH  14  18
ENDBRANCH   1  15
BRANCH   1  22
ATOM     22  N   UNL     1       2.826  -5.806  -3.877  0.00  0.00    -0.251 N 
ATOM     23  C   UNL     1       3.062  -6.238  -5.131  0.00  0.00    +0.255 C 
ATOM     24  O   UNL     1       3.115  -5.441  -6.049  0.00  0.00    -0.269 OA
BRANCH  22  25
ATOM     25  C   UNL     1       2.802  -6.718  -2.816  0.00  0.00    +0.038 A 
ATOM     26  C   UNL     1       1.733  -6.726  -1.930  0.00  0.00    +0.023 A 
ATOM     27  C   UNL     1       1.712  -7.628  -0.884  0.00  0.00    +0.002 A 
ATOM     28  C   UNL     1       2.754  -8.523  -0.720  0.00  0.00    +0.000 A 
ATOM     29  C   UNL     1       3.820  -8.516  -1.600  0.00  0.00    +0.002 A 
ATOM     30  C   UNL     1       3.845  -7.621  -2.651  0.00  0.00    +0.023 A 
ENDBRANCH  22  25
BRANCH  23  31
ATOM     31  C   UNL     1       3.256  -7.676  -5.392  0.00  0.00    +0.081 A 
ATOM     32  C   UNL     1       2.611  -8.628  -4.598  0.00  0.00    +0.049 A 
ATOM     33  C   UNL     1       2.796  -9.970  -4.847  0.00  0.00    +0.127 A 
ATOM     34  C   UNL     1       3.620 -10.382  -5.882  0.00  0.00    +0.036 A 
ATOM     35  C   UNL     1       4.264  -9.453  -6.674  0.00  0.00    +0.048 A 
ATOM     36  C   UNL     1       4.084  -8.097  -6.442  0.00  0.00    +0.129 A 
BRANCH  33  37
ATOM     37  N   UNL     1       2.112 -10.977  -4.004  0.00  0.00    +0.056 N 
ATOM     38  O   UNL     1       1.327 -10.623  -3.156  0.00  0.00    -0.126 OA
ATOM     39  O   UNL     1       2.340 -12.154  -4.164  0.00  0.00    -0.126 OA
ENDBRANCH  33  37
BRANCH  36  40
ATOM     40  O   UNL     1       4.711  -7.183  -7.223  0.00  0.00    -0.506 OA
ATOM     41  H   UNL     1       5.585  -6.924  -6.901  0.00  0.00    +0.292 HD
ENDBRANCH  36  40
ENDBRANCH  23  31
ENDBRANCH   1  22
TORSDOF 13
