REMARK  Name = ZINC12491465
REMARK  13 active torsions:
REMARK  status: ('A' for Active; 'I' for Inactive)
REMARK    1  A    between atoms: C_1  and  C_2
REMARK    2  A    between atoms: C_2  and  C_3
REMARK    3  A    between atoms: C_3  and  C_4
REMARK    4  A    between atoms: C_3  and  C_5
REMARK    5  A    between atoms: C_3  and  N_6
REMARK    6  A    between atoms: C_7  and  C_9
REMARK    7  A    between atoms: C_9  and  C_11
REMARK    8  A    between atoms: C_9  and  N_18
REMARK    9  A    between atoms: N_18  and  C_19
REMARK   10  A    between atoms: C_26  and  C_28
REMARK   11  A    between atoms: C_28  and  C_29
REMARK   12  A    between atoms: C_29  and  C_30
REMARK   13  A    between atoms: C_35  and  C_38
REMARK                            x       y       z     vdW  Elec       q    Type
REMARK                         _______ _______ _______ _____ _____    ______ ____
ROOT
ATOM      1  N   UNL     1      -6.154  -2.946   0.028  0.00  0.00    -0.255 N 
ATOM      2  C   UNL     1      -6.489  -1.719  -0.417  0.00  0.00    +0.221 C 
ATOM      3  O   UNL     1      -7.548  -1.548  -0.984  0.00  0.00    -0.275 OA
ENDROOT
BRANCH   1   4
ATOM      4  C   UNL     1      -4.989  -3.122   0.785  0.00  0.00    +0.038 A 
ATOM      5  C   UNL     1      -3.748  -3.122   0.161  0.00  0.00    +0.026 A 
ATOM      6  C   UNL     1      -2.600  -3.289   0.910  0.00  0.00    +0.040 A 
ATOM      7  C   UNL     1      -2.686  -3.470   2.280  0.00  0.00    +0.124 A 
ATOM      8  C   UNL     1      -3.923  -3.477   2.903  0.00  0.00    +0.040 A 
ATOM      9  C   UNL     1      -5.073  -3.303   2.159  0.00  0.00    +0.026 A 
ATOM     10  F   UNL     1      -1.562  -3.639   3.010  0.00  0.00    -0.205 F 
ENDBRANCH   1   4
BRANCH   1  11
ATOM     11  C   UNL     1      -7.009  -4.096  -0.279  0.00  0.00    +0.199 C 
BRANCH  11  12
ATOM     12  C   UNL     1      -7.380  -4.801   1.000  0.00  0.00    +0.000 A 
ATOM     13  C   UNL     1      -6.740  -5.974   1.354  0.00  0.00    +0.007 A 
ATOM     14  C   UNL     1      -7.081  -6.621   2.526  0.00  0.00    +0.000 A 
ATOM     15  C   UNL     1      -8.063  -6.096   3.346  0.00  0.00    +0.001 A 
ATOM     16  C   UNL     1      -8.704  -4.924   2.993  0.00  0.00    +0.020 A 
ATOM     17  C   UNL     1      -8.359  -4.273   1.822  0.00  0.00    +0.046 A 
ATOM     18 CL   UNL     1      -9.159  -2.796   1.382  0.00  0.00    -0.083 Cl
ENDBRANCH  11  12
BRANCH  11  20
ATOM     19  N   UNL     1      -6.934  -6.016  -1.836  0.00  0.00    -0.308 N 
ATOM     20  C   UNL     1      -6.265  -5.048  -1.180  0.00  0.00    +0.239 C 
ATOM     21  O   UNL     1      -5.064  -4.942  -1.315  0.00  0.00    -0.273 OA
ATOM     22  H   UNL     1      -7.902  -6.061  -1.780  0.00  0.00    +0.149 HD
BRANCH  19  23
ATOM     23  C   UNL     1      -6.201  -7.002  -2.634  0.00  0.00    +0.029 C 
ATOM     24  C   UNL     1      -5.416  -6.284  -3.735  0.00  0.00    +0.031 C 
ATOM     25  C   UNL     1      -5.231  -7.768  -1.733  0.00  0.00    +0.031 C 
BRANCH  23  27
ATOM     26  C   UNL     1      -6.424  -9.010  -4.103  0.00  0.00    +0.006 C 
ATOM     27  C   UNL     1      -7.190  -7.981  -3.269  0.00  0.00    +0.022 C 
ENDBRANCH  23  27
ENDBRANCH  19  23
ENDBRANCH  11  20
ENDBRANCH   1  11
BRANCH   2  28
ATOM     28  C   UNL     1      -5.549  -0.560  -0.211  0.00  0.00    +0.105 C 
BRANCH  28  29
ATOM     29  C   UNL     1      -6.127   0.690  -0.878  0.00  0.00    +0.105 C 
BRANCH  29  30
ATOM     30  C   UNL     1      -5.186   1.850  -0.672  0.00  0.00    +0.219 C 
ATOM     31  O   UNL     1      -4.156   1.692  -0.052  0.00  0.00    -0.275 OA
ATOM     32  N   UNL     1      -5.490   3.062  -1.176  0.00  0.00    -0.268 N 
ATOM     33  C   UNL     1      -4.620   4.136  -0.985  0.00  0.00    +0.168 A 
ATOM     34  C   UNL     1      -3.383   4.116  -0.288  0.00  0.00    +0.091 A 
ATOM     35  C   UNL     1      -2.930   5.386  -0.392  0.00  0.00    +0.136 A 
ATOM     36  O   UNL     1      -3.851   6.066  -1.090  0.00  0.00    -0.358 OA
ATOM     37  N   UNL     1      -4.781   5.362  -1.408  0.00  0.00    -0.063 NA
ATOM     38  C   UNL     1      -1.641   5.932   0.168  0.00  0.00    +0.089 C 
ATOM     39  H   UNL     1      -6.315   3.188  -1.671  0.00  0.00    +0.156 HD
ENDBRANCH  29  30
ENDBRANCH  28  29
ENDBRANCH   2  28
TORSDOF 9
