REMARK  Name = ZINC37641089
REMARK  9 active torsions:
REMARK  status: ('A' for Active; 'I' for Inactive)
REMARK    1  A    between atoms: C_1  and  C_2
REMARK    2  A    between atoms: C_5  and  N_8
REMARK    3  A    between atoms: C_9  and  C_11
REMARK    4  A    between atoms: C_11  and  N_12
REMARK    5  A    between atoms: N_20  and  C_23
REMARK    6  A    between atoms: C_23  and  C_24
REMARK    7  A    between atoms: N_26  and  C_27
REMARK    8  A    between atoms: C_30  and  O_33
REMARK    9  A    between atoms: O_33  and  C_34
REMARK                            x       y       z     vdW  Elec       q    Type
REMARK                         _______ _______ _______ _____ _____    ______ ____
ROOT
ATOM      1  N   UNL     1       0.861  -6.880   2.982  0.00  0.00    -0.251 N 
ATOM      2  C   UNL     1       1.998  -7.099   3.668  0.00  0.00    +0.266 A 
ATOM      3  O   UNL     1       3.077  -6.823   3.179  0.00  0.00    -0.267 OA
ATOM      4  C   UNL     1       1.916  -7.678   5.027  0.00  0.00    +0.074 A 
ATOM      5  C   UNL     1       3.019  -7.997   5.947  0.00  0.00    -0.023 A 
ATOM      6  C   UNL     1       2.635  -8.519   7.122  0.00  0.00    -0.004 A 
ATOM      7  S   UNL     1       0.864  -8.588   7.026  0.00  0.00    -0.075 S 
ATOM      8  C   UNL     1       0.638  -7.957   5.497  0.00  0.00    +0.097 A 
ATOM      9  N   UNL     1      -0.470  -7.702   4.730  0.00  0.00    -0.278 N 
ATOM     10  C   UNL     1      -0.343  -7.169   3.500  0.00  0.00    +0.334 A 
ATOM     11  O   UNL     1      -1.342  -6.949   2.842  0.00  0.00    -0.246 OA
ATOM     12  C   UNL     1       3.810  -8.825   8.012  0.00  0.00    +0.043 C 
ATOM     13  C   UNL     1       5.029  -8.818   7.063  0.00  0.00    +0.010 C 
ATOM     14  C   UNL     1       4.542  -7.890   5.931  0.00  0.00    +0.037 C 
ENDROOT
BRANCH   1  15
ATOM     15  C   UNL     1       0.940  -6.306   1.636  0.00  0.00    +0.226 C 
BRANCH  15  17
ATOM     16  N   UNL     1       0.949  -4.056   0.607  0.00  0.00    -0.284 N 
ATOM     17  C   UNL     1       0.891  -4.802   1.728  0.00  0.00    +0.237 C 
ATOM     18  O   UNL     1       0.800  -4.264   2.811  0.00  0.00    -0.274 OA
ATOM     19  H   UNL     1       0.948  -4.487  -0.262  0.00  0.00    +0.155 HD
BRANCH  16  24
ATOM     20  C   UNL     1       1.206   1.599   0.972  0.00  0.00    +0.044 C 
ATOM     21  C   UNL     1       1.138   0.097   0.875  0.00  0.00    -0.050 A 
ATOM     22  C   UNL     1       1.735  -0.685   1.847  0.00  0.00    +0.005 A 
ATOM     23  C   UNL     1       1.674  -2.062   1.761  0.00  0.00    +0.023 A 
ATOM     24  C   UNL     1       1.012  -2.662   0.697  0.00  0.00    +0.033 A 
ATOM     25  C   UNL     1       0.413  -1.874  -0.277  0.00  0.00    +0.023 A 
ATOM     26  C   UNL     1       0.473  -0.497  -0.183  0.00  0.00    +0.005 A 
ENDBRANCH  16  24
ENDBRANCH  15  17
ENDBRANCH   1  15
BRANCH   9  27
ATOM     27  C   UNL     1      -1.803  -8.009   5.255  0.00  0.00    +0.223 C 
BRANCH  27  28
ATOM     28  C   UNL     1      -2.343  -6.808   5.987  0.00  0.00    +0.237 C 
ATOM     29  O   UNL     1      -1.679  -5.795   6.064  0.00  0.00    -0.274 OA
ATOM     30  N   UNL     1      -3.563  -6.859   6.558  0.00  0.00    -0.284 N 
ATOM     31  H   UNL     1      -4.062  -7.690   6.562  0.00  0.00    +0.155 HD
BRANCH  30  32
ATOM     32  C   UNL     1      -4.110  -5.710   7.145  0.00  0.00    +0.034 A 
ATOM     33  C   UNL     1      -4.927  -5.823   8.262  0.00  0.00    +0.027 A 
ATOM     34  C   UNL     1      -5.466  -4.691   8.841  0.00  0.00    +0.047 A 
ATOM     35  C   UNL     1      -5.190  -3.441   8.306  0.00  0.00    +0.120 A 
ATOM     36  C   UNL     1      -4.374  -3.327   7.191  0.00  0.00    +0.047 A 
ATOM     37  C   UNL     1      -3.830  -4.458   6.615  0.00  0.00    +0.027 A 
BRANCH  35  38
ATOM     38  O   UNL     1      -5.721  -2.326   8.877  0.00  0.00    -0.495 OA
ATOM     39  C   UNL     1      -5.396  -1.072   8.274  0.00  0.00    +0.277 C 
ENDBRANCH  35  38
ENDBRANCH  30  32
ENDBRANCH  27  28
ENDBRANCH   9  27
TORSDOF 7
