REMARK  Name = ZINC55370404
REMARK  8 active torsions:
REMARK  status: ('A' for Active; 'I' for Inactive)
REMARK    1  A    between atoms: C_1  and  N_2
REMARK    2  A    between atoms: C_11  and  C_13
REMARK    3  A    between atoms: C_13  and  N_14
REMARK    4  A    between atoms: N_14  and  C_15
REMARK    5  A    between atoms: C_15  and  C_16
REMARK    6  A    between atoms: N_18  and  C_25
REMARK    7  A    between atoms: C_25  and  C_26
REMARK    8  A    between atoms: C_26  and  C_27
REMARK                            x       y       z     vdW  Elec       q    Type
REMARK                         _______ _______ _______ _____ _____    ______ ____
ROOT
ATOM      1  C   UNL     1      -0.190   2.518   3.072  0.00  0.00    -0.045 C 
ENDROOT
BRANCH   1   2
ATOM      2  C   UNL     1      -0.162   3.981   2.711  0.00  0.00    -0.039 A 
ATOM      3  C   UNL     1       0.825   4.851   2.979  0.00  0.00    +0.088 A 
ATOM      4  N   UNL     1       0.498   6.090   2.498  0.00  0.00    -0.346 N 
ATOM      5  C   UNL     1      -0.739   6.046   1.893  0.00  0.00    +0.049 A 
ATOM      6  C   UNL     1      -1.203   4.722   1.994  0.00  0.00    +0.001 A 
ATOM      7  C   UNL     1      -2.444   4.376   1.457  0.00  0.00    +0.010 A 
ATOM      8  C   UNL     1      -3.201   5.326   0.831  0.00  0.00    +0.001 A 
ATOM      9  C   UNL     1      -2.745   6.633   0.725  0.00  0.00    +0.002 A 
ATOM     10  C   UNL     1      -1.528   6.998   1.256  0.00  0.00    +0.026 A 
BRANCH   4  11
ATOM     11  C   UNL     1       1.338   7.285   2.610  0.00  0.00    +0.131 C 
BRANCH  11  12
ATOM     12  C   UNL     1       0.919   8.089   3.842  0.00  0.00    +0.117 C 
BRANCH  12  13
ATOM     13  C   UNL     1       1.783   9.318   3.957  0.00  0.00    +0.212 C 
ATOM     14  O   UNL     1       2.649   9.530   3.134  0.00  0.00    -0.276 OA
ATOM     15  N   UNL     1       1.594  10.182   4.974  0.00  0.00    -0.329 N 
ATOM     16  H   UNL     1       0.902  10.013   5.632  0.00  0.00    +0.145 HD
ATOM     17  H   UNL     1       2.150  10.974   5.048  0.00  0.00    +0.145 HD
ENDBRANCH  12  13
ENDBRANCH  11  12
ENDBRANCH   4  11
ENDBRANCH   1   2
BRANCH   1  18
ATOM     18  N   UNL     1       0.185   1.717   1.899  0.00  0.00    +0.383 N 
ATOM     19  H   UNL     1       1.114   1.972   1.601  0.00  0.00    -0.085 HD
ATOM     20  H   UNL     1      -0.469   1.891   1.151  0.00  0.00    -0.085 HD
BRANCH  18  21
ATOM     21  C   UNL     1       0.158   0.291   2.252  0.00  0.00    -0.063 C 
BRANCH  21  32
ATOM     22  C   UNL     1      -0.754  -2.279   1.991  0.00  0.00    +0.105 C 
ATOM     23  N   UNL     1       0.547  -1.970   1.383  0.00  0.00    -0.300 NA
ATOM     24  C   UNL     1       0.767  -2.775   0.177  0.00  0.00    +0.119 C 
ATOM     25  C   UNL     1       2.058  -2.381  -0.491  0.00  0.00    -0.030 A 
ATOM     26  C   UNL     1       2.620  -3.255  -1.410  0.00  0.00    +0.005 A 
ATOM     27  C   UNL     1       3.800  -2.933  -2.049  0.00  0.00    +0.000 A 
ATOM     28  C   UNL     1       4.427  -1.732  -1.773  0.00  0.00    +0.000 A 
ATOM     29  C   UNL     1       3.870  -0.862  -0.857  0.00  0.00    +0.004 A 
ATOM     30  C   UNL     1       2.686  -1.186  -0.213  0.00  0.00    -0.042 A 
ATOM     31  C   UNL     1       2.121  -0.210   0.787  0.00  0.00    +0.052 C 
ATOM     32  C   UNL     1       0.654  -0.537   1.065  0.00  0.00    +0.044 C 
ENDBRANCH  21  32
ENDBRANCH  18  21
ENDBRANCH   1  18
TORSDOF 7
