REMARK  Name = ZINC25680380
REMARK  7 active torsions:
REMARK  status: ('A' for Active; 'I' for Inactive)
REMARK    1  A    between atoms: C_1  and  C_2
REMARK    2  A    between atoms: C_2  and  C_4
REMARK    3  A    between atoms: C_2  and  N_18
REMARK    4  A    between atoms: N_6  and  C_7
REMARK    5  A    between atoms: C_8  and  C_15
REMARK    6  A    between atoms: C_21  and  C_24
REMARK    7  A    between atoms: C_27  and  O_30
REMARK                            x       y       z     vdW  Elec       q    Type
REMARK                         _______ _______ _______ _____ _____    ______ ____
ROOT
ATOM      1  C   UNL     1       3.063   5.608  -1.327  0.00  0.00    -0.004 C 
ATOM      2  C   UNL     1       2.342   5.773   0.013  0.00  0.00    +0.017 C 
ENDROOT
BRANCH   2   3
ATOM      3  N   UNL     1       1.357   6.858  -0.092  0.00  0.00    +0.390 N 
ATOM      4  C   UNL     1       0.491   6.900   1.098  0.00  0.00    -0.073 C 
ATOM      5  C   UNL     1      -0.287   8.219   1.086  0.00  0.00    +0.017 C 
ATOM      6  C   UNL     1      -0.915   8.425  -0.264  0.00  0.00    -0.048 C 
ATOM      7  C   UNL     1      -0.539   7.755  -1.331  0.00  0.00    -0.041 C 
ATOM      8  C   UNL     1       0.545   6.716  -1.307  0.00  0.00    -0.050 C 
ATOM      9  H   UNL     1       1.912   7.805  -0.154  0.00  0.00    -0.080 HD
BRANCH   6  10
ATOM     10  C   UNL     1      -1.999   9.420  -0.397  0.00  0.00    -0.022 A 
ATOM     11  C   UNL     1      -1.736  10.774  -0.183  0.00  0.00    +0.012 A 
ATOM     12  C   UNL     1      -2.749  11.700  -0.313  0.00  0.00    +0.046 A 
ATOM     13  C   UNL     1      -4.032  11.286  -0.646  0.00  0.00    +0.117 A 
ATOM     14  C   UNL     1      -4.299   9.940  -0.855  0.00  0.00    +0.046 A 
ATOM     15  C   UNL     1      -3.290   9.008  -0.732  0.00  0.00    +0.012 A 
BRANCH  13  16
ATOM     16  O   UNL     1      -5.029  12.201  -0.768  0.00  0.00    -0.507 OA
ATOM     17  H   UNL     1      -6.045  11.875  -1.032  0.00  0.00    +0.292 HD
ENDBRANCH  13  16
ENDBRANCH   6  10
ENDBRANCH   2   3
BRANCH   2  18
ATOM     18  C   UNL     1       1.638   4.488   0.366  0.00  0.00    +0.204 C 
ATOM     19  O   UNL     1       0.482   4.321   0.041  0.00  0.00    -0.277 OA
ATOM     20  N   UNL     1       2.294   3.524   1.043  0.00  0.00    -0.281 N 
ATOM     21  H   UNL     1       3.343   3.676   1.338  0.00  0.00    +0.155 HD
BRANCH  20  22
ATOM     22  C   UNL     1       1.646   2.342   1.368  0.00  0.00    +0.084 A 
ATOM     23  C   UNL     1       2.146   1.248   2.053  0.00  0.00    +0.068 A 
ATOM     24  C   UNL     1       1.246   0.114   2.267  0.00  0.00    -0.023 A 
ATOM     25  C   UNL     1       0.007   0.266   1.765  0.00  0.00    -0.004 A 
ATOM     26  S   UNL     1       0.017   1.877   1.017  0.00  0.00    -0.077 S 
ATOM     27  C   UNL     1      -0.858  -0.937   2.027  0.00  0.00    +0.043 C 
ATOM     28  C   UNL     1      -0.126  -1.707   3.148  0.00  0.00    +0.010 C 
ATOM     29  C   UNL     1       1.334  -1.258   2.935  0.00  0.00    +0.037 C 
BRANCH  23  30
ATOM     30  C   UNL     1       3.526   1.225   2.546  0.00  0.00    +0.244 C 
ATOM     31  O   UNL     1       4.418   0.792   1.839  0.00  0.00    -0.270 OA
ATOM     32  N   UNL     1       3.809   1.685   3.781  0.00  0.00    -0.325 N 
ATOM     33  H   UNL     1       4.845   1.668   4.151  0.00  0.00    +0.145 HD
ATOM     34  H   UNL     1       3.003   2.077   4.419  0.00  0.00    +0.145 HD
ENDBRANCH  23  30
ENDBRANCH  20  22
ENDBRANCH   2  18
TORSDOF 6
