REMARK  Name = ZINC21985990
REMARK  15 active torsions:
REMARK  status: ('A' for Active; 'I' for Inactive)
REMARK    1  A    between atoms: C_1  and  C_2
REMARK    2  A    between atoms: C_2  and  C_3
REMARK    3  A    between atoms: C_3  and  C_4
REMARK    4  A    between atoms: C_7  and  C_12
REMARK    5  A    between atoms: N_9  and  C_11
REMARK    6  A    between atoms: N_14  and  C_15
REMARK    7  A    between atoms: C_15  and  C_17
REMARK    8  A    between atoms: C_15  and  C_33
REMARK    9  A    between atoms: C_19  and  O_32
REMARK   10  A    between atoms: C_21  and  O_31
REMARK   11  A    between atoms: C_23  and  O_30
REMARK   12  A    between atoms: C_25  and  S_28
REMARK   13  A    between atoms: S_28  and  C_29
REMARK   14  A    between atoms: C_33  and  C_35
REMARK   15  A    between atoms: C_33  and  O_36
REMARK                            x       y       z     vdW  Elec       q    Type
REMARK                         _______ _______ _______ _____ _____    ______ ____
ROOT
ATOM      1  C   UNL     1      -2.866   3.500   0.184  0.00  0.00    +0.132 C 
ENDROOT
BRANCH   1   2
ATOM      2  C   UNL     1      -2.856   2.002   0.498  0.00  0.00    +0.173 C 
ATOM      3  C   UNL     1      -2.227   1.240  -0.672  0.00  0.00    +0.176 C 
ATOM      4  C   UNL     1      -0.771   1.689  -0.841  0.00  0.00    +0.177 C 
ATOM      5  C   UNL     1      -0.022   1.458   0.475  0.00  0.00    +0.184 C 
ATOM      6  C   UNL     1      -0.736   2.212   1.600  0.00  0.00    +0.207 C 
ATOM      7  O   UNL     1      -2.092   1.768   1.683  0.00  0.00    -0.356 OA
BRANCH   6   8
ATOM      8  S   UNL     1       0.104   1.886   3.175  0.00  0.00    -0.131 S 
ATOM      9  C   UNL     1      -0.757   2.955   4.361  0.00  0.00    +0.087 C 
ENDBRANCH   6   8
BRANCH   5  10
ATOM     10  O   UNL     1      -0.002   0.061   0.774  0.00  0.00    -0.386 OA
ATOM     11  H   UNL     1       0.495  -0.300   1.687  0.00  0.00    +0.210 HD
ENDBRANCH   5  10
BRANCH   4  12
ATOM     12  O   UNL     1      -0.735   3.079  -1.174  0.00  0.00    -0.386 OA
ATOM     13  H   UNL     1       0.230   3.581  -1.335  0.00  0.00    +0.210 HD
ENDBRANCH   4  12
BRANCH   3  14
ATOM     14  O   UNL     1      -2.267  -0.163  -0.404  0.00  0.00    -0.387 OA
ATOM     15  H   UNL     1      -1.857  -0.874  -1.137  0.00  0.00    +0.210 HD
ENDBRANCH   3  14
ENDBRANCH   1   2
BRANCH   1  18
ATOM     16  C   UNL     1      -1.252   5.243  -0.357  0.00  0.00    +0.200 C 
ATOM     17  O   UNL     1      -2.170   5.942  -0.732  0.00  0.00    -0.278 OA
ATOM     18  N   UNL     1      -1.488   3.978   0.044  0.00  0.00    -0.309 N 
ATOM     19  H   UNL     1      -0.647   3.305   0.265  0.00  0.00    +0.149 HD
BRANCH  16  22
ATOM     20  C   UNL     1       1.427   7.400   0.998  0.00  0.00    -0.029 C 
ATOM     21  C   UNL     1       0.586   6.111   1.108  0.00  0.00    -0.005 C 
ATOM     22  C   UNL     1       0.152   5.790  -0.338  0.00  0.00    +0.019 C 
ATOM     23  N   UNL     1       0.210   7.095  -1.045  0.00  0.00    +0.386 N 
ATOM     24  C   UNL     1       1.430   7.749  -0.506  0.00  0.00    -0.075 C 
ATOM     25  C   UNL     1       0.313   6.903  -2.498  0.00  0.00    -0.095 C 
ATOM     26  H   UNL     1      -0.697   7.700  -0.896  0.00  0.00    -0.081 HD
BRANCH  20  27
ATOM     27  C   UNL     1       2.854   7.147   1.488  0.00  0.00    +0.001 C 
BRANCH  27  29
ATOM     28  C   UNL     1       5.061   8.210   1.978  0.00  0.00    +0.004 C 
ATOM     29  C   UNL     1       3.634   8.463   1.488  0.00  0.00    -0.003 C 
ENDBRANCH  27  29
ENDBRANCH  20  27
ENDBRANCH  16  22
ENDBRANCH   1  18
BRANCH   1  30
ATOM     30  C   UNL     1      -3.554   4.254   1.324  0.00  0.00    +0.134 C 
ATOM     31  C   UNL     1      -3.564   5.752   1.011  0.00  0.00    +0.039 C 
BRANCH  30  32
ATOM     32  O   UNL     1      -4.897   3.788   1.461  0.00  0.00    -0.390 OA
ATOM     33  H   UNL     1      -5.552   4.216   2.234  0.00  0.00    +0.210 HD
ENDBRANCH  30  32
ENDBRANCH   1  30
TORSDOF 11
