REMARK  Name = ZINC18597299
REMARK  6 active torsions:
REMARK  status: ('A' for Active; 'I' for Inactive)
REMARK    1  A    between atoms: C_1  and  C_2
REMARK    2  A    between atoms: C_2  and  C_4
REMARK    3  A    between atoms: C_2  and  S_19
REMARK    4  A    between atoms: N_6  and  C_7
REMARK    5  A    between atoms: S_19  and  C_20
REMARK    6  A    between atoms: C_23  and  C_26
REMARK                            x       y       z     vdW  Elec       q    Type
REMARK                         _______ _______ _______ _____ _____    ______ ____
ROOT
ATOM      1  C   UNL     1       5.282   4.297  -1.703  0.00  0.00    +0.029 C 
ATOM      2  C   UNL     1       4.854   4.246  -0.235  0.00  0.00    +0.137 C 
ENDROOT
BRANCH   2   3
ATOM      3  C   UNL     1       3.564   3.478  -0.113  0.00  0.00    +0.230 C 
ATOM      4  O   UNL     1       2.505   4.069  -0.100  0.00  0.00    -0.274 OA
ATOM      5  N   UNL     1       3.586   2.134  -0.019  0.00  0.00    -0.285 N 
ATOM      6  H   UNL     1       4.433   1.665   0.037  0.00  0.00    +0.155 HD
BRANCH   5   7
ATOM      7  C   UNL     1       2.385   1.413  -0.004  0.00  0.00    +0.035 A 
ATOM      8  C   UNL     1       2.317   0.165  -0.614  0.00  0.00    +0.025 A 
ATOM      9  C   UNL     1       1.136  -0.550  -0.602  0.00  0.00    +0.029 A 
ATOM     10  C   UNL     1       0.014  -0.024   0.019  0.00  0.00    +0.067 A 
ATOM     11  C   UNL     1       0.079   1.229   0.633  0.00  0.00    +0.069 A 
ATOM     12  C   UNL     1       1.266   1.945   0.620  0.00  0.00    +0.051 A 
ATOM     13  N   UNL     1      -1.184   1.485   1.162  0.00  0.00    -0.306 N 
ATOM     14  H   UNL     1      -1.444   2.282   1.649  0.00  0.00    +0.170 HD
ATOM     15  C   UNL     1      -1.981   0.437   0.884  0.00  0.00    +0.325 A 
ATOM     16  O   UNL     1      -3.151   0.341   1.206  0.00  0.00    -0.247 OA
ATOM     17  N   UNL     1      -1.289  -0.490   0.195  0.00  0.00    -0.306 N 
ATOM     18  H   UNL     1      -1.636  -1.337  -0.124  0.00  0.00    +0.170 HD
ENDBRANCH   5   7
ENDBRANCH   2   3
BRANCH   2  19
ATOM     19  S   UNL     1       4.614   5.931   0.383  0.00  0.00    -0.075 S 
BRANCH  19  20
ATOM     20  C   UNL     1       6.265   6.536   0.270  0.00  0.00    +0.167 A 
ATOM     21  N   UNL     1       6.676   7.789   0.609  0.00  0.00    -0.333 N 
ATOM     22  H   UNL     1       6.104   8.528   0.963  0.00  0.00    +0.168 HD
ATOM     23  C   UNL     1       8.039   7.843   0.371  0.00  0.00    +0.067 A 
ATOM     24  C   UNL     1       8.398   6.625  -0.112  0.00  0.00    +0.139 A 
ATOM     25  N   UNL     1       7.303   5.855  -0.162  0.00  0.00    -0.230 NA
BRANCH  23  26
ATOM     26  C   UNL     1       8.929   9.002   0.594  0.00  0.00    -0.000 A 
ATOM     27  C   UNL     1       8.411  10.198   1.094  0.00  0.00    +0.011 A 
ATOM     28  C   UNL     1       9.247  11.274   1.303  0.00  0.00    +0.016 A 
ATOM     29  C   UNL     1      10.596  11.174   1.009  0.00  0.00    +0.018 A 
ATOM     30  C   UNL     1      11.116   9.992   0.508  0.00  0.00    +0.016 A 
ATOM     31  C   UNL     1      10.290   8.907   0.299  0.00  0.00    +0.011 A 
ATOM     32 BR   UNL     1      11.735  12.657   1.292  0.00  0.00    -0.050 Br
ENDBRANCH  23  26
ENDBRANCH  19  20
ENDBRANCH   2  19
TORSDOF 5
