REMARK  Name = ZINC21254752
REMARK  8 active torsions:
REMARK  status: ('A' for Active; 'I' for Inactive)
REMARK    1  A    between atoms: C_1  and  N_2
REMARK    2  A    between atoms: N_2  and  C_3
REMARK    3  A    between atoms: N_2  and  C_4
REMARK    4  A    between atoms: C_7  and  C_10
REMARK    5  A    between atoms: C_15  and  C_25
REMARK    6  A    between atoms: C_28  and  O_32
REMARK    7  A    between atoms: C_29  and  O_31
REMARK    8  A    between atoms: O_32  and  C_33
REMARK                            x       y       z     vdW  Elec       q    Type
REMARK                         _______ _______ _______ _____ _____    ______ ____
ROOT
ATOM      1  C   UNL     1      -0.381   1.318  -0.649  0.00  0.00    +0.032 C 
ATOM      2  C   UNL     1      -1.836   0.855  -0.697  0.00  0.00    +0.059 C 
ATOM      3  C   UNL     1      -2.617   1.482   0.445  0.00  0.00    +0.017 C 
ATOM      4  C   UNL     1      -2.016   1.745   1.619  0.00  0.00    +0.036 C 
ATOM      5  C   UNL     1      -2.672   2.360   2.832  0.00  0.00    +0.136 C 
ATOM      6  N   UNL     1      -4.116   2.433   2.763  0.00  0.00    -0.331 N 
ATOM      7  C   UNL     1      -4.750   3.230   1.812  0.00  0.00    +0.049 A 
ATOM      8  C   UNL     1      -5.515   4.325   2.178  0.00  0.00    +0.025 A 
ATOM      9  C   UNL     1      -6.087   5.114   1.195  0.00  0.00    +0.002 A 
ATOM     10  C   UNL     1      -5.895   4.817  -0.142  0.00  0.00    +0.002 A 
ATOM     11  C   UNL     1      -5.145   3.713  -0.511  0.00  0.00    +0.025 A 
ATOM     12  C   UNL     1      -4.592   2.910   0.471  0.00  0.00    +0.052 A 
ATOM     13  N   UNL     1      -3.925   1.726   0.175  0.00  0.00    -0.316 N 
ATOM     14  C   UNL     1      -0.639   1.456   1.798  0.00  0.00    +0.163 C 
ATOM     15  O   UNL     1      -0.123   1.681   2.875  0.00  0.00    -0.292 OA
ATOM     16  C   UNL     1       0.204   0.881   0.699  0.00  0.00    +0.088 C 
ATOM     17  H   UNL     1      -4.730   1.853   3.468  0.00  0.00    +0.147 HD
ATOM     18  H   UNL     1      -4.538   0.955  -0.314  0.00  0.00    +0.152 HD
ENDROOT
BRANCH   1  22
ATOM     19  C   UNL     1       1.821  -0.487  -3.837  0.00  0.00    +0.029 A 
ATOM     20  C   UNL     1       1.753   0.897  -3.734  0.00  0.00    +0.023 A 
ATOM     21  C   UNL     1       1.041   1.476  -2.703  0.00  0.00    +0.006 A 
ATOM     22  C   UNL     1       0.395   0.681  -1.773  0.00  0.00    -0.043 A 
ATOM     23  C   UNL     1       0.466  -0.696  -1.870  0.00  0.00    +0.006 A 
ATOM     24  C   UNL     1       1.172  -1.283  -2.901  0.00  0.00    +0.023 A 
BRANCH  19  26
ATOM     25  C   UNL     1       3.326  -0.242  -5.791  0.00  0.00    +0.129 C 
ATOM     26  N   UNL     1       2.541  -1.077  -4.879  0.00  0.00    -0.336 N 
ATOM     27  C   UNL     1       2.510  -2.530  -5.059  0.00  0.00    +0.129 C 
ENDBRANCH  19  26
ENDBRANCH   1  22
BRANCH   5  28
ATOM     28  C   UNL     1      -2.131   3.755   3.011  0.00  0.00    -0.019 A 
ATOM     29  C   UNL     1      -2.359   4.713   2.040  0.00  0.00    +0.009 A 
ATOM     30  C   UNL     1      -1.869   5.995   2.202  0.00  0.00    +0.050 A 
ATOM     31  C   UNL     1      -1.140   6.321   3.334  0.00  0.00    +0.161 A 
ATOM     32  C   UNL     1      -0.907   5.356   4.309  0.00  0.00    +0.159 A 
ATOM     33  C   UNL     1      -1.405   4.073   4.143  0.00  0.00    +0.055 A 
BRANCH  32  34
ATOM     34  O   UNL     1      -0.191   5.670   5.422  0.00  0.00    -0.503 OA
ATOM     35  H   UNL     1      -0.007   4.907   6.192  0.00  0.00    +0.292 HD
ENDBRANCH  32  34
BRANCH  31  36
ATOM     36  O   UNL     1      -0.654   7.581   3.492  0.00  0.00    -0.491 OA
ATOM     37  C   UNL     1      -0.932   8.520   2.451  0.00  0.00    +0.277 C 
ENDBRANCH  31  36
ENDBRANCH   5  28
TORSDOF 5
