REMARK  Name = ZINC64199021
REMARK  5 active torsions:
REMARK  status: ('A' for Active; 'I' for Inactive)
REMARK    1  A    between atoms: C_1  and  C_2
REMARK    2  A    between atoms: N_4  and  C_5
REMARK    3  A    between atoms: C_8  and  N_11
REMARK    4  A    between atoms: C_16  and  C_33
REMARK    5  A    between atoms: C_33  and  C_34
REMARK                            x       y       z     vdW  Elec       q    Type
REMARK                         _______ _______ _______ _____ _____    ______ ____
ROOT
ATOM      1  N   UNL     1      -0.859  -6.249   0.337  0.00  0.00    -0.210 N 
ATOM      2  C   UNL     1       0.316  -6.939   0.430  0.00  0.00    +0.232 C 
ATOM      3  O   UNL     1       1.404  -6.495   0.731  0.00  0.00    -0.274 OA
ATOM      4  C   UNL     1      -0.019  -8.364   0.084  0.00  0.00    +0.107 C 
ATOM      5  C   UNL     1       0.582  -9.499   0.921  0.00  0.00    +0.072 C 
ATOM      6  N   UNL     1      -0.516 -10.522   0.928  0.00  0.00    -0.295 NA
ATOM      7  C   UNL     1      -1.809  -9.788   0.761  0.00  0.00    +0.136 C 
ATOM      8  C   UNL     1      -1.454  -8.359   0.751  0.00  0.00    +0.123 C 
ATOM      9  C   UNL     1      -1.959  -7.070   0.339  0.00  0.00    +0.233 C 
ATOM     10  O   UNL     1      -3.101  -6.779   0.056  0.00  0.00    -0.274 OA
ATOM     11  C   UNL     1      -2.484 -10.243  -0.507  0.00  0.00    +0.003 A 
ATOM     12  C   UNL     1      -2.139 -10.171  -1.838  0.00  0.00    +0.008 A 
ATOM     13  C   UNL     1      -2.986 -10.689  -2.801  0.00  0.00    +0.000 A 
ATOM     14  C   UNL     1      -4.178 -11.280  -2.424  0.00  0.00    +0.002 A 
ATOM     15  C   UNL     1      -4.527 -11.356  -1.092  0.00  0.00    +0.023 A 
ATOM     16  C   UNL     1      -3.679 -10.837  -0.115  0.00  0.00    +0.039 A 
ATOM     17  N   UNL     1      -3.807 -10.794   1.274  0.00  0.00    -0.283 N 
ATOM     18  C   UNL     1      -2.756 -10.197   1.863  0.00  0.00    +0.243 C 
ATOM     19  O   UNL     1      -2.598 -10.022   3.053  0.00  0.00    -0.273 OA
ATOM     20  H   UNL     1      -0.386 -11.197   0.189  0.00  0.00    +0.124 HD
ATOM     21  H   UNL     1      -4.567 -11.153   1.759  0.00  0.00    +0.155 HD
ENDROOT
BRANCH   1  25
ATOM     22  C   UNL     1      -1.081  -2.090   0.091  0.00  0.00    +0.033 A 
ATOM     23  C   UNL     1       0.156  -2.715   0.178  0.00  0.00    +0.025 A 
ATOM     24  C   UNL     1       0.229  -4.091   0.259  0.00  0.00    +0.026 A 
ATOM     25  C   UNL     1      -0.934  -4.850   0.255  0.00  0.00    +0.044 A 
ATOM     26  C   UNL     1      -2.170  -4.225   0.169  0.00  0.00    +0.026 A 
ATOM     27  C   UNL     1      -2.244  -2.849   0.093  0.00  0.00    +0.025 A 
BRANCH  22  31
ATOM     28  C   UNL     1      -2.194   1.470   0.609  0.00  0.00    +0.109 C 
ATOM     29  C   UNL     1      -2.169  -0.037   0.608  0.00  0.00    +0.214 C 
ATOM     30  O   UNL     1      -3.061  -0.658   1.146  0.00  0.00    -0.276 OA
ATOM     31  N   UNL     1      -1.156  -0.694   0.009  0.00  0.00    -0.286 N 
ATOM     32  H   UNL     1      -0.478  -0.200  -0.478  0.00  0.00    +0.155 HD
ENDBRANCH  22  31
ENDBRANCH   1  25
BRANCH   5  33
ATOM     33  C   UNL     1       0.892  -9.021   2.341  0.00  0.00    +0.052 C 
BRANCH  33  34
ATOM     34  C   UNL     1       1.592 -10.119   3.100  0.00  0.00    -0.040 C 
ATOM     35  C   UNL     1       2.926 -10.277   3.255  0.00  0.00    -0.001 A 
ATOM     36  C   UNL     1       4.081  -9.504   2.782  0.00  0.00    +0.010 A 
ATOM     37  C   UNL     1       5.326  -9.920   3.106  0.00  0.00    +0.001 A 
ATOM     38  C   UNL     1       5.541 -11.068   3.880  0.00  0.00    +0.002 A 
ATOM     39  C   UNL     1       4.531 -11.830   4.351  0.00  0.00    +0.026 A 
ATOM     40  C   UNL     1       3.180 -11.485   4.072  0.00  0.00    +0.043 A 
ATOM     41  N   UNL     1       2.047 -12.053   4.407  0.00  0.00    -0.380 N 
ATOM     42  C   UNL     1       0.945 -11.264   3.847  0.00  0.00    +0.144 C 
ATOM     43  H   UNL     1       1.953 -12.857   4.941  0.00  0.00    +0.160 HD
ENDBRANCH  33  34
ENDBRANCH   5  33
TORSDOF 4
