REMARK  Name = ZINC34786222
REMARK  12 active torsions:
REMARK  status: ('A' for Active; 'I' for Inactive)
REMARK    1  A    between atoms: C_1  and  C_2
REMARK    2  A    between atoms: C_2  and  C_3
REMARK    3  A    between atoms: C_4  and  C_33
REMARK    4  A    between atoms: C_6  and  N_13
REMARK    5  A    between atoms: C_7  and  C_8
REMARK    6  A    between atoms: C_8  and  O_10
REMARK    7  A    between atoms: O_10  and  C_11
REMARK    8  A    between atoms: C_11  and  C_12
REMARK    9  A    between atoms: N_19  and  C_22
REMARK   10  A    between atoms: C_22  and  C_23
REMARK   11  A    between atoms: N_25  and  C_26
REMARK   12  A    between atoms: C_29  and  C_32
REMARK                            x       y       z     vdW  Elec       q    Type
REMARK                         _______ _______ _______ _____ _____    ______ ____
ROOT
ATOM      1  N   UNL     1       2.619  -2.089   5.353  0.00  0.00    -0.263 N 
ATOM      2  C   UNL     1       1.321  -1.992   5.701  0.00  0.00    +0.307 C 
ATOM      3  O   UNL     1       0.516  -1.522   4.920  0.00  0.00    -0.252 OA
ATOM      4  N   UNL     1       0.915  -2.417   6.914  0.00  0.00    -0.289 N 
ATOM      5  C   UNL     1      -0.512  -2.433   7.271  0.00  0.00    +0.091 C 
ATOM      6  C   UNL     1      -0.683  -1.729   8.620  0.00  0.00    -0.059 C 
ATOM      7  N   UNL     1       0.197  -2.356   9.614  0.00  0.00    +0.387 N 
ATOM      8  C   UNL     1       1.602  -2.152   9.237  0.00  0.00    -0.059 C 
ATOM      9  C   UNL     1       1.885  -2.883   7.916  0.00  0.00    +0.091 C 
ATOM     10  H   UNL     1       3.273  -2.396   6.000  0.00  0.00    +0.157 HD
ATOM     11  H   UNL     1       0.002  -3.345   9.658  0.00  0.00    -0.081 HD
ENDROOT
BRANCH   1  15
ATOM     12  C   UNL     1       4.442  -1.376   2.160  0.00  0.00    -0.022 A 
ATOM     13  C   UNL     1       3.307  -1.002   1.542  0.00  0.00    -0.008 A 
ATOM     14  S   UNL     1       2.068  -1.201   2.803  0.00  0.00    -0.078 S 
ATOM     15  C   UNL     1       3.020  -1.750   4.070  0.00  0.00    +0.087 A 
ATOM     16  C   UNL     1       4.301  -1.793   3.537  0.00  0.00    +0.091 A 
ATOM     17  C   UNL     1       3.128  -0.527   0.123  0.00  0.00    +0.052 C 
BRANCH  12  19
ATOM     18  C   UNL     1       6.008  -2.722   0.787  0.00  0.00    +0.009 C 
ATOM     19  C   UNL     1       5.775  -1.367   1.458  0.00  0.00    +0.033 C 
ENDBRANCH  12  19
BRANCH  16  20
ATOM     20  C   UNL     1       5.451  -2.232   4.330  0.00  0.00    +0.342 C 
ATOM     21  O   UNL     1       6.090  -1.422   4.975  0.00  0.00    -0.245 OA
BRANCH  20  22
ATOM     22  O   UNL     1       5.803  -3.534   4.344  0.00  0.00    -0.461 OA
BRANCH  22  23
ATOM     23  C   UNL     1       6.936  -3.891   5.139  0.00  0.00    +0.229 C 
ATOM     24  C   UNL     1       7.180  -5.398   5.030  0.00  0.00    +0.048 C 
ENDBRANCH  22  23
ENDBRANCH  20  22
ENDBRANCH  16  20
ENDBRANCH   1  15
BRANCH   7  25
ATOM     25  C   UNL     1      -0.047  -1.754  10.931  0.00  0.00    +0.019 C 
BRANCH  25  26
ATOM     26  C   UNL     1       0.765  -2.479  11.973  0.00  0.00    +0.201 C 
ATOM     27  O   UNL     1       1.478  -3.406  11.650  0.00  0.00    -0.278 OA
ATOM     28  N   UNL     1       0.701  -2.097  13.264  0.00  0.00    -0.287 N 
ATOM     29  H   UNL     1       0.081  -1.401  13.534  0.00  0.00    +0.155 HD
BRANCH  28  30
ATOM     30  C   UNL     1       1.527  -2.705  14.216  0.00  0.00    +0.033 A 
ATOM     31  C   UNL     1       2.029  -1.963  15.277  0.00  0.00    +0.023 A 
ATOM     32  C   UNL     1       2.844  -2.567  16.215  0.00  0.00    +0.005 A 
ATOM     33  C   UNL     1       3.160  -3.908  16.098  0.00  0.00    -0.050 A 
ATOM     34  C   UNL     1       2.662  -4.649  15.042  0.00  0.00    +0.005 A 
ATOM     35  C   UNL     1       1.842  -4.053  14.105  0.00  0.00    +0.023 A 
ATOM     36  C   UNL     1       4.050  -4.562  17.123  0.00  0.00    +0.044 C 
ENDBRANCH  28  30
ENDBRANCH  25  26
ENDBRANCH   7  25
TORSDOF 8
