REMARK  Name = ZINC04018288
REMARK  14 active torsions:
REMARK  status: ('A' for Active; 'I' for Inactive)
REMARK    1  A    between atoms: C_4  and  C_7
REMARK    2  A    between atoms: C_7  and  C_8
REMARK    3  A    between atoms: C_8  and  C_10
REMARK    4  A    between atoms: C_8  and  N_35
REMARK    5  A    between atoms: N_12  and  C_13
REMARK    6  A    between atoms: C_13  and  C_15
REMARK    7  A    between atoms: C_13  and  C_22
REMARK    8  A    between atoms: C_15  and  C_16
REMARK    9  A    between atoms: C_22  and  O_24
REMARK   10  A    between atoms: O_24  and  C_25
REMARK   11  A    between atoms: C_25  and  C_26
REMARK   12  A    between atoms: C_29  and  N_32
REMARK   13  A    between atoms: C_36  and  C_38
REMARK   14  A    between atoms: C_38  and  N_65
REMARK                            x       y       z     vdW  Elec       q    Type
REMARK                         _______ _______ _______ _____ _____    ______ ____
ROOT
ATOM      1  C   UNL     1       0.631   8.148   3.920  0.00  0.00    +0.234 C 
ATOM      2  O   UNL     1       0.204   7.581   4.904  0.00  0.00    -0.274 OA
ATOM      3  N   UNL     1       1.125   7.431   2.890  0.00  0.00    -0.301 N 
ATOM      4  H   UNL     1       1.467   7.884   2.104  0.00  0.00    +0.150 HD
ENDROOT
BRANCH   1   5
ATOM      5  C   UNL     1       0.610   9.653   3.849  0.00  0.00    +0.163 C 
BRANCH   5   6
ATOM      6  N   UNL     1      -0.365  10.173   4.811  0.00  0.00    -0.305 N 
ATOM      7  C   UNL     1      -0.221   9.911   6.125  0.00  0.00    +0.196 C 
ATOM      8  O   UNL     1       0.716   9.245   6.511  0.00  0.00    -0.278 OA
ATOM      9  H   UNL     1      -1.114  10.707   4.501  0.00  0.00    +0.149 HD
BRANCH   7  10
ATOM     10  C   UNL     1      -1.224  10.447   7.114  0.00  0.00    +0.011 C 
BRANCH  10  13
ATOM     11  H   UNL     1      -1.504  10.373   9.152  0.00  0.00    -0.089 HD
ATOM     12  H   UNL     1      -0.763   9.022   8.527  0.00  0.00    -0.089 HD
ATOM     13  N   UNL     1      -0.824  10.037   8.472  0.00  0.00    +0.384 N 
ATOM     14  H   UNL     1       0.094  10.441   8.690  0.00  0.00    -0.089 HD
ENDBRANCH  10  13
ENDBRANCH   7  10
ENDBRANCH   5   6
BRANCH   5  15
ATOM     15  C   UNL     1       2.000  10.199   4.185  0.00  0.00    +0.067 C 
BRANCH  15  19
ATOM     16  C   UNL     1       2.034  14.436   3.646  0.00  0.00    +0.000 A 
ATOM     17  C   UNL     1       1.694  13.898   4.873  0.00  0.00    +0.000 A 
ATOM     18  C   UNL     1       1.683  12.527   5.048  0.00  0.00    +0.004 A 
ATOM     19  C   UNL     1       2.011  11.694   3.995  0.00  0.00    -0.045 A 
ATOM     20  C   UNL     1       2.356  12.232   2.769  0.00  0.00    +0.004 A 
ATOM     21  C   UNL     1       2.362  13.603   2.593  0.00  0.00    +0.000 A 
ENDBRANCH  15  19
ENDBRANCH   5  15
ENDBRANCH   1   5
BRANCH   3  22
ATOM     22  C   UNL     1       1.146   5.968   2.960  0.00  0.00    +0.186 C 
BRANCH  22  23
ATOM     23  C   UNL     1       1.140   5.399   1.564  0.00  0.00    +0.328 C 
ATOM     24  O   UNL     1       1.121   6.140   0.610  0.00  0.00    -0.249 OA
BRANCH  23  25
ATOM     25  O   UNL     1       1.157   4.069   1.381  0.00  0.00    -0.459 OA
BRANCH  25  26
ATOM     26  C   UNL     1       1.151   3.592   0.010  0.00  0.00    +0.267 C 
BRANCH  26  27
ATOM     27  C   UNL     1       1.171   2.086   0.002  0.00  0.00    -0.010 A 
ATOM     28  C   UNL     1      -0.017   1.378   0.010  0.00  0.00    +0.009 A 
ATOM     29  C   UNL     1       0.002  -0.004   0.002  0.00  0.00    +0.033 A 
ATOM     30  C   UNL     1       1.208  -0.679  -0.014  0.00  0.00    +0.126 A 
ATOM     31  C   UNL     1       2.396   0.029  -0.021  0.00  0.00    +0.033 A 
ATOM     32  C   UNL     1       2.377   1.411  -0.014  0.00  0.00    +0.009 A 
BRANCH  30  33
ATOM     33  N   UNL     1       1.228  -2.159  -0.022  0.00  0.00    +0.056 N 
ATOM     34  O   UNL     1       0.182  -2.782  -0.015  0.00  0.00    -0.126 OA
ATOM     35  O   UNL     1       2.291  -2.753  -0.036  0.00  0.00    -0.126 OA
ENDBRANCH  30  33
ENDBRANCH  26  27
ENDBRANCH  25  26
ENDBRANCH  23  25
ENDBRANCH  22  23
BRANCH  22  36
ATOM     36  C   UNL     1       2.408   5.510   3.692  0.00  0.00    +0.069 C 
BRANCH  36  37
ATOM     37  C   UNL     1       2.355   5.976   5.125  0.00  0.00    -0.045 A 
ATOM     38  C   UNL     1       2.885   7.204   5.472  0.00  0.00    +0.004 A 
ATOM     39  C   UNL     1       2.832   7.634   6.785  0.00  0.00    +0.000 A 
ATOM     40  C   UNL     1       2.257   6.830   7.752  0.00  0.00    +0.000 A 
ATOM     41  C   UNL     1       1.732   5.599   7.406  0.00  0.00    +0.000 A 
ATOM     42  C   UNL     1       1.781   5.172   6.092  0.00  0.00    +0.004 A 
ENDBRANCH  36  37
ENDBRANCH  22  36
ENDBRANCH   3  22
TORSDOF 14
