REMARK  Name = ZINC39035092
REMARK  7 active torsions:
REMARK  status: ('A' for Active; 'I' for Inactive)
REMARK    1  A    between atoms: C_1  and  C_2
REMARK    2  A    between atoms: C_7  and  C_9
REMARK    3  A    between atoms: C_9  and  S_10
REMARK    4  A    between atoms: S_10  and  C_11
REMARK    5  A    between atoms: C_15  and  C_19
REMARK    6  A    between atoms: N_17  and  C_18
REMARK    7  A    between atoms: C_24  and  O_25
REMARK                            x       y       z     vdW  Elec       q    Type
REMARK                         _______ _______ _______ _____ _____    ______ ____
ROOT
ATOM      1  C   UNL     1       0.132  -7.885   4.045  0.00  0.00    +0.077 C 
ATOM      2  N   UNL     1      -1.022  -7.547   4.919  0.00  0.00    -0.262 NA
ATOM      3  N   UNL     1      -0.591  -7.938   6.263  0.00  0.00    -0.266 NA
ATOM      4  C   UNL     1       0.886  -7.930   6.259  0.00  0.00    +0.053 C 
ATOM      5  N   UNL     1       1.304  -7.538   4.891  0.00  0.00    +0.409 N 
ATOM      6  C   UNL     1       2.486  -8.304   4.471  0.00  0.00    -0.090 C 
ATOM      7  H   UNL     1      -1.848  -8.056   4.641  0.00  0.00    +0.140 HD
ATOM      8  H   UNL     1      -0.947  -8.850   6.506  0.00  0.00    +0.139 HD
ATOM      9  H   UNL     1       1.490  -6.548   4.849  0.00  0.00    -0.076 HD
ENDROOT
BRANCH   4  10
ATOM     10  C   UNL     1       1.400  -6.932   7.264  0.00  0.00    -0.004 A 
ATOM     11  C   UNL     1       2.533  -6.191   6.987  0.00  0.00    +0.022 A 
ATOM     12  C   UNL     1       3.005  -5.276   7.909  0.00  0.00    +0.018 A 
ATOM     13  C   UNL     1       2.345  -5.099   9.112  0.00  0.00    +0.019 A 
ATOM     14  C   UNL     1       1.212  -5.837   9.394  0.00  0.00    +0.047 A 
ATOM     15  C   UNL     1       0.733  -6.753   8.467  0.00  0.00    +0.120 A 
ATOM     16 BR   UNL     1       4.556  -4.264   7.527  0.00  0.00    -0.050 Br
BRANCH  15  17
ATOM     17  O   UNL     1      -0.384  -7.476   8.741  0.00  0.00    -0.507 OA
ATOM     18  H   UNL     1      -0.210  -8.315   9.190  0.00  0.00    +0.292 HD
ENDBRANCH  15  17
ENDBRANCH   4  10
BRANCH   1  19
ATOM     19  S   UNL     1       0.110  -6.881   2.534  0.00  0.00    -0.150 S 
BRANCH  19  20
ATOM     20  C   UNL     1       0.090  -5.172   3.144  0.00  0.00    +0.164 C 
BRANCH  20  27
ATOM     21  C   UNL     1      -0.018   1.503   0.010  0.00  0.00    +0.066 C 
ATOM     22  C   UNL     1       0.002  -0.004   0.002  0.00  0.00    +0.047 A 
ATOM     23  C   UNL     1       0.006  -0.706  -1.158  0.00  0.00    +0.071 A 
ATOM     24  S   UNL     1       0.032  -2.379  -0.535  0.00  0.00    -0.060 S 
ATOM     25  C   UNL     1       0.036  -2.015   1.108  0.00  0.00    +0.165 A 
ATOM     26  N   UNL     1       0.053  -2.891   2.187  0.00  0.00    -0.264 N 
ATOM     27  C   UNL     1       0.070  -4.222   1.974  0.00  0.00    +0.228 C 
ATOM     28  O   UNL     1       0.070  -4.655   0.841  0.00  0.00    -0.275 OA
ATOM     29  N   UNL     1       0.023  -0.700   1.124  0.00  0.00    -0.230 NA
ATOM     30  H   UNL     1       0.054  -2.545   3.093  0.00  0.00    +0.157 HD
ENDBRANCH  20  27
ENDBRANCH  19  20
ENDBRANCH   1  19
TORSDOF 5
