REMARK  Name = ZINC43218933
REMARK  8 active torsions:
REMARK  status: ('A' for Active; 'I' for Inactive)
REMARK    1  A    between atoms: C_1  and  C_2
REMARK    2  A    between atoms: C_2  and  C_3
REMARK    3  A    between atoms: C_2  and  C_4
REMARK    4  A    between atoms: C_2  and  N_5
REMARK    5  A    between atoms: C_10  and  C_27
REMARK    6  A    between atoms: C_13  and  C_18
REMARK    7  A    between atoms: C_13  and  C_24
REMARK    8  A    between atoms: C_32  and  O_33
REMARK                            x       y       z     vdW  Elec       q    Type
REMARK                         _______ _______ _______ _____ _____    ______ ____
ROOT
ATOM      1  N   UNL     1       1.046  -0.340  -1.054  0.00  0.00    -0.236 N 
ATOM      2  C   UNL     1       0.322  -1.123  -1.919  0.00  0.00    +0.225 C 
ATOM      3  O   UNL     1      -0.874  -1.324  -1.911  0.00  0.00    -0.275 OA
ATOM      4  C   UNL     1       1.297  -1.654  -2.838  0.00  0.00    +0.077 C 
ATOM      5  C   UNL     1       1.387  -2.243  -4.185  0.00  0.00    -0.023 C 
ATOM      6  N   UNL     1       2.873  -2.269  -4.419  0.00  0.00    +0.398 N 
ATOM      7  C   UNL     1       3.492  -1.237  -3.535  0.00  0.00    +0.074 C 
ATOM      8  C   UNL     1       2.307  -0.444  -2.963  0.00  0.00    +0.090 C 
ATOM      9  C   UNL     1       2.312  -0.090  -1.502  0.00  0.00    +0.226 C 
ATOM     10  O   UNL     1       3.248   0.328  -0.855  0.00  0.00    -0.275 OA
ATOM     11  H   UNL     1       3.239  -3.180  -4.189  0.00  0.00    -0.083 HD
ATOM     12  H   UNL     1       3.070  -2.054  -5.385  0.00  0.00    -0.083 HD
ENDROOT
BRANCH   5  13
ATOM     13  C   UNL     1       0.816  -3.638  -4.202  0.00  0.00    -0.018 A 
ATOM     14  C   UNL     1       0.589  -4.306  -3.014  0.00  0.00    +0.020 A 
ATOM     15  C   UNL     1       0.064  -5.586  -3.028  0.00  0.00    +0.018 A 
ATOM     16  C   UNL     1      -0.235  -6.199  -4.232  0.00  0.00    +0.019 A 
ATOM     17  C   UNL     1      -0.010  -5.535  -5.422  0.00  0.00    +0.047 A 
ATOM     18  C   UNL     1       0.512  -4.249  -5.409  0.00  0.00    +0.119 A 
ATOM     19 BR   UNL     1      -0.244  -6.498  -1.401  0.00  0.00    -0.050 Br
BRANCH  18  20
ATOM     20  O   UNL     1       0.729  -3.591  -6.579  0.00  0.00    -0.507 OA
ATOM     21  H   UNL     1       1.609  -3.736  -6.953  0.00  0.00    +0.292 HD
ENDBRANCH  18  20
ENDBRANCH   5  13
BRANCH   7  22
ATOM     22  C   UNL     1       4.287  -1.898  -2.439  0.00  0.00    -0.047 A 
ATOM     23  C   UNL     1       5.286  -1.197  -1.790  0.00  0.00    +0.003 A 
ATOM     24  C   UNL     1       6.015  -1.804  -0.784  0.00  0.00    +0.000 A 
ATOM     25  C   UNL     1       5.745  -3.111  -0.427  0.00  0.00    +0.000 A 
ATOM     26  C   UNL     1       4.745  -3.812  -1.075  0.00  0.00    +0.000 A 
ATOM     27  C   UNL     1       4.013  -3.204  -2.078  0.00  0.00    +0.003 A 
ENDBRANCH   7  22
BRANCH   1  29
ATOM     28  C   UNL     1       0.549   1.707   0.189  0.00  0.00    +0.031 C 
ATOM     29  C   UNL     1       0.515   0.177   0.210  0.00  0.00    +0.036 C 
ATOM     30  C   UNL     1       1.370  -0.336   1.370  0.00  0.00    +0.031 C 
ATOM     31  C   UNL     1      -0.928  -0.298   0.390  0.00  0.00    +0.031 C 
ENDBRANCH   1  29
BRANCH   7  32
ATOM     32  C   UNL     1       4.376  -0.321  -4.342  0.00  0.00    +0.350 C 
ATOM     33  O   UNL     1       4.516  -0.507  -5.538  0.00  0.00    -0.248 OA
ATOM     34  O   UNL     1       4.951   0.607  -3.798  0.00  0.00    -0.248 OA
ENDBRANCH   7  32
TORSDOF 5
