REMARK  Name = ZINC63818637
REMARK  9 active torsions:
REMARK  status: ('A' for Active; 'I' for Inactive)
REMARK    1  A    between atoms: C_1  and  O_2
REMARK    2  A    between atoms: O_2  and  C_3
REMARK    3  A    between atoms: C_9  and  C_12
REMARK    4  A    between atoms: C_12  and  C_13
REMARK    5  A    between atoms: C_13  and  N_14
REMARK    6  A    between atoms: C_15  and  C_17
REMARK    7  A    between atoms: C_20  and  C_24
REMARK    8  A    between atoms: C_24  and  C_25
REMARK    9  A    between atoms: N_27  and  C_28
REMARK                            x       y       z     vdW  Elec       q    Type
REMARK                         _______ _______ _______ _____ _____    ______ ____
ROOT
ATOM      1  N   UNL     1      -0.760  -6.778  -1.506  0.00  0.00    -0.312 N 
ATOM      2  C   UNL     1      -1.933  -7.380  -1.786  0.00  0.00    +0.259 C 
ATOM      3  O   UNL     1      -2.632  -6.956  -2.682  0.00  0.00    -0.271 OA
ATOM      4  H   UNL     1      -0.200  -7.117  -0.790  0.00  0.00    +0.149 HD
ENDROOT
BRANCH   2   5
ATOM      5  C   UNL     1      -2.374  -8.579  -0.988  0.00  0.00    +0.297 C 
ATOM      6  N   UNL     1      -1.499  -9.739  -1.273  0.00  0.00    -0.265 NA
ATOM      7  C   UNL     1      -1.335 -10.459   0.008  0.00  0.00    +0.158 C 
ATOM      8  N   UNL     1      -2.118  -9.691   1.005  0.00  0.00    -0.181 NA
ATOM      9  O   UNL     1      -2.210  -8.331   0.427  0.00  0.00    -0.270 OA
ATOM     10  H   UNL     1      -1.910 -10.338  -1.974  0.00  0.00    +0.126 HD
ATOM     11  H   UNL     1      -1.649  -9.674   1.898  0.00  0.00    +0.156 HD
BRANCH   7  12
ATOM     12  C   UNL     1      -1.882 -11.883  -0.112  0.00  0.00    +0.132 C 
BRANCH  12  13
ATOM     13  C   UNL     1      -1.707 -12.601   1.201  0.00  0.00    +0.220 C 
ATOM     14  O   UNL     1      -1.195 -12.030   2.141  0.00  0.00    -0.275 OA
ATOM     15  N   UNL     1      -2.119 -13.877   1.332  0.00  0.00    -0.285 N 
ATOM     16  H   UNL     1      -2.588 -14.312   0.603  0.00  0.00    +0.155 HD
BRANCH  15  17
ATOM     17  C   UNL     1      -1.869 -14.575   2.518  0.00  0.00    +0.033 A 
ATOM     18  C   UNL     1      -1.904 -13.910   3.737  0.00  0.00    +0.023 A 
ATOM     19  C   UNL     1      -1.657 -14.602   4.907  0.00  0.00    +0.002 A 
ATOM     20  C   UNL     1      -1.376 -15.955   4.865  0.00  0.00    +0.000 A 
ATOM     21  C   UNL     1      -1.339 -16.620   3.653  0.00  0.00    +0.002 A 
ATOM     22  C   UNL     1      -1.591 -15.935   2.481  0.00  0.00    +0.023 A 
ENDBRANCH  15  17
ENDBRANCH  12  13
ENDBRANCH   7  12
ENDBRANCH   2   5
BRANCH   1  23
ATOM     23  C   UNL     1      -0.330  -5.612  -2.281  0.00  0.00    +0.108 C 
BRANCH  23  24
ATOM     24  C   UNL     1       1.025  -5.126  -1.763  0.00  0.00    +0.052 C 
BRANCH  24  31
ATOM     25  C   UNL     1       0.611  -0.607  -1.051  0.00  0.00    +0.121 A 
ATOM     26  C   UNL     1       1.172   0.196  -2.059  0.00  0.00    +0.047 A 
ATOM     27  C   UNL     1       1.781  -0.323  -3.146  0.00  0.00    +0.029 A 
ATOM     28  C   UNL     1       1.874  -1.778  -3.304  0.00  0.00    +0.043 A 
ATOM     29  N   UNL     1       2.400  -2.525  -4.242  0.00  0.00    -0.380 N 
ATOM     30  C   UNL     1       2.204  -3.934  -3.882  0.00  0.00    +0.144 C 
ATOM     31  C   UNL     1       1.466  -3.926  -2.562  0.00  0.00    -0.040 C 
ATOM     32  C   UNL     1       1.284  -2.625  -2.242  0.00  0.00    +0.002 A 
ATOM     33  C   UNL     1       0.648  -1.960  -1.099  0.00  0.00    +0.055 A 
ATOM     34  H   UNL     1       2.845  -2.202  -5.041  0.00  0.00    +0.160 HD
BRANCH  25  36
ATOM     35  C   UNL     1      -0.003   1.424   0.023  0.00  0.00    +0.277 C 
ATOM     36  O   UNL     1       0.015  -0.005   0.012  0.00  0.00    -0.495 OA
ENDBRANCH  25  36
ENDBRANCH  24  31
ENDBRANCH  23  24
ENDBRANCH   1  23
TORSDOF 8
