REMARK  Name = ZINC02886888
REMARK  8 active torsions:
REMARK  status: ('A' for Active; 'I' for Inactive)
REMARK    1  A    between atoms: C_1  and  C_2
REMARK    2  A    between atoms: C_9  and  N_13
REMARK    3  A    between atoms: C_10  and  C_11
REMARK    4  A    between atoms: C_14  and  C_16
REMARK    5  A    between atoms: C_16  and  C_17
REMARK    6  A    between atoms: N_19  and  C_20
REMARK    7  A    between atoms: C_21  and  C_31
REMARK    8  A    between atoms: C_26  and  C_30
REMARK                            x       y       z     vdW  Elec       q    Type
REMARK                         _______ _______ _______ _____ _____    ______ ____
ROOT
ATOM      1  C   UNL     1      -3.502  -1.355   0.029  0.00  0.00    +0.192 C 
ENDROOT
BRANCH   1   3
ATOM      2  N   UNL     1      -1.074  -0.881   0.008  0.00  0.00    -0.279 N 
ATOM      3  C   UNL     1      -2.333  -0.402   0.023  0.00  0.00    +0.226 C 
ATOM      4  O   UNL     1      -2.527   0.795   0.031  0.00  0.00    -0.275 OA
ATOM      5  H   UNL     1      -0.919  -1.839   0.002  0.00  0.00    +0.155 HD
BRANCH   2  13
ATOM      6  C   UNL     1       4.709   4.387  -0.115  0.00  0.00    +0.008 C 
ATOM      7  C   UNL     1       3.892   3.125  -0.398  0.00  0.00    -0.009 C 
ATOM      8  C   UNL     1       4.445   1.960   0.428  0.00  0.00    +0.008 C 
ATOM      9  C   UNL     1       3.804   0.648  -0.030  0.00  0.00    +0.037 C 
ATOM     10  C   UNL     1       2.289   0.811  -0.015  0.00  0.00    -0.018 A 
ATOM     11  C   UNL     1       1.722   2.038  -0.003  0.00  0.00    -0.004 A 
ATOM     12  S   UNL     1      -0.021   1.728   0.011  0.00  0.00    -0.077 S 
ATOM     13  C   UNL     1       0.002  -0.004   0.002  0.00  0.00    +0.090 A 
ATOM     14  C   UNL     1       1.357  -0.302  -0.012  0.00  0.00    +0.084 A 
ATOM     15  C   UNL     1       2.426   3.359  -0.004  0.00  0.00    +0.046 C 
BRANCH  14  16
ATOM     16  C   UNL     1       1.818  -1.657  -0.024  0.00  0.00    +0.102 C 
ATOM     17  N   UNL     1       2.185  -2.733  -0.033  0.00  0.00    -0.191 NA
ENDBRANCH  14  16
ENDBRANCH   2  13
ENDBRANCH   1   3
BRANCH   1  18
ATOM     18  C   UNL     1      -4.788  -0.571   0.046  0.00  0.00    +0.226 C 
ATOM     19  O   UNL     1      -4.760   0.642   0.052  0.00  0.00    -0.275 OA
ATOM     20  N   UNL     1      -5.971  -1.217   0.054  0.00  0.00    -0.279 N 
ATOM     21  H   UNL     1      -5.994  -2.187   0.050  0.00  0.00    +0.155 HD
BRANCH  20  22
ATOM     22  C   UNL     1      -7.157  -0.495   0.070  0.00  0.00    +0.090 A 
ATOM     23  C   UNL     1      -8.458  -0.975   0.074  0.00  0.00    +0.084 A 
ATOM     24  C   UNL     1      -9.534  -0.000   0.096  0.00  0.00    -0.018 A 
ATOM     25  C   UNL     1      -9.139   1.292   0.098  0.00  0.00    -0.004 A 
ATOM     26  S   UNL     1      -7.370   1.224   0.080  0.00  0.00    -0.077 S 
ATOM     27  C   UNL     1     -10.017   2.505   0.114  0.00  0.00    +0.046 C 
ATOM     28  C   UNL     1     -11.437   2.069   0.505  0.00  0.00    -0.009 C 
ATOM     29  C   UNL     1     -11.826   0.849  -0.334  0.00  0.00    +0.008 C 
ATOM     30  C   UNL     1     -11.012  -0.368   0.108  0.00  0.00    +0.037 C 
ATOM     31  C   UNL     1     -12.417   3.213   0.237  0.00  0.00    +0.008 C 
BRANCH  23  32
ATOM     32  C   UNL     1      -8.730  -2.381   0.063  0.00  0.00    +0.102 C 
ATOM     33  N   UNL     1      -8.946  -3.496   0.054  0.00  0.00    -0.191 NA
ENDBRANCH  23  32
ENDBRANCH  20  22
ENDBRANCH   1  18
TORSDOF 6
