REMARK  Name = ZINC38610212
REMARK  8 active torsions:
REMARK  status: ('A' for Active; 'I' for Inactive)
REMARK    1  A    between atoms: C_1  and  N_2
REMARK    2  A    between atoms: C_3  and  C_27
REMARK    3  A    between atoms: C_7  and  S_8
REMARK    4  A    between atoms: S_8  and  C_9
REMARK    5  A    between atoms: C_9  and  C_10
REMARK    6  A    between atoms: N_12  and  N_13
REMARK    7  A    between atoms: C_14  and  C_15
REMARK    8  A    between atoms: C_20  and  C_21
REMARK                            x       y       z     vdW  Elec       q    Type
REMARK                         _______ _______ _______ _____ _____    ______ ____
ROOT
ATOM      1  C   UNL     1       5.228  -1.357  -0.517  0.00  0.00    +0.242 C 
ATOM      2  O   UNL     1       5.553  -0.189  -0.547  0.00  0.00    -0.273 OA
ATOM      3  N   UNL     1       6.166  -2.320  -0.611  0.00  0.00    -0.207 N 
ATOM      4  H   UNL     1       5.906  -3.254  -0.587  0.00  0.00    +0.177 HD
ENDROOT
BRANCH   3   5
ATOM      5  N   UNL     1       7.516  -1.972  -0.743  0.00  0.00    -0.192 NA
ATOM      6  C   UNL     1       8.408  -2.886  -0.833  0.00  0.00    +0.118 C 
BRANCH   6   7
ATOM      7  C   UNL     1       9.860  -2.512  -0.975  0.00  0.00    +0.125 C 
ATOM      8  C   UNL     1      10.685  -3.142   0.130  0.00  0.00    +0.123 C 
ATOM      9  N   UNL     1      11.535  -3.921  -0.457  0.00  0.00    -0.161 NA
ATOM     10  N   UNL     1      11.401  -3.909  -1.842  0.00  0.00    -0.153 NA
ATOM     11  C   UNL     1      10.445  -3.109  -2.240  0.00  0.00    +0.084 C 
BRANCH  11  12
ATOM     12  C   UNL     1      10.022  -2.845  -3.624  0.00  0.00    -0.001 A 
ATOM     13  C   UNL     1       8.976  -1.953  -3.882  0.00  0.00    +0.010 A 
ATOM     14  C   UNL     1       8.585  -1.711  -5.182  0.00  0.00    +0.001 A 
ATOM     15  C   UNL     1       9.225  -2.349  -6.230  0.00  0.00    +0.000 A 
ATOM     16  C   UNL     1      10.261  -3.234  -5.984  0.00  0.00    +0.001 A 
ATOM     17  C   UNL     1      10.667  -3.481  -4.689  0.00  0.00    +0.010 A 
ENDBRANCH  11  12
ENDBRANCH   6   7
ENDBRANCH   3   5
BRANCH   1  18
ATOM     18  C   UNL     1       3.775  -1.731  -0.375  0.00  0.00    +0.174 C 
BRANCH  18  19
ATOM     19  S   UNL     1       2.769  -0.225  -0.273  0.00  0.00    -0.080 S 
BRANCH  19  25
ATOM     20  C   UNL     1      -0.012   1.458   0.004  0.00  0.00    +0.133 C 
ATOM     21  N   UNL     1       0.004  -0.007  -0.001  0.00  0.00    -0.288 N 
ATOM     22  C   UNL     1      -1.161  -0.901   0.105  0.00  0.00    +0.208 C 
ATOM     23  N   UNL     1      -0.578  -2.252   0.048  0.00  0.00    -0.242 N 
ATOM     24  N   UNL     1       0.805  -2.075  -0.079  0.00  0.00    -0.162 NA
ATOM     25  C   UNL     1       1.120  -0.824  -0.112  0.00  0.00    +0.175 C 
ATOM     26  H   UNL     1      -1.056  -3.095   0.090  0.00  0.00    +0.170 HD
BRANCH  22  27
ATOM     27  C   UNL     1      -2.104  -0.679  -1.050  0.00  0.00    -0.007 A 
ATOM     28  C   UNL     1      -3.372  -0.177  -0.821  0.00  0.00    +0.007 A 
ATOM     29  C   UNL     1      -4.237   0.027  -1.879  0.00  0.00    +0.001 A 
ATOM     30  C   UNL     1      -3.834  -0.272  -3.168  0.00  0.00    +0.015 A 
ATOM     31  C   UNL     1      -2.567  -0.775  -3.397  0.00  0.00    +0.018 A 
ATOM     32  C   UNL     1      -1.699  -0.973  -2.338  0.00  0.00    +0.022 A 
ATOM     33 BR   UNL     1      -2.016  -1.184  -5.160  0.00  0.00    -0.050 Br
ENDBRANCH  22  27
ENDBRANCH  19  25
ENDBRANCH  18  19
ENDBRANCH   1  18
TORSDOF 7
