REMARK  Name = ZINC39684351
REMARK  8 active torsions:
REMARK  status: ('A' for Active; 'I' for Inactive)
REMARK    1  A    between atoms: C_1  and  C_2
REMARK    2  A    between atoms: C_2  and  C_4
REMARK    3  A    between atoms: C_2  and  N_8
REMARK    4  A    between atoms: C_4  and  C_5
REMARK    5  A    between atoms: C_4  and  C_6
REMARK    6  A    between atoms: C_4  and  C_7
REMARK    7  A    between atoms: C_9  and  C_11
REMARK    8  A    between atoms: C_22  and  C_24
REMARK                            x       y       z     vdW  Elec       q    Type
REMARK                         _______ _______ _______ _____ _____    ______ ____
ROOT
ATOM      1  C   UNL     1       2.657  -1.478  -1.939  0.00  0.00    +0.100 C 
ATOM      2  C   UNL     1       2.330  -2.870  -2.525  0.00  0.00    +0.121 C 
ATOM      3  N   UNL     1       3.619  -3.363  -3.063  0.00  0.00    -0.296 N 
ATOM      4  C   UNL     1       4.625  -2.930  -2.063  0.00  0.00    +0.115 C 
ATOM      5  C   UNL     1       4.165  -1.522  -1.637  0.00  0.00    -0.004 C 
ATOM      6  C   UNL     1       4.897  -0.458  -2.449  0.00  0.00    -0.010 C 
ATOM      7  C   UNL     1       6.385  -0.483  -2.089  0.00  0.00    -0.082 C 
ATOM      8  N   UNL     1       6.548  -0.229  -0.653  0.00  0.00    +0.379 N 
ATOM      9  C   UNL     1       5.919  -1.306   0.121  0.00  0.00    -0.082 C 
ATOM     10  C   UNL     1       4.411  -1.316  -0.145  0.00  0.00    -0.010 C 
ATOM     11  C   UNL     1       3.830  -4.050  -4.203  0.00  0.00    +0.247 C 
ATOM     12  O   UNL     1       2.917  -4.222  -4.987  0.00  0.00    -0.270 OA
ATOM     13  H   UNL     1       7.531  -0.185  -0.429  0.00  0.00    -0.086 HD
ATOM     14  H   UNL     1       6.113   0.650  -0.417  0.00  0.00    -0.086 HD
ENDROOT
BRANCH  11  15
ATOM     15  C   UNL     1       5.172  -4.594  -4.500  0.00  0.00    +0.037 A 
ATOM     16  C   UNL     1       6.087  -4.805  -3.454  0.00  0.00    +0.013 A 
ATOM     17  C   UNL     1       7.325  -5.304  -3.701  0.00  0.00    +0.009 A 
ATOM     18  C   UNL     1       7.707  -5.616  -5.019  0.00  0.00    -0.018 A 
ATOM     19  C   UNL     1       8.983  -6.133  -5.300  0.00  0.00    +0.008 A 
ATOM     20  C   UNL     1       9.325  -6.426  -6.585  0.00  0.00    +0.001 A 
ATOM     21  C   UNL     1       8.427  -6.220  -7.631  0.00  0.00    +0.001 A 
ATOM     22  C   UNL     1       7.183  -5.721  -7.398  0.00  0.00    +0.008 A 
ATOM     23  C   UNL     1       6.794  -5.407  -6.083  0.00  0.00    -0.017 A 
ATOM     24  C   UNL     1       5.516  -4.897  -5.807  0.00  0.00    +0.021 A 
ENDBRANCH  11  15
BRANCH   1  26
ATOM     25  N   UNL     1       1.513   0.006  -0.324  0.00  0.00    -0.312 N 
ATOM     26  C   UNL     1       1.875  -1.245  -0.672  0.00  0.00    +0.218 C 
ATOM     27  O   UNL     1       1.571  -2.183   0.034  0.00  0.00    -0.275 OA
ATOM     28  H   UNL     1       1.756   0.756  -0.889  0.00  0.00    +0.149 HD
BRANCH  25  30
ATOM     29  C   UNL     1       1.717   0.340   2.090  0.00  0.00    +0.028 C 
ATOM     30  C   UNL     1       0.752   0.233   0.907  0.00  0.00    +0.075 C 
BRANCH  30  31
ATOM     31  C   UNL     1      -0.047   1.531   0.781  0.00  0.00    -0.020 C 
ATOM     32  C   UNL     1       0.913   2.700   0.551  0.00  0.00    +0.012 C 
ATOM     33  C   UNL     1      -1.012   1.423  -0.402  0.00  0.00    +0.012 C 
ATOM     34  C   UNL     1      -0.841   1.768   2.067  0.00  0.00    +0.012 C 
ENDBRANCH  30  31
ENDBRANCH  25  30
ENDBRANCH   1  26
TORSDOF 4
