REMARK  Name = ZINC39142928
REMARK  10 active torsions:
REMARK  status: ('A' for Active; 'I' for Inactive)
REMARK    1  A    between atoms: C_1  and  C_2
REMARK    2  A    between atoms: C_2  and  C_3
REMARK    3  A    between atoms: C_3  and  C_4
REMARK    4  A    between atoms: C_4  and  N_5
REMARK    5  A    between atoms: C_12  and  O_37
REMARK    6  A    between atoms: C_14  and  C_18
REMARK    7  A    between atoms: N_20  and  N_21
REMARK    8  A    between atoms: C_22  and  C_23
REMARK    9  A    between atoms: C_22  and  C_24
REMARK   10  A    between atoms: C_26  and  O_36
REMARK                            x       y       z     vdW  Elec       q    Type
REMARK                         _______ _______ _______ _____ _____    ______ ____
ROOT
ATOM      1  C   UNL     1      -5.786  -2.137  -1.048  0.00  0.00    +0.247 C 
ATOM      2  O   UNL     1      -6.563  -2.076  -0.118  0.00  0.00    -0.273 OA
ATOM      3  N   UNL     1      -5.768  -1.161  -1.977  0.00  0.00    -0.206 N 
ATOM      4  H   UNL     1      -5.146  -1.210  -2.720  0.00  0.00    +0.177 HD
ENDROOT
BRANCH   1  13
ATOM      5  N   UNL     1      -2.787  -2.571   0.015  0.00  0.00    -0.270 N 
ATOM      6  C   UNL     1      -3.429  -2.812   1.233  0.00  0.00    +0.042 A 
ATOM      7  C   UNL     1      -2.950  -2.233   2.401  0.00  0.00    +0.024 A 
ATOM      8  C   UNL     1      -3.589  -2.475   3.602  0.00  0.00    +0.002 A 
ATOM      9  C   UNL     1      -4.704  -3.293   3.641  0.00  0.00    +0.000 A 
ATOM     10  C   UNL     1      -5.183  -3.871   2.479  0.00  0.00    +0.008 A 
ATOM     11  C   UNL     1      -4.548  -3.632   1.276  0.00  0.00    +0.003 A 
ATOM     12  C   UNL     1      -5.067  -4.260   0.009  0.00  0.00    +0.167 C 
ATOM     13  C   UNL     1      -4.841  -3.305  -1.164  0.00  0.00    +0.195 C 
ATOM     14  C   UNL     1      -3.425  -2.796  -1.148  0.00  0.00    +0.235 C 
ATOM     15  O   UNL     1      -2.850  -2.590  -2.197  0.00  0.00    -0.274 OA
BRANCH  12  16
ATOM     16  O   UNL     1      -4.373  -5.485  -0.235  0.00  0.00    -0.386 OA
ATOM     17  H   UNL     1      -4.473  -6.140   0.470  0.00  0.00    +0.210 HD
ENDBRANCH  12  16
BRANCH   5  18
ATOM     18  C   UNL     1      -1.413  -2.063   0.004  0.00  0.00    +0.114 C 
BRANCH  18  19
ATOM     19  C   UNL     1      -1.433  -0.534   0.013  0.00  0.00    +0.019 C 
BRANCH  19  21
ATOM     20  C   UNL     1      -0.019   1.526   0.010  0.00  0.00    +0.004 C 
ATOM     21  C   UNL     1       0.002  -0.004   0.002  0.00  0.00    -0.002 C 
ENDBRANCH  19  21
ENDBRANCH  18  19
ENDBRANCH   5  18
ENDBRANCH   1  13
BRANCH   3  22
ATOM     22  N   UNL     1      -6.647  -0.075  -1.869  0.00  0.00    -0.188 NA
ATOM     23  C   UNL     1      -6.629   0.853  -2.751  0.00  0.00    +0.053 C 
ATOM     24  C   UNL     1      -5.664   0.777  -3.905  0.00  0.00    +0.063 C 
BRANCH  23  25
ATOM     25  C   UNL     1      -7.575   2.021  -2.635  0.00  0.00    +0.186 C 
ATOM     26  C   UNL     1      -8.255   1.936  -1.282  0.00  0.00    +0.120 C 
ATOM     27  C   UNL     1      -9.650   1.867  -1.276  0.00  0.00    +0.035 A 
ATOM     28  C   UNL     1     -10.361   1.787  -0.062  0.00  0.00    +0.013 A 
ATOM     29  C   UNL     1     -11.721   1.722  -0.084  0.00  0.00    +0.001 A 
ATOM     30  C   UNL     1     -12.426   1.732  -1.283  0.00  0.00    +0.002 A 
ATOM     31  C   UNL     1     -11.793   1.808  -2.488  0.00  0.00    +0.024 A 
ATOM     32  C   UNL     1     -10.390   1.878  -2.540  0.00  0.00    +0.044 A 
ATOM     33  N   UNL     1      -9.771   1.953  -3.725  0.00  0.00    -0.284 N 
ATOM     34  C   UNL     1      -8.463   2.022  -3.858  0.00  0.00    +0.233 C 
ATOM     35  O   UNL     1      -7.968   2.088  -4.968  0.00  0.00    -0.274 OA
ATOM     36  H   UNL     1     -10.315   1.957  -4.528  0.00  0.00    +0.155 HD
BRANCH  26  37
ATOM     37  O   UNL     1      -7.550   1.928  -0.145  0.00  0.00    -0.509 OA
ATOM     38  H   UNL     1      -8.093   1.871   0.653  0.00  0.00    +0.292 HD
ENDBRANCH  26  37
ENDBRANCH  23  25
ENDBRANCH   3  22
TORSDOF 8
