REMARK  Name = ZINC66672576
REMARK  5 active torsions:
REMARK  status: ('A' for Active; 'I' for Inactive)
REMARK    1  A    between atoms: C_10  and  N_12
REMARK    2  A    between atoms: C_13  and  N_17
REMARK    3  A    between atoms: C_18  and  C_20
REMARK    4  A    between atoms: C_23  and  C_26
REMARK    5  A    between atoms: C_26  and  N_27
REMARK                            x       y       z     vdW  Elec       q    Type
REMARK                         _______ _______ _______ _____ _____    ______ ____
ROOT
ATOM      1  N   UNL     1       6.368   0.688  -0.759  0.00  0.00    -0.267 N 
ATOM      2  C   UNL     1       7.542   1.320  -0.955  0.00  0.00    +0.249 C 
ATOM      3  O   UNL     1       8.122   1.829  -0.016  0.00  0.00    -0.270 OA
ATOM      4  H   UNL     1       5.905   0.281  -1.508  0.00  0.00    +0.157 HD
ENDROOT
BRANCH   2   5
ATOM      5  C   UNL     1       8.125   1.393  -2.311  0.00  0.00    +0.037 A 
ATOM      6  C   UNL     1       7.459   0.814  -3.393  0.00  0.00    +0.013 A 
ATOM      7  C   UNL     1       8.008   0.886  -4.656  0.00  0.00    +0.006 A 
ATOM      8  C   UNL     1       9.217   1.530  -4.852  0.00  0.00    -0.030 A 
ATOM      9  C   UNL     1       9.882   2.106  -3.785  0.00  0.00    +0.006 A 
ATOM     10  C   UNL     1       9.341   2.046  -2.517  0.00  0.00    +0.013 A 
BRANCH   8  11
ATOM     11  C   UNL     1       9.811   1.605  -6.235  0.00  0.00    +0.141 C 
BRANCH  11  12
ATOM     12  N   UNL     1       9.334   2.816  -6.907  0.00  0.00    -0.295 N 
ATOM     13  C   UNL     1       9.737   3.094  -8.163  0.00  0.00    +0.297 C 
ATOM     14  O   UNL     1      10.497   2.338  -8.738  0.00  0.00    -0.253 OA
ATOM     15  N   UNL     1       9.299   4.208  -8.781  0.00  0.00    -0.313 N 
ATOM     16  H   UNL     1       8.728   3.419  -6.448  0.00  0.00    +0.151 HD
ATOM     17  H   UNL     1       8.693   4.811  -8.322  0.00  0.00    +0.146 HD
ATOM     18  H   UNL     1       9.589   4.407  -9.685  0.00  0.00    +0.146 HD
ENDBRANCH  11  12
ENDBRANCH   8  11
ENDBRANCH   2   5
BRANCH   1  20
ATOM     19  N   UNL     1       4.649   0.018   0.860  0.00  0.00    -0.243 N 
ATOM     20  C   UNL     1       5.818   0.619   0.520  0.00  0.00    +0.124 A 
ATOM     21  C   UNL     1       6.355   1.142   1.656  0.00  0.00    +0.065 A 
ATOM     22  C   UNL     1       5.489   0.850   2.713  0.00  0.00    +0.136 A 
ATOM     23  N   UNL     1       4.467   0.184   2.239  0.00  0.00    -0.177 NA
BRANCH  19  33
ATOM     24  C   UNL     1      -0.017   1.375   0.010  0.00  0.00    +0.000 A 
ATOM     25  C   UNL     1       1.174   2.078   0.002  0.00  0.00    +0.000 A 
ATOM     26  C   UNL     1       2.372   1.395  -0.016  0.00  0.00    +0.006 A 
ATOM     27  C   UNL     1       2.393   0.006  -0.025  0.00  0.00    -0.020 A 
ATOM     28  C   UNL     1       1.208  -0.694  -0.013  0.00  0.00    -0.042 A 
ATOM     29  C   UNL     1       0.002  -0.004   0.002  0.00  0.00    +0.004 A 
ATOM     30  C   UNL     1       1.155  -2.199  -0.005  0.00  0.00    +0.035 C 
ATOM     31  C   UNL     1       2.493  -2.786  -0.452  0.00  0.00    +0.007 C 
ATOM     32  C   UNL     1       3.607  -2.135   0.376  0.00  0.00    +0.032 C 
ATOM     33  C   UNL     1       3.736  -0.675  -0.053  0.00  0.00    +0.139 C 
ENDBRANCH  19  33
ENDBRANCH   1  20
TORSDOF 5
