REMARK  Name = ZINC02589423
REMARK  5 active torsions:
REMARK  status: ('A' for Active; 'I' for Inactive)
REMARK    1  A    between atoms: C_1  and  C_2
REMARK    2  A    between atoms: C_4  and  C_18
REMARK    3  A    between atoms: C_5  and  C_17
REMARK    4  A    between atoms: N_6  and  C_7
REMARK    5  A    between atoms: N_19  and  N_20
REMARK                            x       y       z     vdW  Elec       q    Type
REMARK                         _______ _______ _______ _____ _____    ______ ____
ROOT
ATOM      1  C   UNL     1      -2.122  -0.008  -2.296  0.00  0.00    +0.064 C 
ATOM      2  C   UNL     1      -2.851   0.237  -1.000  0.00  0.00    +0.022 A 
ATOM      3  C   UNL     1      -4.037  -0.297  -0.657  0.00  0.00    +0.032 A 
ATOM      4  C   UNL     1      -4.361   0.220   0.677  0.00  0.00    +0.016 A 
ATOM      5  C   UNL     1      -3.322   1.032   1.035  0.00  0.00    +0.030 A 
ATOM      6  N   UNL     1      -2.413   1.034   0.019  0.00  0.00    -0.317 N 
ATOM      7  C   UNL     1      -3.201   1.795   2.329  0.00  0.00    +0.064 C 
ENDROOT
BRANCH   6   8
ATOM      8  C   UNL     1      -1.211   1.753   0.017  0.00  0.00    +0.047 A 
ATOM      9  C   UNL     1      -1.241   3.152   0.031  0.00  0.00    +0.027 A 
ATOM     10  C   UNL     1      -0.090   3.876   0.024  0.00  0.00    +0.010 A 
ATOM     11  C   UNL     1       1.152   3.217   0.009  0.00  0.00    -0.018 A 
ATOM     12  C   UNL     1       2.357   3.938   0.000  0.00  0.00    +0.008 A 
ATOM     13  C   UNL     1       3.543   3.270  -0.015  0.00  0.00    +0.001 A 
ATOM     14  C   UNL     1       3.582   1.877  -0.023  0.00  0.00    +0.001 A 
ATOM     15  C   UNL     1       2.435   1.145  -0.016  0.00  0.00    +0.008 A 
ATOM     16  C   UNL     1       1.191   1.800   0.000  0.00  0.00    -0.016 A 
ATOM     17  C   UNL     1      -0.013   1.076   0.008  0.00  0.00    +0.034 A 
ENDBRANCH   6   8
BRANCH   4  18
ATOM     18  C   UNL     1      -5.564  -0.077   1.471  0.00  0.00    +0.144 C 
ATOM     19  N   UNL     1      -5.716   0.461   2.652  0.00  0.00    -0.155 NA
BRANCH  19  20
ATOM     20  N   UNL     1      -6.861   0.178   3.408  0.00  0.00    -0.124 NA
ATOM     21  C   UNL     1      -7.015   0.722   4.600  0.00  0.00    +0.193 A 
ATOM     22  N   UNL     1      -8.054   0.577   5.484  0.00  0.00    -0.332 N 
ATOM     23  H   UNL     1      -8.808   0.011   5.256  0.00  0.00    +0.168 HD
ATOM     24  C   UNL     1      -8.026   1.236   6.701  0.00  0.00    +0.055 A 
ATOM     25  C   UNL     1      -8.996   1.196   7.716  0.00  0.00    +0.027 A 
ATOM     26  C   UNL     1      -8.833   1.913   8.878  0.00  0.00    +0.002 A 
ATOM     27  C   UNL     1      -7.710   2.696   9.086  0.00  0.00    +0.001 A 
ATOM     28  C   UNL     1      -6.738   2.755   8.103  0.00  0.00    +0.017 A 
ATOM     29  C   UNL     1      -6.901   2.037   6.942  0.00  0.00    +0.039 A 
ATOM     30  S   UNL     1      -5.926   1.837   5.470  0.00  0.00    -0.048 S 
ENDBRANCH  19  20
ENDBRANCH   4  18
TORSDOF 3
