REMARK  Name = ZINC20727887
REMARK  9 active torsions:
REMARK  status: ('A' for Active; 'I' for Inactive)
REMARK    1  A    between atoms: C_1  and  C_2
REMARK    2  A    between atoms: N_7  and  C_9
REMARK    3  A    between atoms: C_9  and  C_10
REMARK    4  A    between atoms: C_10  and  C_11
REMARK    5  A    between atoms: C_11  and  N_12
REMARK    6  A    between atoms: C_13  and  C_15
REMARK    7  A    between atoms: C_15  and  N_16
REMARK    8  A    between atoms: C_25  and  C_26
REMARK    9  A    between atoms: C_29  and  C_32
REMARK                            x       y       z     vdW  Elec       q    Type
REMARK                         _______ _______ _______ _____ _____    ______ ____
ROOT
ATOM      1  N   UNL     1      -1.073   2.006   0.319  0.00  0.00    -0.257 N 
ATOM      2  C   UNL     1      -1.325   3.310  -0.087  0.00  0.00    +0.051 A 
ATOM      3  C   UNL     1      -2.505   3.921   0.335  0.00  0.00    +0.024 A 
ATOM      4  C   UNL     1      -2.794   5.218  -0.039  0.00  0.00    +0.002 A 
ATOM      5  C   UNL     1      -1.916   5.930  -0.837  0.00  0.00    +0.001 A 
ATOM      6  C   UNL     1      -0.742   5.340  -1.264  0.00  0.00    +0.017 A 
ATOM      7  C   UNL     1      -0.448   4.037  -0.893  0.00  0.00    +0.034 A 
ATOM      8  S   UNL     1       1.052   3.280  -1.445  0.00  0.00    -0.082 S 
ATOM      9  C   UNL     1       1.321   2.071  -0.175  0.00  0.00    +0.076 C 
ATOM     10  C   UNL     1       2.561   1.784   0.290  0.00  0.00    +0.028 C 
ATOM     11  C   UNL     1       0.113   1.394   0.346  0.00  0.00    +0.258 C 
ATOM     12  O   UNL     1       0.202   0.270   0.805  0.00  0.00    -0.269 OA
ENDROOT
BRANCH  10  13
ATOM     13  C   UNL     1       3.743   2.368  -0.361  0.00  0.00    -0.024 A 
ATOM     14  C   UNL     1       3.727   2.643  -1.732  0.00  0.00    +0.008 A 
ATOM     15  C   UNL     1       4.839   3.195  -2.334  0.00  0.00    +0.013 A 
ATOM     16  C   UNL     1       5.972   3.466  -1.587  0.00  0.00    +0.055 A 
ATOM     17  C   UNL     1       5.998   3.191  -0.230  0.00  0.00    +0.013 A 
ATOM     18  C   UNL     1       4.893   2.645   0.387  0.00  0.00    +0.008 A 
BRANCH  16  19
ATOM     19  C   UNL     1       7.184   4.064  -2.254  0.00  0.00    +0.417 C 
ATOM     20  F   UNL     1       8.016   3.038  -2.714  0.00  0.00    -0.166 F 
ATOM     21  F   UNL     1       6.779   4.856  -3.333  0.00  0.00    -0.166 F 
ATOM     22  F   UNL     1       7.882   4.852  -1.333  0.00  0.00    -0.166 F 
ENDBRANCH  16  19
ENDBRANCH  10  13
BRANCH   1  23
ATOM     23  C   UNL     1      -2.228   1.220   0.761  0.00  0.00    +0.209 C 
BRANCH  23  25
ATOM     24  N   UNL     1      -3.378   0.700   2.888  0.00  0.00    -0.314 N 
ATOM     25  C   UNL     1      -2.377   1.343   2.255  0.00  0.00    +0.231 C 
ATOM     26  O   UNL     1      -1.596   2.020   2.889  0.00  0.00    -0.274 OA
ATOM     27  H   UNL     1      -4.087   0.085   2.313  0.00  0.00    +0.149 HD
BRANCH  24  28
ATOM     28  C   UNL     1      -3.524   0.819   4.340  0.00  0.00    +0.102 C 
BRANCH  28  29
ATOM     29  C   UNL     1      -4.729  -0.002   4.802  0.00  0.00    +0.000 C 
BRANCH  29  30
ATOM     30  C   UNL     1      -4.881   0.123   6.319  0.00  0.00    -0.077 C 
BRANCH  30  36
ATOM     31  C   UNL     1      -7.263  -1.796  10.171  0.00  0.00    +0.005 C 
ATOM     32  C   UNL     1      -7.208  -1.710   8.644  0.00  0.00    -0.031 C 
ATOM     33  C   UNL     1      -8.540  -1.171   8.114  0.00  0.00    -0.001 C 
ATOM     34  C   UNL     1      -8.455  -1.031   6.592  0.00  0.00    -0.018 C 
ATOM     35  C   UNL     1      -7.290  -0.106   6.233  0.00  0.00    -0.079 C 
ATOM     36  N   UNL     1      -6.039  -0.666   6.762  0.00  0.00    +0.380 N 
ATOM     37  C   UNL     1      -6.079  -0.765   8.226  0.00  0.00    -0.076 C 
ATOM     38  H   UNL     1      -5.931  -1.684   6.359  0.00  0.00    -0.082 HD
ENDBRANCH  30  36
ENDBRANCH  29  30
ENDBRANCH  28  29
ENDBRANCH  24  28
ENDBRANCH  23  25
ENDBRANCH   1  23
TORSDOF 8
