REMARK  Name = ZINC39633508
REMARK  6 active torsions:
REMARK  status: ('A' for Active; 'I' for Inactive)
REMARK    1  A    between atoms: C_1  and  C_2
REMARK    2  A    between atoms: C_2  and  C_4
REMARK    3  A    between atoms: C_2  and  O_27
REMARK    4  A    between atoms: C_8  and  C_17
REMARK    5  A    between atoms: N_19  and  C_20
REMARK    6  A    between atoms: O_27  and  C_28
REMARK                            x       y       z     vdW  Elec       q    Type
REMARK                         _______ _______ _______ _____ _____    ______ ____
ROOT
ATOM      1  C   UNL     1       0.483  -0.463   1.113  0.00  0.00    +0.256 C 
ATOM      2  O   UNL     1      -0.227  -0.906   1.991  0.00  0.00    -0.272 OA
ATOM      3  N   UNL     1       1.822  -0.460   1.267  0.00  0.00    -0.297 N 
ATOM      4  C   UNL     1       2.848  -0.036   0.286  0.00  0.00    +0.121 C 
ATOM      5  C   UNL     1       3.910   0.707   1.127  0.00  0.00    +0.100 C 
ATOM      6  C   UNL     1       3.744   0.148   2.550  0.00  0.00    -0.004 C 
ATOM      7  C   UNL     1       2.601  -0.873   2.460  0.00  0.00    +0.115 C 
ATOM      8  C   UNL     1       5.030  -0.536   3.003  0.00  0.00    -0.010 C 
ATOM      9  C   UNL     1       4.861  -1.032   4.441  0.00  0.00    -0.082 C 
ATOM     10  N   UNL     1       4.552   0.104   5.319  0.00  0.00    +0.379 N 
ATOM     11  C   UNL     1       3.267   0.699   4.934  0.00  0.00    -0.082 C 
ATOM     12  C   UNL     1       3.369   1.268   3.516  0.00  0.00    -0.010 C 
ATOM     13  H   UNL     1       4.501  -0.216   6.275  0.00  0.00    -0.086 HD
ATOM     14  H   UNL     1       5.280   0.797   5.238  0.00  0.00    -0.086 HD
ENDROOT
BRANCH   5  15
ATOM     15  C   UNL     1       5.293   0.414   0.604  0.00  0.00    +0.218 C 
ATOM     16  O   UNL     1       5.531  -0.656   0.085  0.00  0.00    -0.275 OA
ATOM     17  N   UNL     1       6.265   1.341   0.713  0.00  0.00    -0.312 N 
ATOM     18  H   UNL     1       6.075   2.197   1.128  0.00  0.00    +0.149 HD
BRANCH  17  19
ATOM     19  C   UNL     1       7.609   1.056   0.204  0.00  0.00    +0.073 C 
ATOM     20  C   UNL     1       8.379   0.236   1.259  0.00  0.00    +0.022 C 
ATOM     21  C   UNL     1       9.514  -0.477   0.575  0.00  0.00    +0.002 C 
ATOM     22  C   UNL     1      10.834   0.314   0.643  0.00  0.00    +0.000 C 
ATOM     23  C   UNL     1      10.640   1.823   0.400  0.00  0.00    +0.000 C 
ATOM     24  C   UNL     1       9.672   2.105  -0.718  0.00  0.00    +0.002 C 
ATOM     25  C   UNL     1       8.270   2.314  -0.111  0.00  0.00    +0.022 C 
ENDBRANCH  17  19
ENDBRANCH   5  15
BRANCH   1  27
ATOM     26  C   UNL     1       0.082   1.597  -0.206  0.00  0.00    +0.062 C 
ATOM     27  C   UNL     1      -0.131   0.084  -0.149  0.00  0.00    +0.256 C 
BRANCH  27  28
ATOM     28  O   UNL     1      -1.532  -0.201  -0.160  0.00  0.00    -0.480 OA
BRANCH  28  29
ATOM     29  C   UNL     1      -2.139  -0.269  -1.374  0.00  0.00    +0.122 A 
ATOM     30  C   UNL     1      -1.426   0.033  -2.525  0.00  0.00    +0.045 A 
ATOM     31  C   UNL     1      -2.045  -0.036  -3.758  0.00  0.00    +0.004 A 
ATOM     32  C   UNL     1      -3.374  -0.406  -3.845  0.00  0.00    +0.000 A 
ATOM     33  C   UNL     1      -4.087  -0.707  -2.699  0.00  0.00    +0.004 A 
ATOM     34  C   UNL     1      -3.471  -0.644  -1.464  0.00  0.00    +0.045 A 
ENDBRANCH  28  29
ENDBRANCH  27  28
ENDBRANCH   1  27
TORSDOF 5
