REMARK  Name = ZINC39197450
REMARK  11 active torsions:
REMARK  status: ('A' for Active; 'I' for Inactive)
REMARK    1  A    between atoms: C_1  and  C_2
REMARK    2  A    between atoms: C_2  and  C_3
REMARK    3  A    between atoms: C_8  and  N_9
REMARK    4  A    between atoms: C_10  and  C_30
REMARK    5  A    between atoms: C_12  and  C_14
REMARK    6  A    between atoms: N_16  and  C_17
REMARK    7  A    between atoms: C_17  and  C_19
REMARK    8  A    between atoms: C_17  and  C_20
REMARK    9  A    between atoms: N_22  and  C_23
REMARK   10  A    between atoms: C_23  and  C_24
REMARK   11  A    between atoms: C_27  and  C_29
REMARK                            x       y       z     vdW  Elec       q    Type
REMARK                         _______ _______ _______ _____ _____    ______ ____
ROOT
ATOM      1  N   UNL     1      -1.356  -0.456   2.668  0.00  0.00    -0.231 N 
ATOM      2  C   UNL     1      -1.921  -0.184   3.882  0.00  0.00    +0.075 A 
ATOM      3  C   UNL     1      -3.113   0.437   3.632  0.00  0.00    +0.063 A 
ATOM      4  C   UNL     1      -3.211   0.511   2.225  0.00  0.00    +0.148 A 
ATOM      5  N   UNL     1      -2.121  -0.038   1.725  0.00  0.00    -0.161 NA
ENDROOT
BRANCH   2   6
ATOM      6  C   UNL     1      -1.353  -0.500   5.211  0.00  0.00    +0.001 A 
ATOM      7  C   UNL     1       0.022  -0.688   5.362  0.00  0.00    +0.010 A 
ATOM      8  C   UNL     1       0.536  -0.984   6.603  0.00  0.00    +0.004 A 
ATOM      9  C   UNL     1      -0.298  -1.096   7.710  0.00  0.00    -0.044 A 
ATOM     10  C   UNL     1      -1.656  -0.907   7.569  0.00  0.00    -0.044 A 
ATOM     11  C   UNL     1      -2.184  -0.607   6.322  0.00  0.00    +0.014 A 
ATOM     12  C   UNL     1      -2.612  -0.998   8.729  0.00  0.00    +0.035 C 
ATOM     13  C   UNL     1      -1.966  -1.734   9.902  0.00  0.00    +0.005 C 
ATOM     14  C   UNL     1      -0.605  -1.089  10.186  0.00  0.00    +0.005 C 
ATOM     15  C   UNL     1       0.339  -1.430   9.034  0.00  0.00    +0.035 C 
ENDBRANCH   2   6
BRANCH   1  21
ATOM     16  C   UNL     1       0.886  -0.456   1.767  0.00  0.00    -0.022 A 
ATOM     17  C   UNL     1       2.104  -1.082   1.589  0.00  0.00    +0.006 A 
ATOM     18  C   UNL     1       2.318  -2.343   2.114  0.00  0.00    +0.000 A 
ATOM     19  C   UNL     1       1.314  -2.981   2.820  0.00  0.00    +0.002 A 
ATOM     20  C   UNL     1       0.095  -2.360   3.003  0.00  0.00    +0.028 A 
ATOM     21  C   UNL     1      -0.122  -1.091   2.481  0.00  0.00    +0.069 A 
BRANCH  16  23
ATOM     22  C   UNL     1       0.839   1.968   2.293  0.00  0.00    +0.009 C 
ATOM     23  C   UNL     1       0.653   0.919   1.194  0.00  0.00    +0.034 C 
ENDBRANCH  16  23
ENDBRANCH   1  21
BRANCH   4  24
ATOM     24  C   UNL     1      -4.326   1.100   1.456  0.00  0.00    +0.265 C 
ATOM     25  O   UNL     1      -5.278   1.582   2.038  0.00  0.00    -0.268 OA
ATOM     26  N   UNL     1      -4.288   1.102   0.109  0.00  0.00    -0.299 N 
ATOM     27  H   UNL     1      -3.529   0.717  -0.355  0.00  0.00    +0.150 HD
BRANCH  26  28
ATOM     28  C   UNL     1      -5.394   1.687  -0.654  0.00  0.00    +0.156 C 
ATOM     29  C   UNL     1      -5.178   3.195  -0.791  0.00  0.00    +0.038 C 
BRANCH  28  30
ATOM     30  C   UNL     1      -5.446   1.060  -2.023  0.00  0.00    +0.233 C 
ATOM     31  O   UNL     1      -4.638   0.209  -2.332  0.00  0.00    -0.274 OA
ATOM     32  N   UNL     1      -6.389   1.445  -2.906  0.00  0.00    -0.307 N 
ATOM     33  H   UNL     1      -7.035   2.125  -2.659  0.00  0.00    +0.149 HD
BRANCH  32  34
ATOM     34  C   UNL     1      -6.439   0.836  -4.237  0.00  0.00    +0.178 C 
BRANCH  34  35
ATOM     35  C   UNL     1      -7.577   1.437  -5.022  0.00  0.00    +0.122 A 
ATOM     36  C   UNL     1      -7.499   2.520  -5.815  0.00  0.00    +0.046 A 
ATOM     37  C   UNL     1      -8.791   2.730  -6.350  0.00  0.00    +0.045 A 
ATOM     38  C   UNL     1      -9.581   1.761  -5.852  0.00  0.00    +0.102 A 
ATOM     39  O   UNL     1      -8.839   0.978  -5.053  0.00  0.00    -0.463 OA
ATOM     40  C   UNL     1     -11.048   1.583  -6.146  0.00  0.00    +0.086 C 
ENDBRANCH  34  35
ENDBRANCH  32  34
ENDBRANCH  28  30
ENDBRANCH  26  28
ENDBRANCH   4  24
TORSDOF 8
