REMARK  Name = ZINC39481791
REMARK  15 active torsions:
REMARK  status: ('A' for Active; 'I' for Inactive)
REMARK    1  A    between atoms: C_1  and  O_2
REMARK    2  A    between atoms: O_2  and  C_3
REMARK    3  A    between atoms: C_3  and  C_5
REMARK    4  A    between atoms: C_6  and  C_15
REMARK    5  A    between atoms: C_7  and  C_11
REMARK    6  A    between atoms: C_9  and  N_10
REMARK    7  A    between atoms: C_11  and  O_13
REMARK    8  A    between atoms: O_13  and  C_14
REMARK    9  A    between atoms: C_15  and  O_16
REMARK   10  A    between atoms: O_16  and  C_17
REMARK   11  A    between atoms: C_17  and  C_19
REMARK   12  A    between atoms: C_19  and  C_20
REMARK   13  A    between atoms: C_20  and  C_22
REMARK   14  A    between atoms: C_20  and  N_28
REMARK   15  A    between atoms: C_29  and  C_31
REMARK                            x       y       z     vdW  Elec       q    Type
REMARK                         _______ _______ _______ _____ _____    ______ ____
ROOT
ATOM      1  C   UNL     1       4.990  -1.152   0.285  0.00  0.00    +0.310 C 
ATOM      2  O   UNL     1       5.061  -0.862  -0.886  0.00  0.00    -0.251 OA
ENDROOT
BRANCH   1   3
ATOM      3  O   UNL     1       3.901  -1.781   0.756  0.00  0.00    -0.460 OA
BRANCH   3   4
ATOM      4  C   UNL     1       2.866  -2.077  -0.183  0.00  0.00    +0.269 C 
BRANCH   4   6
ATOM      5  C   UNL     1       0.680  -2.077   1.091  0.00  0.00    +0.094 A 
ATOM      6  C   UNL     1       1.733  -2.778   0.521  0.00  0.00    +0.027 A 
ATOM      7  C   UNL     1       1.687  -4.142   0.634  0.00  0.00    +0.105 A 
ATOM      8  S   UNL     1       0.174  -4.412   1.534  0.00  0.00    -0.066 S 
ATOM      9  C   UNL     1      -0.321  -2.818   1.728  0.00  0.00    +0.078 A 
BRANCH   9  10
ATOM     10  N   UNL     1      -1.447  -2.352   2.363  0.00  0.00    -0.352 N 
ATOM     11  H   UNL     1      -1.621  -1.398   2.405  0.00  0.00    +0.143 HD
ATOM     12  H   UNL     1      -2.069  -2.976   2.769  0.00  0.00    +0.143 HD
ENDBRANCH   9  10
BRANCH   5  13
ATOM     13  C   UNL     1       0.621  -0.614   1.034  0.00  0.00    +0.342 C 
ATOM     14  O   UNL     1       1.130   0.051   1.915  0.00  0.00    -0.245 OA
BRANCH  13  16
ATOM     15  C   UNL     1      -0.017   1.425   0.010  0.00  0.00    +0.280 C 
ATOM     16  O   UNL     1       0.002  -0.004   0.002  0.00  0.00    -0.464 OA
ENDBRANCH  13  16
ENDBRANCH   5  13
BRANCH   7  17
ATOM     17  C   UNL     1       2.643  -5.131   0.140  0.00  0.00    +0.346 C 
ATOM     18  O   UNL     1       3.636  -4.769  -0.462  0.00  0.00    -0.244 OA
BRANCH  17  19
ATOM     19  O   UNL     1       2.423  -6.446   0.350  0.00  0.00    -0.464 OA
ATOM     20  C   UNL     1       3.398  -7.357  -0.161  0.00  0.00    +0.280 C 
ENDBRANCH  17  19
ENDBRANCH   7  17
ENDBRANCH   4   6
ENDBRANCH   3   4
ENDBRANCH   1   3
BRANCH   1  21
ATOM     21  C   UNL     1       6.123  -0.808   1.216  0.00  0.00    +0.147 C 
BRANCH  21  22
ATOM     22  C   UNL     1       7.231  -0.101   0.433  0.00  0.00    +0.114 C 
BRANCH  22  23
ATOM     23  C   UNL     1       8.308   0.352   1.384  0.00  0.00    -0.027 A 
ATOM     24  C   UNL     1       9.256  -0.548   1.834  0.00  0.00    +0.005 A 
ATOM     25  C   UNL     1      10.244  -0.132   2.707  0.00  0.00    +0.000 A 
ATOM     26  C   UNL     1      10.285   1.184   3.128  0.00  0.00    +0.000 A 
ATOM     27  C   UNL     1       9.338   2.084   2.677  0.00  0.00    +0.000 A 
ATOM     28  C   UNL     1       8.352   1.669   1.801  0.00  0.00    +0.005 A 
ENDBRANCH  22  23
BRANCH  22  29
ATOM     29  N   UNL     1       7.803  -1.027  -0.548  0.00  0.00    -0.304 N 
ATOM     30  C   UNL     1       8.401  -0.550  -1.657  0.00  0.00    +0.245 C 
ATOM     31  O   UNL     1       8.466   0.649  -1.844  0.00  0.00    -0.270 OA
ATOM     32  H   UNL     1       7.751  -1.984  -0.398  0.00  0.00    +0.150 HD
BRANCH  30  33
ATOM     33  C   UNL     1       8.978  -1.485  -2.646  0.00  0.00    +0.037 A 
ATOM     34  C   UNL     1       8.900  -2.862  -2.437  0.00  0.00    +0.013 A 
ATOM     35  C   UNL     1       9.440  -3.729  -3.365  0.00  0.00    +0.001 A 
ATOM     36  C   UNL     1      10.059  -3.236  -4.500  0.00  0.00    +0.000 A 
ATOM     37  C   UNL     1      10.140  -1.871  -4.713  0.00  0.00    +0.001 A 
ATOM     38  C   UNL     1       9.598  -0.993  -3.796  0.00  0.00    +0.013 A 
ENDBRANCH  30  33
ENDBRANCH  22  29
ENDBRANCH  21  22
ENDBRANCH   1  21
TORSDOF 13
