REMARK  Name = ZINC59831111
REMARK  14 active torsions:
REMARK  status: ('A' for Active; 'I' for Inactive)
REMARK    1  A    between atoms: C_1  and  C_2
REMARK    2  A    between atoms: C_3  and  C_11
REMARK    3  A    between atoms: C_4  and  C_10
REMARK    4  A    between atoms: N_5  and  C_7
REMARK    5  A    between atoms: C_7  and  C_8
REMARK    6  A    between atoms: N_12  and  N_13
REMARK    7  A    between atoms: C_16  and  S_19
REMARK    8  A    between atoms: S_19  and  C_20
REMARK    9  A    between atoms: C_20  and  C_21
REMARK   10  A    between atoms: N_23  and  C_24
REMARK   11  A    between atoms: C_26  and  O_32
REMARK   12  A    between atoms: C_28  and  O_30
REMARK   13  A    between atoms: O_30  and  C_31
REMARK   14  A    between atoms: O_32  and  C_33
REMARK                            x       y       z     vdW  Elec       q    Type
REMARK                         _______ _______ _______ _____ _____    ______ ____
ROOT
ATOM      1  N   UNL     1      -0.009   1.333  -4.152  0.00  0.00    -0.205 N 
ATOM      2  C   UNL     1      -0.031   2.685  -4.439  0.00  0.00    +0.232 A 
ATOM      3  N   UNL     1      -0.044   3.663  -3.557  0.00  0.00    -0.186 NA
ATOM      4  C   UNL     1      -0.064   4.840  -4.192  0.00  0.00    +0.211 A 
ATOM      5  N   UNL     1      -0.064   4.627  -5.486  0.00  0.00    -0.144 NA
ATOM      6  N   UNL     1      -0.038   3.235  -5.672  0.00  0.00    -0.245 N 
ATOM      7  H   UNL     1       0.003   0.684  -4.873  0.00  0.00    +0.177 HD
ATOM      8  H   UNL     1      -0.029   2.762  -6.519  0.00  0.00    +0.192 HD
ENDROOT
BRANCH   1  10
ATOM      9  C   UNL     1       0.016  -0.370  -2.550  0.00  0.00    +0.141 C 
ATOM     10  N   UNL     1      -0.005   0.899  -2.820  0.00  0.00    -0.187 NA
BRANCH   9  13
ATOM     11  C   UNL     1      -0.022   1.502   0.009  0.00  0.00    +0.068 C 
ATOM     12  C   UNL     1       0.004  -0.005   0.001  0.00  0.00    +0.069 A 
ATOM     13  C   UNL     1       0.020  -0.827  -1.147  0.00  0.00    +0.038 A 
ATOM     14  C   UNL     1       0.042  -2.134  -0.714  0.00  0.00    +0.045 A 
ATOM     15  N   UNL     1       0.038  -2.112   0.635  0.00  0.00    -0.264 N 
ATOM     16  N   UNL     1       0.020  -0.777   1.054  0.00  0.00    -0.175 NA
ATOM     17  C   UNL     1       0.065  -3.363  -1.586  0.00  0.00    +0.066 C 
BRANCH  15  18
ATOM     18  C   UNL     1       0.057  -3.286   1.512  0.00  0.00    +0.170 C 
BRANCH  18  19
ATOM     19  C   UNL     1       1.483  -3.664   1.815  0.00  0.00    -0.012 C 
ATOM     20  C   UNL     1       1.883  -3.767   3.059  0.00  0.00    +0.006 C 
ENDBRANCH  18  19
ENDBRANCH  15  18
ENDBRANCH   9  13
ENDBRANCH   1  10
BRANCH   4  21
ATOM     21  S   UNL     1      -0.087   6.422  -3.415  0.00  0.00    -0.075 S 
BRANCH  21  22
ATOM     22  C   UNL     1      -0.108   7.591  -4.802  0.00  0.00    +0.173 C 
BRANCH  22  23
ATOM     23  C   UNL     1      -0.129   9.001  -4.270  0.00  0.00    +0.227 C 
ATOM     24  O   UNL     1      -0.129   9.197  -3.073  0.00  0.00    -0.275 OA
ATOM     25  N   UNL     1      -0.147  10.043  -5.124  0.00  0.00    -0.285 N 
ATOM     26  H   UNL     1      -0.079   9.889  -6.079  0.00  0.00    +0.155 HD
BRANCH  25  27
ATOM     27  C   UNL     1      -0.263  11.348  -4.633  0.00  0.00    +0.040 A 
ATOM     28  C   UNL     1      -0.982  12.297  -5.346  0.00  0.00    +0.069 A 
ATOM     29  C   UNL     1      -1.097  13.590  -4.859  0.00  0.00    +0.125 A 
ATOM     30  C   UNL     1      -0.494  13.935  -3.659  0.00  0.00    +0.091 A 
ATOM     31  C   UNL     1       0.224  12.988  -2.945  0.00  0.00    +0.125 A 
ATOM     32  C   UNL     1       0.335  11.693  -3.428  0.00  0.00    +0.069 A 
BRANCH  31  33
ATOM     33  O   UNL     1       0.815  13.327  -1.769  0.00  0.00    -0.495 OA
ATOM     34  C   UNL     1       0.655  14.677  -1.329  0.00  0.00    +0.277 C 
ENDBRANCH  31  33
BRANCH  29  35
ATOM     35  O   UNL     1      -1.801  14.519  -5.558  0.00  0.00    -0.495 OA
ATOM     36  C   UNL     1      -1.879  15.831  -4.997  0.00  0.00    +0.277 C 
ENDBRANCH  29  35
ENDBRANCH  25  27
ENDBRANCH  22  23
ENDBRANCH  21  22
ENDBRANCH   4  21
TORSDOF 10
