REMARK  Name = ZINC27768721
REMARK  6 active torsions:
REMARK  status: ('A' for Active; 'I' for Inactive)
REMARK    1  A    between atoms: C_6  and  C_7
REMARK    2  A    between atoms: N_10  and  N_13
REMARK    3  A    between atoms: C_14  and  C_16
REMARK    4  A    between atoms: C_26  and  C_30
REMARK    5  A    between atoms: C_30  and  C_31
REMARK    6  A    between atoms: C_31  and  N_32
REMARK                            x       y       z     vdW  Elec       q    Type
REMARK                         _______ _______ _______ _____ _____    ______ ____
ROOT
ATOM      1  C   UNL     1      -1.560   9.853  -1.255  0.00  0.00    -0.042 C 
ATOM      2  C   UNL     1      -1.387   9.265  -0.091  0.00  0.00    -0.006 C 
ATOM      3  C   UNL     1      -1.464   7.777   0.094  0.00  0.00    +0.133 C 
ATOM      4  N   UNL     1      -2.139   7.157  -1.053  0.00  0.00    -0.223 NA
ATOM      5  C   UNL     1      -1.524   7.609  -2.312  0.00  0.00    +0.110 C 
ATOM      6  C   UNL     1      -1.862   9.089  -2.513  0.00  0.00    +0.052 C 
ENDROOT
BRANCH   1  12
ATOM      7  C   UNL     1      -0.426  11.918  -2.070  0.00  0.00    +0.010 A 
ATOM      8  C   UNL     1      -0.316  13.276  -2.147  0.00  0.00    +0.027 A 
ATOM      9  C   UNL     1      -1.229  14.092  -1.486  0.00  0.00    +0.047 A 
ATOM     10  C   UNL     1      -2.268  13.509  -0.737  0.00  0.00    +0.003 A 
ATOM     11  C   UNL     1      -2.382  12.122  -0.664  0.00  0.00    +0.018 A 
ATOM     12  C   UNL     1      -1.456  11.326  -1.328  0.00  0.00    -0.021 A 
ATOM     13  C   UNL     1      -3.039  14.623  -0.177  0.00  0.00    -0.024 A 
ATOM     14  C   UNL     1      -2.452  15.755  -0.598  0.00  0.00    +0.087 A 
ATOM     15  N   UNL     1      -1.370  15.458  -1.380  0.00  0.00    -0.360 N 
ATOM     16  H   UNL     1      -0.661  16.125  -1.891  0.00  0.00    +0.165 HD
BRANCH  13  17
ATOM     17  C   UNL     1      -4.257  14.518   0.703  0.00  0.00    +0.019 C 
BRANCH  17  18
ATOM     18  C   UNL     1      -3.821  14.354   2.160  0.00  0.00    -0.074 C 
BRANCH  18  19
ATOM     19  N   UNL     1      -5.009  14.252   3.018  0.00  0.00    +0.380 N 
ATOM     20  C   UNL     1      -5.931  13.195   2.527  0.00  0.00    -0.079 C 
ATOM     21  C   UNL     1      -6.794  12.871   3.773  0.00  0.00    -0.020 C 
ATOM     22  C   UNL     1      -5.778  12.972   4.933  0.00  0.00    -0.020 C 
ATOM     23  C   UNL     1      -4.637  13.854   4.394  0.00  0.00    -0.079 C 
ATOM     24  H   UNL     1      -5.479  15.246   2.999  0.00  0.00    -0.082 HD
ENDBRANCH  18  19
ENDBRANCH  17  18
ENDBRANCH  13  17
ENDBRANCH   1  12
BRANCH   4  25
ATOM     25  N   UNL     1      -2.112   5.794  -0.958  0.00  0.00    -0.248 N 
ATOM     26  C   UNL     1      -3.256   5.111  -0.755  0.00  0.00    +0.233 C 
ATOM     27  O   UNL     1      -4.295   5.708  -0.568  0.00  0.00    -0.274 OA
ATOM     28  H   UNL     1      -1.158   5.255  -1.046  0.00  0.00    +0.169 HD
BRANCH  26  29
ATOM     29  C   UNL     1      -3.245   3.604  -0.763  0.00  0.00    +0.049 C 
ATOM     30  C   UNL     1      -2.311   3.095   0.338  0.00  0.00    +0.019 C 
ATOM     31  C   UNL     1      -2.300   1.565   0.330  0.00  0.00    -0.009 C 
ATOM     32  C   UNL     1      -3.716   1.043   0.581  0.00  0.00    +0.007 C 
ATOM     33  C   UNL     1      -4.649   1.552  -0.519  0.00  0.00    -0.009 C 
ATOM     34  C   UNL     1      -4.661   3.082  -0.512  0.00  0.00    +0.019 C 
ATOM     35  C   UNL     1      -4.155   1.052  -1.878  0.00  0.00    +0.007 C 
ATOM     36  C   UNL     1      -2.739   1.574  -2.130  0.00  0.00    -0.009 C 
ATOM     37  C   UNL     1      -1.806   1.066  -1.029  0.00  0.00    +0.007 C 
ATOM     38  C   UNL     1      -2.751   3.104  -2.122  0.00  0.00    +0.019 C 
ENDBRANCH  26  29
ENDBRANCH   4  25
TORSDOF 6
