REMARK  Name = ZINC34791523
REMARK  11 active torsions:
REMARK  status: ('A' for Active; 'I' for Inactive)
REMARK    1  A    between atoms: C_1  and  C_2
REMARK    2  A    between atoms: C_2  and  C_3
REMARK    3  A    between atoms: C_2  and  C_4
REMARK    4  A    between atoms: C_4  and  C_5
REMARK    5  A    between atoms: C_5  and  C_7
REMARK    6  A    between atoms: C_5  and  N_16
REMARK    7  A    between atoms: N_9  and  C_10
REMARK    8  A    between atoms: C_22  and  C_31
REMARK    9  A    between atoms: N_27  and  C_28
REMARK   10  A    between atoms: C_28  and  C_29
REMARK   11  A    between atoms: C_36  and  C_37
REMARK                            x       y       z     vdW  Elec       q    Type
REMARK                         _______ _______ _______ _____ _____    ______ ____
ROOT
ATOM      1  N   UNL     1      -2.590   0.561  -0.913  0.00  0.00    -0.281 N 
ATOM      2  C   UNL     1      -1.788   1.112  -2.016  0.00  0.00    +0.160 C 
ATOM      3  C   UNL     1      -2.070   2.598  -1.997  0.00  0.00    +0.043 C 
ATOM      4  C   UNL     1      -2.936   2.807  -0.984  0.00  0.00    +0.058 C 
ATOM      5  C   UNL     1      -3.246   1.589  -0.345  0.00  0.00    +0.247 C 
ATOM      6  O   UNL     1      -4.006   1.482   0.600  0.00  0.00    -0.270 OA
ATOM      7  C   UNL     1      -3.395   4.229  -0.732  0.00  0.00    +0.142 C 
ATOM      8  N   UNL     1      -2.856   5.271  -1.621  0.00  0.00    -0.288 N 
ATOM      9  C   UNL     1      -1.996   4.905  -2.592  0.00  0.00    +0.307 C 
ATOM     10  O   UNL     1      -1.545   5.759  -3.331  0.00  0.00    -0.252 OA
ATOM     11  N   UNL     1      -1.623   3.631  -2.770  0.00  0.00    -0.253 N 
ATOM     12  H   UNL     1      -3.113   6.200  -1.510  0.00  0.00    +0.151 HD
ENDROOT
BRANCH   7  13
ATOM     13  C   UNL     1      -3.030   4.591   0.684  0.00  0.00    -0.011 A 
ATOM     14  C   UNL     1      -1.705   4.789   1.027  0.00  0.00    +0.006 A 
ATOM     15  C   UNL     1      -1.370   5.121   2.326  0.00  0.00    +0.000 A 
ATOM     16  C   UNL     1      -2.359   5.257   3.282  0.00  0.00    +0.001 A 
ATOM     17  C   UNL     1      -3.683   5.061   2.939  0.00  0.00    +0.013 A 
ATOM     18  C   UNL     1      -4.019   4.733   1.639  0.00  0.00    +0.060 A 
BRANCH  18  19
ATOM     19  C   UNL     1      -5.464   4.524   1.264  0.00  0.00    +0.418 C 
ATOM     20  F   UNL     1      -6.266   4.660   2.402  0.00  0.00    -0.166 F 
ATOM     21  F   UNL     1      -5.841   5.477   0.311  0.00  0.00    -0.166 F 
ATOM     22  F   UNL     1      -5.626   3.241   0.729  0.00  0.00    -0.166 F 
ENDBRANCH  18  19
ENDBRANCH   7  13
BRANCH   1  23
ATOM     23  C   UNL     1      -2.666  -0.846  -0.513  0.00  0.00    +0.163 C 
BRANCH  23  24
ATOM     24  C   UNL     1      -4.066  -1.357  -0.736  0.00  0.00    +0.234 C 
ATOM     25  O   UNL     1      -4.917  -0.618  -1.185  0.00  0.00    -0.274 OA
ATOM     26  N   UNL     1      -4.373  -2.635  -0.437  0.00  0.00    -0.311 N 
ATOM     27  H   UNL     1      -3.693  -3.225  -0.077  0.00  0.00    +0.149 HD
BRANCH  26  28
ATOM     28  C   UNL     1      -5.734  -3.131  -0.653  0.00  0.00    +0.073 C 
ATOM     29  C   UNL     1      -6.600  -2.793   0.561  0.00  0.00    +0.022 C 
ATOM     30  C   UNL     1      -8.022  -3.311   0.335  0.00  0.00    +0.002 C 
ATOM     31  C   UNL     1      -7.986  -4.829   0.141  0.00  0.00    +0.000 C 
ATOM     32  C   UNL     1      -7.120  -5.168  -1.074  0.00  0.00    +0.002 C 
ATOM     33  C   UNL     1      -5.699  -4.649  -0.847  0.00  0.00    +0.022 C 
ENDBRANCH  26  28
ENDBRANCH  23  24
BRANCH  23  34
ATOM     34  C   UNL     1      -2.306  -0.975   0.968  0.00  0.00    +0.035 C 
BRANCH  34  36
ATOM     35  C   UNL     1      -0.540  -0.528   2.678  0.00  0.00    +0.007 C 
ATOM     36  C   UNL     1      -0.856  -0.536   1.181  0.00  0.00    -0.015 C 
ATOM     37  C   UNL     1       0.082  -1.511   0.467  0.00  0.00    +0.007 C 
ENDBRANCH  34  36
ENDBRANCH  23  34
ENDBRANCH   1  23
BRANCH  11  38
ATOM     38  C   UNL     1      -0.684   3.329  -3.853  0.00  0.00    +0.141 C 
BRANCH  38  39
ATOM     39  C   UNL     1      -1.451   3.030  -5.115  0.00  0.00    -0.015 C 
ATOM     40  C   UNL     1      -1.199   3.704  -6.210  0.00  0.00    +0.005 C 
ENDBRANCH  38  39
ENDBRANCH  11  38
TORSDOF 9
