REMARK  Name = ZINC65356211
REMARK  6 active torsions:
REMARK  status: ('A' for Active; 'I' for Inactive)
REMARK    1  A    between atoms: C_1  and  S_2
REMARK    2  A    between atoms: S_2  and  C_5
REMARK    3  A    between atoms: N_13  and  C_14
REMARK    4  A    between atoms: C_14  and  C_16
REMARK    5  A    between atoms: C_16  and  C_18
REMARK    6  A    between atoms: C_16  and  N_24
REMARK                            x       y       z     vdW  Elec       q    Type
REMARK                         _______ _______ _______ _____ _____    ______ ____
ROOT
ATOM      1  C   UNL     1       6.505  -2.077  -5.273  0.00  0.00    +0.261 C 
ATOM      2  O   UNL     1       6.802  -1.934  -4.103  0.00  0.00    -0.271 OA
ENDROOT
BRANCH   1  11
ATOM      3  C   UNL     1       0.717  -0.983  -1.481  0.00  0.00    +0.089 A 
ATOM      4  C   UNL     1       0.036  -1.093  -2.682  0.00  0.00    +0.029 A 
ATOM      5  C   UNL     1       0.705  -1.327  -3.861  0.00  0.00    +0.028 A 
ATOM      6  C   UNL     1       2.100  -1.461  -3.876  0.00  0.00    +0.055 A 
ATOM      7  C   UNL     1       2.764  -1.344  -2.647  0.00  0.00    +0.040 A 
ATOM      8  C   UNL     1       2.096  -1.105  -1.470  0.00  0.00    +0.044 A 
ATOM      9  S   UNL     1       4.468  -1.569  -3.086  0.00  0.00    -0.052 S 
ATOM     10  C   UNL     1       4.281  -1.792  -4.742  0.00  0.00    +0.164 A 
ATOM     11  N   UNL     1       5.231  -2.013  -5.648  0.00  0.00    -0.155 NA
ATOM     12  N   UNL     1       2.943  -1.696  -4.946  0.00  0.00    -0.335 N 
ATOM     13  H   UNL     1       2.579  -1.791  -5.840  0.00  0.00    +0.168 HD
BRANCH   3  15
ATOM     14  C   UNL     1      -0.239   1.124   0.158  0.00  0.00    +0.200 C 
ATOM     15  S   UNL     1      -0.162  -0.683   0.016  0.00  0.00    -0.006 S 
ATOM     16  O   UNL     1       0.668  -1.219   1.038  0.00  0.00    -0.170 OA
ATOM     17  O   UNL     1      -1.461  -1.212  -0.214  0.00  0.00    -0.170 OA
ENDBRANCH   3  15
ENDBRANCH   1  11
BRANCH   1  18
ATOM     18  C   UNL     1       7.580  -2.327  -6.299  0.00  0.00    +0.190 C 
BRANCH  18  19
ATOM     19  N   UNL     1       8.790  -2.823  -5.630  0.00  0.00    -0.227 NA
ATOM     20  C   UNL     1       8.584  -4.200  -5.108  0.00  0.00    +0.169 C 
ATOM     21  N   UNL     1       9.972  -4.725  -5.025  0.00  0.00    -0.335 NA
ATOM     22  N   UNL     1      10.642  -4.159  -6.199  0.00  0.00    +0.408 N 
ATOM     23  N   UNL     1       9.897  -2.961  -6.580  0.00  0.00    -0.280 NA
ATOM     24  H   UNL     1      10.421  -4.426  -4.173  0.00  0.00    +0.105 HD
ATOM     25  H   UNL     1      11.592  -3.913  -5.967  0.00  0.00    -0.032 HD
ATOM     26  H   UNL     1       9.555  -3.033  -7.526  0.00  0.00    +0.121 HD
ATOM     27  H   UNL     1      10.631  -4.825  -6.956  0.00  0.00    -0.032 HD
ENDBRANCH  18  19
BRANCH  18  28
ATOM     28  C   UNL     1       7.896  -1.041  -7.019  0.00  0.00    -0.020 A 
ATOM     29  C   UNL     1       7.452  -0.847  -8.314  0.00  0.00    +0.006 A 
ATOM     30  C   UNL     1       7.742   0.332  -8.975  0.00  0.00    +0.000 A 
ATOM     31  C   UNL     1       8.475   1.317  -8.340  0.00  0.00    +0.000 A 
ATOM     32  C   UNL     1       8.918   1.124  -7.045  0.00  0.00    +0.000 A 
ATOM     33  C   UNL     1       8.624  -0.053  -6.383  0.00  0.00    +0.006 A 
ENDBRANCH  18  28
ENDBRANCH   1  18
TORSDOF 5
