REMARK  Name = ZINC03130725
REMARK  9 active torsions:
REMARK  status: ('A' for Active; 'I' for Inactive)
REMARK    1  A    between atoms: C_1  and  C_2
REMARK    2  A    between atoms: N_4  and  C_5
REMARK    3  A    between atoms: C_8  and  N_11
REMARK    4  A    between atoms: N_11  and  C_12
REMARK    5  A    between atoms: C_12  and  N_14
REMARK    6  A    between atoms: N_14  and  C_15
REMARK    7  A    between atoms: C_15  and  C_17
REMARK    8  A    between atoms: C_15  and  N_21
REMARK    9  A    between atoms: C_22  and  C_24
REMARK                            x       y       z     vdW  Elec       q    Type
REMARK                         _______ _______ _______ _____ _____    ______ ____
ROOT
ATOM      1  C   UNL     1      -4.727   5.151  -0.089  0.00  0.00    +0.136 C 
ATOM      2  S   UNL     1      -3.221   5.958  -0.204  0.00  0.00    -0.019 S 
ENDROOT
BRANCH   1   3
ATOM      3  N   UNL     1      -4.764   3.815   0.088  0.00  0.00    -0.297 N 
ATOM      4  H   UNL     1      -5.615   3.365   0.208  0.00  0.00    +0.154 HD
BRANCH   3   8
ATOM      5  C   UNL     1      -1.221   1.617   0.123  0.00  0.00    +0.033 A 
ATOM      6  C   UNL     1      -2.321   1.149  -0.583  0.00  0.00    +0.025 A 
ATOM      7  C   UNL     1      -3.496   1.874  -0.590  0.00  0.00    +0.025 A 
ATOM      8  C   UNL     1      -3.574   3.077   0.100  0.00  0.00    +0.033 A 
ATOM      9  C   UNL     1      -2.471   3.548   0.801  0.00  0.00    +0.025 A 
ATOM     10  C   UNL     1      -1.298   2.820   0.813  0.00  0.00    +0.025 A 
BRANCH   5  14
ATOM     11  C   UNL     1       1.981   0.005   1.280  0.00  0.00    +0.109 C 
ATOM     12  C   UNL     1       0.732   0.847   1.247  0.00  0.00    +0.214 C 
ATOM     13  O   UNL     1       0.412   1.496   2.220  0.00  0.00    -0.276 OA
ATOM     14  N   UNL     1      -0.031   0.878   0.136  0.00  0.00    -0.286 N 
ATOM     15  H   UNL     1       0.247   0.392  -0.657  0.00  0.00    +0.155 HD
ENDBRANCH   5  14
ENDBRANCH   3   8
ENDBRANCH   1   3
BRANCH   1  16
ATOM     16  N   UNL     1      -5.875   5.851  -0.175  0.00  0.00    -0.305 N 
ATOM     17  H   UNL     1      -6.728   5.394  -0.110  0.00  0.00    +0.150 HD
BRANCH  16  18
ATOM     18  C   UNL     1      -5.835   7.303  -0.368  0.00  0.00    +0.211 C 
BRANCH  18  19
ATOM     19  C   UNL     1      -6.835   7.971   0.578  0.00  0.00    +0.225 C 
ATOM     20 CL   UNL     1      -6.402   7.579   2.284  0.00  0.00    -0.080 Cl
ATOM     21 CL   UNL     1      -6.785   9.758   0.341  0.00  0.00    -0.080 Cl
ATOM     22 CL   UNL     1      -8.495   7.364   0.224  0.00  0.00    -0.080 Cl
ENDBRANCH  18  19
BRANCH  18  23
ATOM     23  N   UNL     1      -6.186   7.622  -1.754  0.00  0.00    -0.293 N 
ATOM     24  C   UNL     1      -5.226   7.994  -2.624  0.00  0.00    +0.229 C 
ATOM     25  O   UNL     1      -4.071   8.065  -2.259  0.00  0.00    -0.274 OA
ATOM     26  H   UNL     1      -7.109   7.565  -2.046  0.00  0.00    +0.151 HD
BRANCH  24  27
ATOM     27  C   UNL     1      -5.587   8.322  -4.050  0.00  0.00    +0.204 C 
ATOM     28 CL   UNL     1      -4.098   8.781  -4.957  0.00  0.00    -0.116 Cl
ENDBRANCH  24  27
ENDBRANCH  18  23
ENDBRANCH  16  18
ENDBRANCH   1  16
TORSDOF 8
