REMARK  Name = ZINC10042375
REMARK  12 active torsions:
REMARK  status: ('A' for Active; 'I' for Inactive)
REMARK    1  A    between atoms: C_1  and  C_2
REMARK    2  A    between atoms: C_2  and  O_3
REMARK    3  A    between atoms: O_3  and  C_4
REMARK    4  A    between atoms: C_6  and  C_12
REMARK    5  A    between atoms: C_9  and  O_10
REMARK    6  A    between atoms: N_13  and  N_14
REMARK    7  A    between atoms: C_15  and  C_17
REMARK    8  A    between atoms: C_17  and  C_19
REMARK    9  A    between atoms: C_17  and  N_22
REMARK   10  A    between atoms: C_19  and  C_20
REMARK   11  A    between atoms: C_19  and  C_21
REMARK   12  A    between atoms: C_23  and  C_25
REMARK                            x       y       z     vdW  Elec       q    Type
REMARK                         _______ _______ _______ _____ _____    ______ ____
ROOT
ATOM      1  N   UNL     1       3.383  -6.161  -1.247  0.00  0.00    -0.205 N 
ATOM      2  C   UNL     1       3.355  -4.867  -0.872  0.00  0.00    +0.253 C 
ATOM      3  O   UNL     1       4.244  -4.117  -1.216  0.00  0.00    -0.272 OA
ATOM      4  H   UNL     1       2.638  -6.745  -1.034  0.00  0.00    +0.177 HD
ENDROOT
BRANCH   1   6
ATOM      5  C   UNL     1       4.515  -7.911  -2.307  0.00  0.00    +0.138 C 
ATOM      6  N   UNL     1       4.488  -6.665  -1.946  0.00  0.00    -0.188 NA
BRANCH   5   9
ATOM      7  C   UNL     1       6.801 -10.273  -4.123  0.00  0.00    +0.163 A 
ATOM      8  C   UNL     1       5.712  -9.783  -3.428  0.00  0.00    +0.059 A 
ATOM      9  C   UNL     1       5.678  -8.440  -3.043  0.00  0.00    -0.001 A 
ATOM     10  C   UNL     1       6.753  -7.602  -3.351  0.00  0.00    +0.028 A 
ATOM     11  C   UNL     1       7.840  -8.099  -4.039  0.00  0.00    +0.063 A 
ATOM     12  C   UNL     1       7.869  -9.432  -4.427  0.00  0.00    +0.173 A 
ATOM     13 BR   UNL     1       9.293  -6.963  -4.456  0.00  0.00    -0.046 Br
BRANCH  12  14
ATOM     14  O   UNL     1       8.943  -9.917  -5.105  0.00  0.00    -0.503 OA
ATOM     15  H   UNL     1       9.640 -10.271  -4.537  0.00  0.00    +0.292 HD
ENDBRANCH  12  14
BRANCH   7  16
ATOM     16  O   UNL     1       6.834 -11.578  -4.504  0.00  0.00    -0.489 OA
BRANCH  16  18
ATOM     17  C   UNL     1       5.921 -13.809  -4.668  0.00  0.00    +0.048 C 
ATOM     18  C   UNL     1       5.705 -12.383  -4.159  0.00  0.00    +0.226 C 
ENDBRANCH  16  18
ENDBRANCH   7  16
ENDBRANCH   5   9
ENDBRANCH   1   6
BRANCH   2  19
ATOM     19  C   UNL     1       2.220  -4.353  -0.024  0.00  0.00    +0.163 C 
BRANCH  19  20
ATOM     20  N   UNL     1       2.039  -2.920  -0.268  0.00  0.00    -0.300 N 
ATOM     21  C   UNL     1       0.840  -2.345  -0.051  0.00  0.00    +0.245 C 
ATOM     22  O   UNL     1      -0.092  -3.016   0.348  0.00  0.00    -0.270 OA
ATOM     23  H   UNL     1       2.783  -2.384  -0.586  0.00  0.00    +0.150 HD
BRANCH  21  24
ATOM     24  C   UNL     1       0.657  -0.899  -0.297  0.00  0.00    +0.037 A 
ATOM     25  C   UNL     1      -0.584  -0.302  -0.072  0.00  0.00    +0.014 A 
ATOM     26  C   UNL     1      -0.749   1.048  -0.304  0.00  0.00    +0.021 A 
ATOM     27  C   UNL     1       0.315   1.810  -0.759  0.00  0.00    +0.041 A 
ATOM     28  C   UNL     1       1.549   1.222  -0.983  0.00  0.00    +0.021 A 
ATOM     29  C   UNL     1       1.725  -0.126  -0.755  0.00  0.00    +0.014 A 
ATOM     30 CL   UNL     1       0.100   3.508  -1.049  0.00  0.00    -0.084 Cl
ENDBRANCH  21  24
ENDBRANCH  19  20
BRANCH  19  31
ATOM     31  C   UNL     1       2.543  -4.582   1.454  0.00  0.00    +0.012 C 
ATOM     32  C   UNL     1       1.369  -4.105   2.312  0.00  0.00    +0.009 C 
ATOM     33  C   UNL     1       2.781  -6.073   1.698  0.00  0.00    +0.009 C 
ENDBRANCH  19  31
ENDBRANCH   2  19
TORSDOF 9
