REMARK  Name = ZINC04229198
REMARK  9 active torsions:
REMARK  status: ('A' for Active; 'I' for Inactive)
REMARK    1  A    between atoms: C_1  and  C_2
REMARK    2  A    between atoms: C_2  and  O_3
REMARK    3  A    between atoms: O_3  and  C_4
REMARK    4  A    between atoms: C_4  and  C_6
REMARK    5  A    between atoms: C_10  and  N_11
REMARK    6  A    between atoms: C_12  and  C_14
REMARK    7  A    between atoms: N_16  and  N_17
REMARK    8  A    between atoms: C_18  and  C_19
REMARK    9  A    between atoms: C_32  and  C_36
REMARK                            x       y       z     vdW  Elec       q    Type
REMARK                         _______ _______ _______ _____ _____    ______ ____
ROOT
ATOM      1  N   UNL     1      -1.493  -0.852  -2.474  0.00  0.00    -0.271 N 
ATOM      2  C   UNL     1      -2.244  -1.283  -3.506  0.00  0.00    +0.305 C 
ATOM      3  O   UNL     1      -3.270  -1.898  -3.296  0.00  0.00    -0.265 OA
ATOM      4  H   UNL     1      -0.673  -0.361  -2.642  0.00  0.00    +0.156 HD
ENDROOT
BRANCH   1   9
ATOM      5  C   UNL     1      -1.256  -0.754   0.010  0.00  0.00    +0.091 A 
ATOM      6  C   UNL     1      -1.892  -1.146   1.256  0.00  0.00    -0.021 A 
ATOM      7  C   UNL     1      -3.047  -1.833   1.121  0.00  0.00    -0.004 A 
ATOM      8  S   UNL     1      -3.297  -1.962  -0.627  0.00  0.00    -0.077 S 
ATOM      9  C   UNL     1      -1.890  -1.111  -1.174  0.00  0.00    +0.087 A 
ATOM     10  C   UNL     1      -3.916  -2.364   2.220  0.00  0.00    +0.046 C 
ATOM     11  C   UNL     1      -3.111  -2.340   3.527  0.00  0.00    -0.009 C 
ATOM     12  C   UNL     1      -2.443  -0.969   3.670  0.00  0.00    +0.008 C 
ATOM     13  C   UNL     1      -1.327  -0.823   2.634  0.00  0.00    +0.037 C 
ATOM     14  C   UNL     1      -4.048  -2.583   4.712  0.00  0.00    +0.008 C 
BRANCH   5  15
ATOM     15  C   UNL     1       0.002  -0.004   0.002  0.00  0.00    +0.342 C 
ATOM     16  O   UNL     1       1.064  -0.598  -0.011  0.00  0.00    -0.245 OA
BRANCH  15  17
ATOM     17  O   UNL     1      -0.016   1.345   0.009  0.00  0.00    -0.461 OA
BRANCH  17  19
ATOM     18  C   UNL     1       1.047   3.535   0.011  0.00  0.00    +0.048 C 
ATOM     19  C   UNL     1       1.268   2.021   0.001  0.00  0.00    +0.229 C 
ENDBRANCH  17  19
ENDBRANCH  15  17
ENDBRANCH   5  15
ENDBRANCH   1   9
BRANCH   2  20
ATOM     20  C   UNL     1      -1.817  -1.004  -4.906  0.00  0.00    +0.318 C 
ATOM     21  O   UNL     1      -0.791  -0.389  -5.117  0.00  0.00    -0.263 OA
ATOM     22  N   UNL     1      -2.568  -1.435  -5.939  0.00  0.00    -0.199 N 
ATOM     23  H   UNL     1      -3.388  -1.926  -5.771  0.00  0.00    +0.178 HD
BRANCH  22  24
ATOM     24  N   UNL     1      -2.167  -1.173  -7.255  0.00  0.00    -0.187 NA
ATOM     25  C   UNL     1      -2.892  -1.588  -8.252  0.00  0.00    +0.143 C 
BRANCH  25  26
ATOM     26  C   UNL     1      -2.470  -1.313  -9.633  0.00  0.00    +0.059 A 
ATOM     27  C   UNL     1      -3.235  -1.751 -10.698  0.00  0.00    +0.024 A 
ATOM     28  C   UNL     1      -2.802  -1.470 -12.017  0.00  0.00    -0.001 A 
ATOM     29  C   UNL     1      -3.560  -1.903 -13.116  0.00  0.00    +0.010 A 
ATOM     30  C   UNL     1      -3.136  -1.628 -14.384  0.00  0.00    +0.001 A 
ATOM     31  C   UNL     1      -1.959  -0.923 -14.598  0.00  0.00    +0.002 A 
ATOM     32  C   UNL     1      -1.198  -0.488 -13.535  0.00  0.00    +0.026 A 
ATOM     33  C   UNL     1      -1.609  -0.755 -12.231  0.00  0.00    +0.049 A 
ATOM     34  N   UNL     1      -0.850  -0.321 -11.164  0.00  0.00    -0.322 N 
ATOM     35  H   UNL     1      -0.002   0.181 -11.334  0.00  0.00    +0.169 HD
ATOM     36  C   UNL     1      -1.234  -0.565  -9.897  0.00  0.00    +0.258 A 
ATOM     37  O   UNL     1      -0.553  -0.168  -8.969  0.00  0.00    -0.267 OA
ENDBRANCH  25  26
ENDBRANCH  22  24
ENDBRANCH   2  20
TORSDOF 7
