REMARK  Name = ZINC39933411
REMARK  9 active torsions:
REMARK  status: ('A' for Active; 'I' for Inactive)
REMARK    1  A    between atoms: C_1  and  C_2
REMARK    2  A    between atoms: C_2  and  C_4
REMARK    3  A    between atoms: C_2  and  S_17
REMARK    4  A    between atoms: N_6  and  C_7
REMARK    5  A    between atoms: C_10  and  N_13
REMARK    6  A    between atoms: C_14  and  C_16
REMARK    7  A    between atoms: S_17  and  C_18
REMARK    8  A    between atoms: C_22  and  C_30
REMARK    9  A    between atoms: N_23  and  C_24
REMARK                            x       y       z     vdW  Elec       q    Type
REMARK                         _______ _______ _______ _____ _____    ______ ____
ROOT
ATOM      1  C   UNL     1      -2.193  -0.137  -1.572  0.00  0.00    +0.242 C 
ATOM      2  N   UNL     1      -1.948   1.314  -1.512  0.00  0.00    -0.237 N 
ATOM      3  N   UNL     1      -1.373   1.671  -2.737  0.00  0.00    -0.169 NA
ATOM      4  C   UNL     1      -1.240   0.633  -3.520  0.00  0.00    +0.151 C 
ATOM      5  N   UNL     1      -1.714  -0.533  -2.907  0.00  0.00    -0.254 N 
ATOM      6  H   UNL     1      -2.146   1.905  -0.769  0.00  0.00    +0.171 HD
ENDROOT
BRANCH   4   7
ATOM      7  C   UNL     1      -0.695   0.682  -4.812  0.00  0.00    +0.022 C 
ATOM      8  C   UNL     1      -0.306   1.818  -5.521  0.00  0.00    +0.006 A 
ATOM      9  C   UNL     1      -0.327   3.193  -5.205  0.00  0.00    +0.010 A 
ATOM     10  C   UNL     1       0.125   4.100  -6.109  0.00  0.00    +0.001 A 
ATOM     11  C   UNL     1       0.616   3.707  -7.356  0.00  0.00    +0.002 A 
ATOM     12  C   UNL     1       0.666   2.404  -7.726  0.00  0.00    +0.026 A 
ATOM     13  C   UNL     1       0.211   1.399  -6.834  0.00  0.00    +0.043 A 
ATOM     14  N   UNL     1       0.155   0.086  -6.954  0.00  0.00    -0.380 N 
ATOM     15  C   UNL     1      -0.400  -0.488  -5.725  0.00  0.00    +0.152 C 
ATOM     16  H   UNL     1       0.441  -0.419  -7.731  0.00  0.00    +0.160 HD
ENDBRANCH   4   7
BRANCH   5  17
ATOM     17  C   UNL     1      -1.729  -1.819  -3.451  0.00  0.00    +0.038 A 
ATOM     18  C   UNL     1      -0.560  -2.569  -3.498  0.00  0.00    +0.023 A 
ATOM     19  C   UNL     1      -0.579  -3.841  -4.037  0.00  0.00    +0.002 A 
ATOM     20  C   UNL     1      -1.759  -4.368  -4.529  0.00  0.00    +0.000 A 
ATOM     21  C   UNL     1      -2.924  -3.624  -4.484  0.00  0.00    +0.002 A 
ATOM     22  C   UNL     1      -2.914  -2.354  -3.942  0.00  0.00    +0.023 A 
ENDBRANCH   5  17
BRANCH   1  23
ATOM     23  S   UNL     1      -1.251  -0.994  -0.280  0.00  0.00    -0.105 S 
BRANCH  23  25
ATOM     24  C   UNL     1       0.625   0.995  -0.370  0.00  0.00    +0.029 C 
ATOM     25  C   UNL     1       0.469  -0.510  -0.596  0.00  0.00    +0.133 C 
BRANCH  25  26
ATOM     26  C   UNL     1       1.381  -1.257   0.342  0.00  0.00    +0.230 C 
ATOM     27  O   UNL     1       0.938  -1.744   1.360  0.00  0.00    -0.274 OA
ATOM     28  N   UNL     1       2.691  -1.383   0.050  0.00  0.00    -0.285 N 
ATOM     29  H   UNL     1       3.033  -1.056  -0.798  0.00  0.00    +0.155 HD
BRANCH  28  30
ATOM     30  C   UNL     1       3.559  -1.985   0.969  0.00  0.00    +0.034 A 
ATOM     31  C   UNL     1       4.866  -1.532   1.091  0.00  0.00    +0.025 A 
ATOM     32  C   UNL     1       5.721  -2.125   1.997  0.00  0.00    +0.025 A 
ATOM     33  C   UNL     1       5.275  -3.176   2.787  0.00  0.00    +0.033 A 
ATOM     34  C   UNL     1       3.968  -3.630   2.666  0.00  0.00    +0.025 A 
ATOM     35  C   UNL     1       3.111  -3.033   1.764  0.00  0.00    +0.025 A 
BRANCH  33  36
ATOM     36  N   UNL     1       6.143  -3.779   3.707  0.00  0.00    -0.286 N 
ATOM     37  C   UNL     1       6.053  -5.101   3.951  0.00  0.00    +0.214 C 
ATOM     38  O   UNL     1       5.165  -5.753   3.444  0.00  0.00    -0.276 OA
ATOM     39  C   UNL     1       7.058  -5.771   4.854  0.00  0.00    +0.109 C 
ATOM     40  H   UNL     1       6.808  -3.245   4.168  0.00  0.00    +0.155 HD
ENDBRANCH  33  36
ENDBRANCH  28  30
ENDBRANCH  25  26
ENDBRANCH  23  25
ENDBRANCH   1  23
TORSDOF 7
