REMARK  Name = ZINC43047193
REMARK  8 active torsions:
REMARK  status: ('A' for Active; 'I' for Inactive)
REMARK    1  A    between atoms: C_1  and  C_2
REMARK    2  A    between atoms: C_8  and  N_10
REMARK    3  A    between atoms: N_13  and  N_14
REMARK    4  A    between atoms: C_15  and  C_17
REMARK    5  A    between atoms: C_21  and  S_23
REMARK    6  A    between atoms: S_23  and  N_26
REMARK    7  A    between atoms: N_26  and  C_27
REMARK    8  A    between atoms: N_26  and  C_28
REMARK                            x       y       z     vdW  Elec       q    Type
REMARK                         _______ _______ _______ _____ _____    ______ ____
ROOT
ATOM      1  N   UNL     1       4.668   0.942   1.166  0.00  0.00    -0.229 N 
ATOM      2  C   UNL     1       5.933   1.409   1.156  0.00  0.00    +0.260 C 
ATOM      3  O   UNL     1       6.545   1.528   2.200  0.00  0.00    -0.269 OA
ATOM      4  H   UNL     1       4.180   0.848   0.333  0.00  0.00    +0.173 HD
ENDROOT
BRANCH   1   8
ATOM      5  N   UNL     1       2.116  -0.004   1.231  0.00  0.00    -0.295 N 
ATOM      6  C   UNL     1       2.795   0.128   2.388  0.00  0.00    +0.316 C 
ATOM      7  O   UNL     1       2.266  -0.174   3.441  0.00  0.00    -0.251 OA
ATOM      8  N   UNL     1       4.059   0.594   2.379  0.00  0.00    -0.218 N 
ATOM      9  H   UNL     1       2.538   0.237   0.392  0.00  0.00    +0.151 HD
ATOM     10  H   UNL     1       4.548   0.689   3.211  0.00  0.00    +0.174 HD
BRANCH   5  17
ATOM     11  C   UNL     1      -0.019   1.526   0.010  0.00  0.00    +0.009 C 
ATOM     12  C   UNL     1       0.002  -0.004   0.002  0.00  0.00    +0.006 C 
ATOM     13  C   UNL     1       0.718  -0.497  -1.257  0.00  0.00    +0.005 C 
ATOM     14  C   UNL     1       0.739  -2.027  -1.265  0.00  0.00    +0.000 C 
ATOM     15  C   UNL     1       1.479  -2.534  -0.026  0.00  0.00    +0.002 C 
ATOM     16  C   UNL     1       0.763  -2.041   1.233  0.00  0.00    +0.022 C 
ATOM     17  C   UNL     1       0.742  -0.511   1.242  0.00  0.00    +0.077 C 
ENDBRANCH   5  17
ENDBRANCH   1   8
BRANCH   2  18
ATOM     18  C   UNL     1       6.576   1.776  -0.123  0.00  0.00    +0.040 A 
ATOM     19  C   UNL     1       5.874   1.647  -1.323  0.00  0.00    +0.013 A 
ATOM     20  C   UNL     1       6.479   1.992  -2.514  0.00  0.00    +0.003 A 
ATOM     21  C   UNL     1       7.779   2.465  -2.520  0.00  0.00    +0.028 A 
ATOM     22  C   UNL     1       8.481   2.595  -1.335  0.00  0.00    +0.106 A 
ATOM     23  C   UNL     1       7.885   2.260  -0.137  0.00  0.00    +0.041 A 
BRANCH  22  24
ATOM     24  S   UNL     1      10.136   3.198  -1.355  0.00  0.00    +0.060 S 
ATOM     25  O   UNL     1      10.760   2.712  -0.174  0.00  0.00    -0.153 OA
ATOM     26  O   UNL     1      10.650   2.931  -2.653  0.00  0.00    -0.153 OA
BRANCH  24  27
ATOM     27  N   UNL     1      10.060   4.845  -1.206  0.00  0.00    -0.183 NA
ATOM     28  C   UNL     1      10.082   5.462   0.123  0.00  0.00    +0.131 C 
ATOM     29  C   UNL     1       9.970   5.686  -2.402  0.00  0.00    +0.131 C 
ENDBRANCH  24  27
ENDBRANCH  22  24
ENDBRANCH   2  18
TORSDOF 5
