REMARK  Name = ZINC09603621
REMARK  4 active torsions:
REMARK  status: ('A' for Active; 'I' for Inactive)
REMARK    1  A    between atoms: C_6  and  C_7
REMARK    2  A    between atoms: C_12  and  C_13
REMARK    3  A    between atoms: C_12  and  N_51
REMARK    4  A    between atoms: N_15  and  C_16
REMARK                            x       y       z     vdW  Elec       q    Type
REMARK                         _______ _______ _______ _____ _____    ______ ____
ROOT
ATOM      1  C   UNL     1       3.272   3.588   2.265  0.00  0.00    +0.020 C 
ENDROOT
BRANCH   1   6
ATOM      2  C   UNL     1       2.438   3.912   0.001  0.00  0.00    -0.037 C 
ATOM      3  C   UNL     1       3.050   3.914  -1.417  0.00  0.00    -0.013 C 
ATOM      4  C   UNL     1       4.573   3.809  -1.196  0.00  0.00    -0.020 C 
ATOM      5  C   UNL     1       4.753   3.753   0.337  0.00  0.00    -0.077 C 
ATOM      6  N   UNL     1       3.465   3.256   0.817  0.00  0.00    +0.390 N 
ATOM      7  H   UNL     1       3.414   2.238   0.695  0.00  0.00    -0.080 HD
BRANCH   2  13
ATOM      8  C   UNL     1       1.172   1.754   0.009  0.00  0.00    +0.006 A 
ATOM      9  C   UNL     1      -0.010   1.038   0.021  0.00  0.00    +0.049 A 
ATOM     10  C   UNL     1      -1.226   1.705   0.033  0.00  0.00    +0.162 A 
ATOM     11  C   UNL     1      -1.252   3.095   0.046  0.00  0.00    +0.162 A 
ATOM     12  C   UNL     1      -0.062   3.807   0.032  0.00  0.00    +0.051 A 
ATOM     13  C   UNL     1       1.147   3.136   0.014  0.00  0.00    -0.057 A 
ATOM     14  O   UNL     1      -2.434   3.769   0.071  0.00  0.00    -0.485 OA
ATOM     15  C   UNL     1      -3.603   3.030  -0.309  0.00  0.00    +0.270 C 
ATOM     16  C   UNL     1      -3.571   1.682   0.425  0.00  0.00    +0.270 C 
ATOM     17  O   UNL     1      -2.382   0.987   0.033  0.00  0.00    -0.485 OA
ENDBRANCH   2  13
ENDBRANCH   1   6
BRANCH   1  18
ATOM     18  C   UNL     1       4.152   2.708   3.116  0.00  0.00    +0.201 C 
ATOM     19  O   UNL     1       4.862   1.875   2.595  0.00  0.00    -0.278 OA
ATOM     20  N   UNL     1       4.149   2.849   4.457  0.00  0.00    -0.286 N 
ATOM     21  H   UNL     1       3.644   3.567   4.869  0.00  0.00    +0.155 HD
BRANCH  20  22
ATOM     22  C   UNL     1       4.878   1.957   5.255  0.00  0.00    +0.049 A 
ATOM     23  C   UNL     1       5.163   0.683   4.787  0.00  0.00    +0.052 A 
ATOM     24  C   UNL     1       5.883  -0.197   5.579  0.00  0.00    +0.069 A 
ATOM     25  C   UNL     1       6.320   0.202   6.845  0.00  0.00    +0.068 A 
ATOM     26  C   UNL     1       6.032   1.477   7.308  0.00  0.00    +0.045 A 
ATOM     27  C   UNL     1       5.318   2.353   6.514  0.00  0.00    +0.041 A 
ATOM     28 BR   UNL     1       4.932   4.094   7.143  0.00  0.00    -0.048 Br
ATOM     29  N   UNL     1       7.007  -0.881   7.393  0.00  0.00    -0.306 N 
ATOM     30  H   UNL     1       7.426  -0.903   8.267  0.00  0.00    +0.170 HD
ATOM     31  C   UNL     1       6.988  -1.890   6.502  0.00  0.00    +0.325 A 
ATOM     32  O   UNL     1       7.499  -2.982   6.669  0.00  0.00    -0.247 OA
ATOM     33  N   UNL     1       6.318  -1.508   5.398  0.00  0.00    -0.306 N 
ATOM     34  H   UNL     1       6.164  -2.053   4.611  0.00  0.00    +0.170 HD
ENDBRANCH  20  22
ENDBRANCH   1  18
TORSDOF 4
