REMARK  Name = ZINC09941897
REMARK  12 active torsions:
REMARK  status: ('A' for Active; 'I' for Inactive)
REMARK    1  A    between atoms: C_1  and  C_2
REMARK    2  A    between atoms: C_2  and  O_3
REMARK    3  A    between atoms: O_3  and  C_4
REMARK    4  A    between atoms: C_7  and  C_12
REMARK    5  A    between atoms: C_9  and  O_10
REMARK    6  A    between atoms: O_10  and  C_11
REMARK    7  A    between atoms: C_15  and  C_21
REMARK    8  A    between atoms: C_24  and  O_29
REMARK    9  A    between atoms: C_25  and  O_27
REMARK   10  A    between atoms: O_27  and  C_28
REMARK   11  A    between atoms: O_29  and  C_30
REMARK   12  A    between atoms: C_30  and  C_31
REMARK                            x       y       z     vdW  Elec       q    Type
REMARK                         _______ _______ _______ _____ _____    ______ ____
ROOT
ATOM      1  C   UNL     1       2.489   1.043  -0.016  0.00  0.00    +0.131 C 
ATOM      2  C   UNL     1       2.797   0.583  -1.437  0.00  0.00    +0.168 C 
ATOM      3  C   UNL     1       1.706  -0.402  -1.845  0.00  0.00    +0.131 C 
ATOM      4  N   UNL     1       1.657  -1.503  -0.881  0.00  0.00    -0.291 N 
ATOM      5  C   UNL     1       1.998  -1.315   0.404  0.00  0.00    +0.301 C 
ATOM      6  O   UNL     1       1.938  -2.255   1.173  0.00  0.00    -0.253 OA
ATOM      7  N   UNL     1       2.405  -0.122   0.868  0.00  0.00    -0.291 N 
ATOM      8  C   UNL     1       4.113  -0.161  -1.413  0.00  0.00    +0.240 C 
ATOM      9  O   UNL     1       4.275  -1.136  -0.711  0.00  0.00    -0.274 OA
ATOM     10  N   UNL     1       5.102   0.308  -2.207  0.00  0.00    -0.239 N 
ATOM     11  C   UNL     1       4.931   1.383  -2.985  0.00  0.00    +0.312 C 
ATOM     12  O   UNL     1       5.872   1.736  -3.667  0.00  0.00    -0.252 OA
ATOM     13  N   UNL     1       3.804   2.101  -3.069  0.00  0.00    -0.239 N 
ATOM     14  C   UNL     1       2.704   1.786  -2.348  0.00  0.00    +0.240 C 
ATOM     15  O   UNL     1       1.687   2.441  -2.429  0.00  0.00    -0.274 OA
ATOM     16  H   UNL     1       1.372  -2.383  -1.175  0.00  0.00    +0.151 HD
ATOM     17  H   UNL     1       2.646  -0.031   1.802  0.00  0.00    +0.151 HD
ATOM     18  H   UNL     1       5.958  -0.148  -2.214  0.00  0.00    +0.159 HD
ATOM     19  H   UNL     1       3.776   2.867  -3.663  0.00  0.00    +0.159 HD
ENDROOT
BRANCH   1  23
ATOM     20  C   UNL     1      -1.240   3.135   0.030  0.00  0.00    +0.162 A 
ATOM     21  C   UNL     1      -1.220   1.749   0.017  0.00  0.00    +0.050 A 
ATOM     22  C   UNL     1      -0.013   1.076   0.008  0.00  0.00    +0.009 A 
ATOM     23  C   UNL     1       1.176   1.782   0.000  0.00  0.00    -0.022 A 
ATOM     24  C   UNL     1       1.163   3.164   0.008  0.00  0.00    +0.055 A 
ATOM     25  C   UNL     1      -0.044   3.845   0.023  0.00  0.00    +0.162 A 
BRANCH  25  26
ATOM     26  O   UNL     1      -0.059   5.205   0.030  0.00  0.00    -0.491 OA
ATOM     27  C   UNL     1       1.207   5.868   0.021  0.00  0.00    +0.277 C 
ENDBRANCH  25  26
BRANCH  20  28
ATOM     28  O   UNL     1      -2.427   3.799   0.044  0.00  0.00    -0.489 OA
BRANCH  28  30
ATOM     29  C   UNL     1      -4.841   3.919   0.067  0.00  0.00    +0.048 C 
ATOM     30  C   UNL     1      -3.615   3.004   0.051  0.00  0.00    +0.226 C 
ENDBRANCH  28  30
ENDBRANCH  20  28
ENDBRANCH   1  23
BRANCH   3  31
ATOM     31  C   UNL     1       2.011  -0.949  -3.216  0.00  0.00    -0.022 A 
ATOM     32  C   UNL     1       2.937  -1.965  -3.363  0.00  0.00    +0.009 A 
ATOM     33  C   UNL     1       3.219  -2.470  -4.619  0.00  0.00    +0.050 A 
ATOM     34  C   UNL     1       2.574  -1.958  -5.733  0.00  0.00    +0.162 A 
ATOM     35  C   UNL     1       1.642  -0.935  -5.585  0.00  0.00    +0.162 A 
ATOM     36  C   UNL     1       1.359  -0.437  -4.323  0.00  0.00    +0.055 A 
BRANCH  35  37
ATOM     37  O   UNL     1       1.006  -0.429  -6.675  0.00  0.00    -0.491 OA
ATOM     38  C   UNL     1       0.062   0.619  -6.447  0.00  0.00    +0.277 C 
ENDBRANCH  35  37
BRANCH  34  39
ATOM     39  O   UNL     1       2.850  -2.454  -6.969  0.00  0.00    -0.489 OA
BRANCH  39  40
ATOM     40  C   UNL     1       3.817  -3.503  -7.045  0.00  0.00    +0.226 C 
ATOM     41  C   UNL     1       3.994  -3.929  -8.504  0.00  0.00    +0.048 C 
ENDBRANCH  39  40
ENDBRANCH  34  39
ENDBRANCH   3  31
TORSDOF 8
