REMARK  Name = ZINC00871484
REMARK  11 active torsions:
REMARK  status: ('A' for Active; 'I' for Inactive)
REMARK    1  A    between atoms: C_1  and  C_2
REMARK    2  A    between atoms: C_5  and  N_8
REMARK    3  A    between atoms: C_9  and  C_11
REMARK    4  A    between atoms: C_12  and  C_33
REMARK    5  A    between atoms: C_13  and  C_29
REMARK    6  A    between atoms: C_14  and  N_16
REMARK    7  A    between atoms: C_17  and  C_19
REMARK    8  A    between atoms: C_19  and  O_20
REMARK    9  A    between atoms: O_20  and  C_21
REMARK   10  A    between atoms: C_29  and  O_31
REMARK   11  A    between atoms: O_31  and  C_32
REMARK                            x       y       z     vdW  Elec       q    Type
REMARK                         _______ _______ _______ _____ _____    ______ ____
ROOT
ATOM      1  C   UNL     1       1.331   5.618   1.124  0.00  0.00    +0.080 A 
ATOM      2  C   UNL     1       1.272   4.253   1.199  0.00  0.00    -0.015 A 
ATOM      3  C   UNL     1       1.248   3.542   0.009  0.00  0.00    +0.091 A 
ATOM      4  C   UNL     1       1.273   4.271  -1.185  0.00  0.00    +0.087 A 
ATOM      5  S   UNL     1       1.338   5.913  -0.634  0.00  0.00    -0.068 S 
ATOM      6  C   UNL     1       1.241   3.546   2.530  0.00  0.00    +0.046 C 
ENDROOT
BRANCH   1   8
ATOM      7  N   UNL     1       1.421   7.911   1.939  0.00  0.00    -0.281 N 
ATOM      8  C   UNL     1       1.371   6.593   2.215  0.00  0.00    +0.255 C 
ATOM      9  O   UNL     1       1.360   6.213   3.371  0.00  0.00    -0.269 OA
ATOM     10  H   UNL     1       1.498   8.212   1.020  0.00  0.00    +0.155 HD
BRANCH   7  15
ATOM     11  C   UNL     1       1.183  11.702   6.152  0.00  0.00    +0.044 C 
ATOM     12  C   UNL     1       1.246  10.695   5.032  0.00  0.00    -0.050 A 
ATOM     13  C   UNL     1       1.896   9.490   5.225  0.00  0.00    +0.005 A 
ATOM     14  C   UNL     1       1.956   8.564   4.201  0.00  0.00    +0.023 A 
ATOM     15  C   UNL     1       1.362   8.846   2.978  0.00  0.00    +0.034 A 
ATOM     16  C   UNL     1       0.715  10.059   2.786  0.00  0.00    +0.023 A 
ATOM     17  C   UNL     1       0.654  10.978   3.815  0.00  0.00    +0.005 A 
ENDBRANCH   7  15
ENDBRANCH   1   8
BRANCH   4  18
ATOM     18  N   UNL     1       1.250   3.799  -2.483  0.00  0.00    -0.277 N 
ATOM     19  C   UNL     1       1.282   4.664  -3.515  0.00  0.00    +0.255 C 
ATOM     20  O   UNL     1       1.329   5.857  -3.305  0.00  0.00    -0.272 OA
ATOM     21  H   UNL     1       1.213   2.844  -2.651  0.00  0.00    +0.155 HD
BRANCH  19  22
ATOM     22  C   UNL     1       1.257   4.149  -4.931  0.00  0.00    +0.325 C 
BRANCH  22  23
ATOM     23  O   UNL     1       1.298   5.251  -5.840  0.00  0.00    -0.481 OA
BRANCH  23  24
ATOM     24  C   UNL     1       1.283   4.957  -7.168  0.00  0.00    +0.140 A 
ATOM     25  C   UNL     1       1.230   3.636  -7.586  0.00  0.00    +0.048 A 
ATOM     26  C   UNL     1       1.214   3.339  -8.935  0.00  0.00    +0.023 A 
ATOM     27  C   UNL     1       1.252   4.359  -9.870  0.00  0.00    +0.043 A 
ATOM     28  C   UNL     1       1.305   5.678  -9.455  0.00  0.00    +0.043 A 
ATOM     29  C   UNL     1       1.314   5.979  -8.106  0.00  0.00    +0.084 A 
ATOM     30 CL   UNL     1       1.373   7.634  -7.586  0.00  0.00    -0.080 Cl
ATOM     31 CL   UNL     1       1.232   3.983 -11.564  0.00  0.00    -0.083 Cl
ENDBRANCH  23  24
ENDBRANCH  22  23
ENDBRANCH  19  22
ENDBRANCH   4  18
BRANCH   3  32
ATOM     32  C   UNL     1       1.191   2.076   0.001  0.00  0.00    +0.342 C 
ATOM     33  O   UNL     1       2.220   1.428  -0.004  0.00  0.00    -0.245 OA
BRANCH  32  34
ATOM     34  O   UNL     1      -0.002   1.447   0.000  0.00  0.00    -0.464 OA
ATOM     35  C   UNL     1       0.018  -0.004  -0.007  0.00  0.00    +0.280 C 
ENDBRANCH  32  34
ENDBRANCH   3  32
TORSDOF 8
