REMARK  Name = ZINC26571580
REMARK  13 active torsions:
REMARK  status: ('A' for Active; 'I' for Inactive)
REMARK    1  A    between atoms: C_1  and  C_2
REMARK    2  A    between atoms: C_2  and  C_3
REMARK    3  A    between atoms: C_6  and  O_9
REMARK    4  A    between atoms: O_9  and  C_10
REMARK    5  A    between atoms: C_10  and  C_11
REMARK    6  A    between atoms: N_13  and  C_14
REMARK    7  A    between atoms: C_14  and  C_16
REMARK    8  A    between atoms: C_14  and  N_20
REMARK    9  A    between atoms: N_20  and  C_21
REMARK   10  A    between atoms: C_21  and  N_23
REMARK   11  A    between atoms: N_23  and  C_24
REMARK   12  A    between atoms: C_27  and  N_30
REMARK   13  A    between atoms: C_31  and  C_33
REMARK                            x       y       z     vdW  Elec       q    Type
REMARK                         _______ _______ _______ _____ _____    ______ ____
ROOT
ATOM      1  C   UNL     1       1.417  10.378  -0.901  0.00  0.00    +0.211 C 
ENDROOT
BRANCH   1   4
ATOM      2  C   UNL     1       2.372  10.046  -3.119  0.00  0.00    +0.252 C 
ATOM      3  O   UNL     1       3.011   9.117  -2.672  0.00  0.00    -0.272 OA
ATOM      4  N   UNL     1       1.545  10.743  -2.314  0.00  0.00    -0.291 N 
ATOM      5  H   UNL     1       0.965  11.586  -2.719  0.00  0.00    +0.151 HD
BRANCH   2   6
ATOM      6  C   UNL     1       2.503  10.422  -4.572  0.00  0.00    +0.324 C 
BRANCH   6   7
ATOM      7  O   UNL     1       3.432   9.543  -5.210  0.00  0.00    -0.483 OA
BRANCH   7  11
ATOM      8  C   UNL     1       4.144  10.162  -9.226  0.00  0.00    -0.047 A 
ATOM      9  C   UNL     1       4.793   9.139  -8.559  0.00  0.00    +0.007 A 
ATOM     10  C   UNL     1       4.556   8.930  -7.214  0.00  0.00    +0.046 A 
ATOM     11  C   UNL     1       3.666   9.747  -6.532  0.00  0.00    +0.121 A 
ATOM     12  C   UNL     1       3.011  10.768  -7.205  0.00  0.00    +0.046 A 
ATOM     13  C   UNL     1       3.256  10.978  -8.548  0.00  0.00    +0.007 A 
BRANCH   8  15
ATOM     14  C   UNL     1       3.413   9.565 -11.519  0.00  0.00    +0.009 C 
ATOM     15  C   UNL     1       4.404  10.388 -10.693  0.00  0.00    +0.032 C 
ENDBRANCH   8  15
ENDBRANCH   7  11
ENDBRANCH   6   7
ENDBRANCH   2   6
ENDBRANCH   1   4
BRANCH   1  16
ATOM     16  C   UNL     1       1.464  11.642  -0.042  0.00  0.00    +0.225 C 
ATOM     17 CL   UNL     1       1.307  11.193   1.698  0.00  0.00    -0.080 Cl
ATOM     18 CL   UNL     1       3.033  12.490  -0.304  0.00  0.00    -0.080 Cl
ATOM     19 CL   UNL     1       0.106  12.734  -0.505  0.00  0.00    -0.080 Cl
ENDBRANCH   1  16
BRANCH   1  20
ATOM     20  N   UNL     1       0.142   9.689  -0.688  0.00  0.00    -0.305 N 
ATOM     21  H   UNL     1      -0.797  10.261  -0.676  0.00  0.00    +0.150 HD
BRANCH  20  22
ATOM     22  C   UNL     1       0.120   8.353  -0.507  0.00  0.00    +0.136 C 
ATOM     23  S   UNL     1       1.581   7.462  -0.526  0.00  0.00    -0.019 S 
BRANCH  22  24
ATOM     24  N   UNL     1      -1.054   7.720  -0.311  0.00  0.00    -0.297 N 
ATOM     25  H   UNL     1      -1.985   8.299  -0.229  0.00  0.00    +0.154 HD
BRANCH  24  26
ATOM     26  C   UNL     1      -1.087   6.323  -0.212  0.00  0.00    +0.033 A 
ATOM     27  C   UNL     1      -0.171   5.662   0.595  0.00  0.00    +0.025 A 
ATOM     28  C   UNL     1      -0.204   4.285   0.692  0.00  0.00    +0.025 A 
ATOM     29  C   UNL     1      -1.154   3.562  -0.017  0.00  0.00    +0.033 A 
ATOM     30  C   UNL     1      -2.066   4.222  -0.828  0.00  0.00    +0.025 A 
ATOM     31  C   UNL     1      -2.037   5.599  -0.921  0.00  0.00    +0.025 A 
BRANCH  29  32
ATOM     32  N   UNL     1      -1.187   2.164   0.083  0.00  0.00    -0.286 N 
ATOM     33  C   UNL     1      -2.368   1.515   0.055  0.00  0.00    +0.214 C 
ATOM     34  O   UNL     1      -3.406   2.143   0.071  0.00  0.00    -0.276 OA
ATOM     35  C   UNL     1      -2.399   0.009   0.012  0.00  0.00    +0.109 C 
ATOM     36  H   UNL     1      -0.250   1.597   0.182  0.00  0.00    +0.155 HD
ENDBRANCH  29  32
ENDBRANCH  24  26
ENDBRANCH  22  24
ENDBRANCH  20  22
ENDBRANCH   1  20
TORSDOF 11
