REMARK  Name = ZINC37130766
REMARK  6 active torsions:
REMARK  status: ('A' for Active; 'I' for Inactive)
REMARK    1  A    between atoms: C_1  and  C_2
REMARK    2  A    between atoms: C_7  and  N_10
REMARK    3  A    between atoms: N_10  and  C_11
REMARK    4  A    between atoms: C_15  and  N_17
REMARK    5  A    between atoms: N_17  and  S_18
REMARK    6  A    between atoms: S_18  and  N_21
REMARK                            x       y       z     vdW  Elec       q    Type
REMARK                         _______ _______ _______ _____ _____    ______ ____
ROOT
ATOM      1  C   UNL     1       2.055  -3.771   0.017  0.00  0.00    +0.029 A 
ATOM      2  C   UNL     1       2.003  -4.578   1.148  0.00  0.00    +0.023 A 
ATOM      3  C   UNL     1       2.603  -5.822   1.138  0.00  0.00    +0.004 A 
ATOM      4  C   UNL     1       3.256  -6.269   0.005  0.00  0.00    +0.024 A 
ATOM      5  C   UNL     1       3.311  -5.468  -1.128  0.00  0.00    +0.051 A 
ATOM      6  C   UNL     1       2.704  -4.220  -1.124  0.00  0.00    +0.047 A 
ENDROOT
BRANCH   1   7
ATOM      7  N   UNL     1       1.448  -2.513   0.028  0.00  0.00    -0.341 N 
ATOM      8  H   UNL     1       1.482  -1.952  -0.763  0.00  0.00    +0.146 HD
BRANCH   7  14
ATOM      9  C   UNL     1      -0.019   1.526   0.010  0.00  0.00    +0.007 C 
ATOM     10  C   UNL     1       0.002  -0.004   0.002  0.00  0.00    -0.012 C 
ATOM     11  C   UNL     1      -1.433  -0.534   0.013  0.00  0.00    +0.003 C 
ATOM     12  C   UNL     1      -1.413  -2.063   0.004  0.00  0.00    +0.002 C 
ATOM     13  C   UNL     1      -0.673  -2.570   1.244  0.00  0.00    +0.022 C 
ATOM     14  C   UNL     1       0.763  -2.041   1.233  0.00  0.00    +0.071 C 
ATOM     15  C   UNL     1       0.742  -0.511   1.242  0.00  0.00    +0.025 C 
ENDBRANCH   7  14
ENDBRANCH   1   7
BRANCH   5  16
ATOM     16  N   UNL     1       3.972  -5.920  -2.273  0.00  0.00    -0.207 N 
ATOM     17  H   UNL     1       4.572  -5.328  -2.752  0.00  0.00    +0.175 HD
BRANCH  16  18
ATOM     18  S   UNL     1       3.731  -7.468  -2.811  0.00  0.00    +0.107 S 
ATOM     19  O   UNL     1       4.509  -7.613  -3.991  0.00  0.00    -0.138 OA
ATOM     20  O   UNL     1       3.890  -8.319  -1.684  0.00  0.00    -0.138 OA
BRANCH  18  21
ATOM     21  N   UNL     1       2.145  -7.585  -3.272  0.00  0.00    -0.191 NA
ATOM     22  H   UNL     1       1.890  -8.196  -3.981  0.00  0.00    +0.146 HD
ATOM     23  H   UNL     1       1.471  -7.042  -2.834  0.00  0.00    +0.146 HD
ENDBRANCH  18  21
ENDBRANCH  16  18
ENDBRANCH   5  16
TORSDOF 5
