REMARK  Name = ZINC09639882
REMARK  11 active torsions:
REMARK  status: ('A' for Active; 'I' for Inactive)
REMARK    1  A    between atoms: C_1  and  C_2
REMARK    2  A    between atoms: C_2  and  O_3
REMARK    3  A    between atoms: O_3  and  C_4
REMARK    4  A    between atoms: C_4  and  C_6
REMARK    5  A    between atoms: C_10  and  N_11
REMARK    6  A    between atoms: C_12  and  C_14
REMARK    7  A    between atoms: C_14  and  C_15
REMARK    8  A    between atoms: C_25  and  C_30
REMARK    9  A    between atoms: C_25  and  C_31
REMARK   10  A    between atoms: C_26  and  C_28
REMARK   11  A    between atoms: C_26  and  C_29
REMARK                            x       y       z     vdW  Elec       q    Type
REMARK                         _______ _______ _______ _____ _____    ______ ____
ROOT
ATOM      1  C   UNL     1      -1.750   5.070   3.010  0.00  0.00    +0.091 A 
ATOM      2  C   UNL     1      -2.459   5.266   4.257  0.00  0.00    -0.024 A 
ATOM      3  C   UNL     1      -2.812   4.136   4.912  0.00  0.00    -0.016 A 
ATOM      4  S   UNL     1      -2.220   2.821   3.886  0.00  0.00    -0.079 S 
ATOM      5  C   UNL     1      -1.512   3.758   2.612  0.00  0.00    +0.086 A 
ATOM      6  C   UNL     1      -3.535   4.053   6.217  0.00  0.00    -0.041 C 
ATOM      7  C   UNL     1      -4.139   6.410   5.650  0.00  0.00    -0.069 C 
ATOM      8  C   UNL     1      -2.833   6.608   4.872  0.00  0.00    +0.024 C 
ATOM      9  C   UNL     1      -5.274   6.117   4.663  0.00  0.00    -0.010 C 
ATOM     10  C   UNL     1      -4.467   7.733   6.367  0.00  0.00    -0.010 C 
ATOM     11  C   UNL     1      -4.698   3.058   6.091  0.00  0.00    -0.005 C 
ATOM     12  C   UNL     1      -2.560   3.512   7.279  0.00  0.00    -0.005 C 
ATOM     13  N   UNL     1      -4.045   5.367   6.704  0.00  0.00    +0.389 N 
ATOM     14  H   UNL     1      -3.412   5.707   7.438  0.00  0.00    -0.084 HD
ATOM     15  H   UNL     1      -4.982   5.223   7.099  0.00  0.00    -0.084 HD
ENDROOT
BRANCH   5  16
ATOM     16  N   UNL     1      -0.863   3.311   1.472  0.00  0.00    -0.279 N 
ATOM     17  C   UNL     1      -0.724   1.989   1.250  0.00  0.00    +0.222 C 
ATOM     18  O   UNL     1      -1.166   1.190   2.049  0.00  0.00    -0.275 OA
ATOM     19  H   UNL     1      -0.509   3.950   0.833  0.00  0.00    +0.155 HD
BRANCH  17  20
ATOM     20  C   UNL     1      -0.018   1.503   0.010  0.00  0.00    +0.131 C 
BRANCH  20  21
ATOM     21  C   UNL     1       0.002  -0.004   0.002  0.00  0.00    -0.031 A 
ATOM     22  C   UNL     1       1.083  -0.676   0.485  0.00  0.00    +0.005 A 
ATOM     23  C   UNL     1       1.119  -2.069   0.486  0.00  0.00    +0.001 A 
ATOM     24  C   UNL     1       0.076  -2.798   0.004  0.00  0.00    +0.008 A 
ATOM     25  C   UNL     1      -1.057  -2.139  -0.503  0.00  0.00    -0.018 A 
ATOM     26  C   UNL     1      -1.096  -0.723  -0.499  0.00  0.00    -0.014 A 
ATOM     27  C   UNL     1      -2.228  -0.064  -1.010  0.00  0.00    +0.009 A 
ATOM     28  C   UNL     1      -3.271  -0.792  -1.494  0.00  0.00    +0.001 A 
ATOM     29  C   UNL     1      -3.233  -2.186  -1.494  0.00  0.00    +0.001 A 
ATOM     30  C   UNL     1      -2.153  -2.858  -1.010  0.00  0.00    +0.008 A 
ENDBRANCH  20  21
ENDBRANCH  17  20
ENDBRANCH   5  16
BRANCH   1  31
ATOM     31  C   UNL     1      -1.296   6.197   2.193  0.00  0.00    +0.342 C 
ATOM     32  O   UNL     1      -2.023   6.657   1.333  0.00  0.00    -0.245 OA
BRANCH  31  33
ATOM     33  O   UNL     1      -0.071   6.725   2.394  0.00  0.00    -0.461 OA
BRANCH  33  35
ATOM     34  C   UNL     1       1.723   8.301   1.919  0.00  0.00    +0.048 C 
ATOM     35  C   UNL     1       0.313   7.840   1.547  0.00  0.00    +0.229 C 
ENDBRANCH  33  35
ENDBRANCH  31  33
ENDBRANCH   1  31
TORSDOF 6
