REMARK  Name = ZINC17013846
REMARK  8 active torsions:
REMARK  status: ('A' for Active; 'I' for Inactive)
REMARK    1  A    between atoms: C_1  and  C_2
REMARK    2  A    between atoms: C_4  and  N_31
REMARK    3  A    between atoms: N_8  and  C_9
REMARK    4  A    between atoms: C_12  and  N_15
REMARK    5  A    between atoms: N_15  and  S_16
REMARK    6  A    between atoms: S_16  and  C_19
REMARK    7  A    between atoms: N_31  and  C_32
REMARK    8  A    between atoms: N_31  and  C_33
REMARK                            x       y       z     vdW  Elec       q    Type
REMARK                         _______ _______ _______ _____ _____    ______ ____
ROOT
ATOM      1  C   UNL     1      -3.740  -1.838   0.908  0.00  0.00    +0.034 A 
ATOM      2  C   UNL     1      -2.730  -2.277   0.062  0.00  0.00    +0.025 A 
ATOM      3  C   UNL     1      -1.676  -1.440  -0.248  0.00  0.00    +0.026 A 
ATOM      4  C   UNL     1      -1.627  -0.159   0.286  0.00  0.00    +0.048 A 
ATOM      5  C   UNL     1      -2.634   0.278   1.136  0.00  0.00    +0.026 A 
ATOM      6  C   UNL     1      -3.691  -0.556   1.441  0.00  0.00    +0.025 A 
ENDROOT
BRANCH   1  14
ATOM      7  C   UNL     1      -4.750  -0.892   5.666  0.00  0.00    +0.066 C 
ATOM      8  C   UNL     1      -5.375  -1.780   4.621  0.00  0.00    +0.045 A 
ATOM      9  C   UNL     1      -6.501  -2.523   4.918  0.00  0.00    +0.066 A 
ATOM     10  C   UNL     1      -7.047  -3.333   3.920  0.00  0.00    +0.126 A 
ATOM     11  N   UNL     1      -6.471  -3.358   2.722  0.00  0.00    -0.199 NA
ATOM     12  C   UNL     1      -5.388  -2.634   2.479  0.00  0.00    +0.221 A 
ATOM     13  N   UNL     1      -4.849  -1.857   3.407  0.00  0.00    -0.219 NA
ATOM     14  N   UNL     1      -4.809  -2.687   1.223  0.00  0.00    -0.284 N 
ATOM     15  H   UNL     1      -5.143  -3.312   0.560  0.00  0.00    +0.155 HD
BRANCH  10  16
ATOM     16  N   UNL     1      -8.176  -4.095   4.172  0.00  0.00    -0.321 N 
ATOM     17  C   UNL     1      -8.870  -3.972   5.457  0.00  0.00    +0.130 C 
ATOM     18  C   UNL     1      -8.676  -5.023   3.155  0.00  0.00    +0.130 C 
ENDBRANCH  10  16
ENDBRANCH   1  14
BRANCH   4  19
ATOM     19  N   UNL     1      -0.559   0.689  -0.028  0.00  0.00    -0.216 N 
ATOM     20  H   UNL     1       0.350   0.350  -0.016  0.00  0.00    +0.174 HD
BRANCH  19  21
ATOM     21  S   UNL     1      -0.846   2.272  -0.419  0.00  0.00    +0.073 S 
ATOM     22  O   UNL     1      -1.618   2.819   0.641  0.00  0.00    -0.150 OA
ATOM     23  O   UNL     1       0.401   2.825  -0.818  0.00  0.00    -0.150 OA
BRANCH  21  24
ATOM     24  C   UNL     1      -1.878   2.277  -1.848  0.00  0.00    +0.112 A 
ATOM     25  C   UNL     1      -3.164   2.817  -1.774  0.00  0.00    +0.030 A 
ATOM     26  C   UNL     1      -4.003   2.853  -2.850  0.00  0.00    +0.010 A 
ATOM     27  C   UNL     1      -3.563   2.316  -4.071  0.00  0.00    -0.017 A 
ATOM     28  C   UNL     1      -4.331   2.285  -5.246  0.00  0.00    +0.008 A 
ATOM     29  C   UNL     1      -3.790   1.734  -6.371  0.00  0.00    +0.001 A 
ATOM     30  C   UNL     1      -2.500   1.199  -6.395  0.00  0.00    +0.004 A 
ATOM     31  C   UNL     1      -1.729   1.212  -5.274  0.00  0.00    -0.039 A 
ATOM     32  C   UNL     1      -2.267   1.771  -4.119  0.00  0.00    -0.010 A 
ATOM     33  C   UNL     1      -1.420   1.748  -3.015  0.00  0.00    -0.013 A 
ATOM     34  C   UNL     1      -0.131   1.094  -3.450  0.00  0.00    +0.042 C 
ATOM     35  C   UNL     1      -0.335   0.741  -4.939  0.00  0.00    +0.040 C 
ENDBRANCH  21  24
ENDBRANCH  19  21
ENDBRANCH   4  19
TORSDOF 5
