REMARK  Name = ZINC64600381
REMARK  9 active torsions:
REMARK  status: ('A' for Active; 'I' for Inactive)
REMARK    1  A    between atoms: C_1  and  C_2
REMARK    2  A    between atoms: C_2  and  C_3
REMARK    3  A    between atoms: C_16  and  C_19
REMARK    4  A    between atoms: C_21  and  O_38
REMARK    5  A    between atoms: C_23  and  O_37
REMARK    6  A    between atoms: N_25  and  C_28
REMARK    7  A    between atoms: C_28  and  C_29
REMARK    8  A    between atoms: C_32  and  O_35
REMARK    9  A    between atoms: O_35  and  C_36
REMARK                            x       y       z     vdW  Elec       q    Type
REMARK                         _______ _______ _______ _____ _____    ______ ____
ROOT
ATOM      1  C   UNL     1       2.282   0.486   1.405  0.00  0.00    +0.179 C 
ATOM      2  C   UNL     1       1.116  -0.448   1.268  0.00  0.00    +0.200 C 
ATOM      3  N   UNL     1      -0.034  -0.068   0.864  0.00  0.00    -0.204 NA
ATOM      4  C   UNL     1      -0.356   1.298   0.486  0.00  0.00    +0.334 C 
ATOM      5  N   UNL     1       0.584   2.259   1.046  0.00  0.00    -0.252 N 
ATOM      6  C   UNL     1       1.803   1.909   1.464  0.00  0.00    +0.233 C 
ATOM      7  O   UNL     1       2.541   2.765   1.904  0.00  0.00    -0.275 OA
ENDROOT
BRANCH   1  19
ATOM      8  C   UNL     1       4.526  -1.276   1.532  0.00  0.00    +0.058 C 
ATOM      9  C   UNL     1       5.702  -0.303   1.731  0.00  0.00    +0.052 C 
ATOM     10  C   UNL     1       5.152   1.079   1.476  0.00  0.00    -0.036 C 
ATOM     11  C   UNL     1       5.225   2.209   2.163  0.00  0.00    -0.001 A 
ATOM     12  C   UNL     1       5.986   2.580   3.368  0.00  0.00    +0.010 A 
ATOM     13  C   UNL     1       5.800   3.845   3.829  0.00  0.00    +0.001 A 
ATOM     14  C   UNL     1       4.945   4.768   3.221  0.00  0.00    +0.002 A 
ATOM     15  C   UNL     1       4.215   4.517   2.104  0.00  0.00    +0.026 A 
ATOM     16  C   UNL     1       4.334   3.223   1.520  0.00  0.00    +0.043 A 
ATOM     17  N   UNL     1       3.782   2.730   0.450  0.00  0.00    -0.376 N 
ATOM     18  C   UNL     1       4.308   1.383   0.242  0.00  0.00    +0.124 C 
ATOM     19  C   UNL     1       3.212   0.315   0.203  0.00  0.00    +0.101 C 
ATOM     20  N   UNL     1       3.857  -1.004   0.257  0.00  0.00    -0.307 NA
ATOM     21  H   UNL     1       4.490  -1.130  -0.518  0.00  0.00    +0.123 HD
ATOM     22  H   UNL     1       3.133   3.180  -0.114  0.00  0.00    +0.160 HD
BRANCH   8  24
ATOM     23  C   UNL     1       3.724  -2.221   3.702  0.00  0.00    +0.005 C 
ATOM     24  C   UNL     1       3.526  -1.102   2.677  0.00  0.00    +0.015 C 
ENDBRANCH   8  24
ENDBRANCH   1  19
BRANCH   4  25
ATOM     25  O   UNL     1      -0.332   1.404  -0.939  0.00  0.00    -0.356 OA
ATOM     26  H   UNL     1      -1.021   0.891  -1.383  0.00  0.00    +0.214 HD
ENDBRANCH   4  25
BRANCH   2  27
ATOM     27  O   UNL     1       1.290  -1.748   1.586  0.00  0.00    -0.495 OA
ATOM     28  H   UNL     1       0.497  -2.290   1.474  0.00  0.00    +0.293 HD
ENDBRANCH   2  27
BRANCH   5  29
ATOM     29  C   UNL     1       0.177   3.662   1.152  0.00  0.00    +0.147 C 
BRANCH  29  30
ATOM     30  C   UNL     1      -0.482   3.894   2.487  0.00  0.00    -0.030 A 
ATOM     31  C   UNL     1      -1.847   3.722   2.623  0.00  0.00    +0.009 A 
ATOM     32  C   UNL     1      -2.453   3.935   3.846  0.00  0.00    +0.046 A 
ATOM     33  C   UNL     1      -1.690   4.321   4.939  0.00  0.00    +0.120 A 
ATOM     34  C   UNL     1      -0.321   4.492   4.800  0.00  0.00    +0.046 A 
ATOM     35  C   UNL     1       0.281   4.273   3.576  0.00  0.00    +0.009 A 
BRANCH  33  36
ATOM     36  O   UNL     1      -2.284   4.531   6.143  0.00  0.00    -0.495 OA
ATOM     37  C   UNL     1      -1.437   4.927   7.224  0.00  0.00    +0.277 C 
ENDBRANCH  33  36
ENDBRANCH  29  30
ENDBRANCH   5  29
TORSDOF 7
