REMARK  Name = ZINC44973743
REMARK  11 active torsions:
REMARK  status: ('A' for Active; 'I' for Inactive)
REMARK    1  A    between atoms: C_1  and  C_2
REMARK    2  A    between atoms: C_2  and  O_3
REMARK    3  A    between atoms: O_3  and  C_4
REMARK    4  A    between atoms: C_4  and  C_6
REMARK    5  A    between atoms: C_8  and  C_30
REMARK    6  A    between atoms: C_15  and  S_27
REMARK    7  A    between atoms: C_19  and  C_20
REMARK    8  A    between atoms: C_19  and  O_26
REMARK    9  A    between atoms: S_27  and  C_28
REMARK   10  A    between atoms: C_28  and  C_29
REMARK   11  A    between atoms: C_33  and  N_36
REMARK                            x       y       z     vdW  Elec       q    Type
REMARK                         _______ _______ _______ _____ _____    ______ ____
ROOT
ATOM      1  C   UNL     1       1.758  -2.391  -2.426  0.00  0.00    +0.164 C 
ATOM      2  C   UNL     1       1.460  -3.890  -2.481  0.00  0.00    +0.076 C 
ATOM      3  C   UNL     1       2.159  -4.603  -1.356  0.00  0.00    +0.065 A 
ATOM      4  C   UNL     1       1.706  -5.866  -0.956  0.00  0.00    +0.258 A 
ATOM      5  O   UNL     1       0.752  -6.388  -1.511  0.00  0.00    -0.267 OA
ATOM      6  N   UNL     1       2.342  -6.498   0.052  0.00  0.00    -0.302 N 
ATOM      7  H   UNL     1       2.040  -7.372   0.343  0.00  0.00    +0.171 HD
ATOM      8  C   UNL     1       3.408  -5.909   0.662  0.00  0.00    +0.171 A 
ATOM      9  N   UNL     1       3.838  -4.721   0.292  0.00  0.00    -0.208 NA
ATOM     10  C   UNL     1       3.242  -4.046  -0.701  0.00  0.00    +0.133 A 
ATOM     11  N   UNL     1       3.718  -2.797  -1.051  0.00  0.00    -0.297 N 
ATOM     12  C   UNL     1       3.275  -2.190  -2.317  0.00  0.00    +0.172 C 
ATOM     13  H   UNL     1       4.336  -2.325  -0.471  0.00  0.00    +0.151 HD
ENDROOT
BRANCH  12  14
ATOM     14  C   UNL     1       3.596  -0.718  -2.322  0.00  0.00    +0.003 A 
ATOM     15  C   UNL     1       3.725  -0.043  -3.522  0.00  0.00    +0.008 A 
ATOM     16  C   UNL     1       4.019   1.308  -3.527  0.00  0.00    +0.000 A 
ATOM     17  C   UNL     1       4.184   1.984  -2.333  0.00  0.00    +0.000 A 
ATOM     18  C   UNL     1       4.055   1.309  -1.133  0.00  0.00    +0.000 A 
ATOM     19  C   UNL     1       3.756  -0.041  -1.128  0.00  0.00    +0.008 A 
ENDBRANCH  12  14
BRANCH   2  20
ATOM     20  C   UNL     1       1.942  -4.447  -3.796  0.00  0.00    -0.039 A 
ATOM     21  C   UNL     1       3.122  -5.165  -3.851  0.00  0.00    +0.006 A 
ATOM     22  C   UNL     1       3.564  -5.676  -5.057  0.00  0.00    +0.033 A 
ATOM     23  C   UNL     1       2.827  -5.469  -6.207  0.00  0.00    +0.126 A 
ATOM     24  C   UNL     1       1.646  -4.751  -6.152  0.00  0.00    +0.033 A 
ATOM     25  C   UNL     1       1.202  -4.244  -4.945  0.00  0.00    +0.006 A 
BRANCH  23  26
ATOM     26  N   UNL     1       3.301  -6.015  -7.499  0.00  0.00    +0.056 N 
ATOM     27  O   UNL     1       4.333  -6.642  -7.548  0.00  0.00    -0.126 OA
ATOM     28  O   UNL     1       2.656  -5.833  -8.505  0.00  0.00    -0.126 OA
ENDBRANCH  23  26
ENDBRANCH   2  20
BRANCH   1  29
ATOM     29  C   UNL     1       1.080  -1.784  -1.225  0.00  0.00    +0.316 C 
ATOM     30  O   UNL     1       0.420  -2.479  -0.489  0.00  0.00    -0.250 OA
BRANCH  29  31
ATOM     31  O   UNL     1       1.209  -0.472  -0.972  0.00  0.00    -0.465 OA
BRANCH  31  33
ATOM     32  C   UNL     1       0.801   1.537   0.306  0.00  0.00    +0.048 C 
ATOM     33  C   UNL     1       0.539   0.035   0.184  0.00  0.00    +0.229 C 
ENDBRANCH  31  33
ENDBRANCH  29  31
ENDBRANCH   1  29
BRANCH  12  34
ATOM     34  O   UNL     1       3.928  -2.832  -3.414  0.00  0.00    -0.367 OA
ATOM     35  H   UNL     1       4.894  -2.812  -3.363  0.00  0.00    +0.212 HD
ENDBRANCH  12  34
BRANCH   8  36
ATOM     36  S   UNL     1       4.228  -6.753   1.974  0.00  0.00    -0.088 S 
BRANCH  36  37
ATOM     37  C   UNL     1       5.552  -5.616   2.468  0.00  0.00    +0.074 C 
ATOM     38  C   UNL     1       6.353  -6.235   3.616  0.00  0.00    +0.016 C 
ENDBRANCH  36  37
ENDBRANCH   8  36
TORSDOF 9
