REMARK  Name = ZINC36547715
REMARK  12 active torsions:
REMARK  status: ('A' for Active; 'I' for Inactive)
REMARK    1  A    between atoms: C_1  and  C_2
REMARK    2  A    between atoms: C_5  and  S_8
REMARK    3  A    between atoms: S_8  and  C_11
REMARK    4  A    between atoms: C_11  and  N_12
REMARK    5  A    between atoms: C_13  and  C_15
REMARK    6  A    between atoms: C_15  and  C_17
REMARK    7  A    between atoms: C_15  and  N_26
REMARK    8  A    between atoms: C_17  and  C_19
REMARK    9  A    between atoms: C_17  and  C_20
REMARK   10  A    between atoms: N_26  and  C_27
REMARK   11  A    between atoms: C_34  and  C_36
REMARK   12  A    between atoms: C_36  and  O_37
REMARK                            x       y       z     vdW  Elec       q    Type
REMARK                         _______ _______ _______ _____ _____    ______ ____
ROOT
ATOM      1  C   UNL     1       3.050  -5.372   3.623  0.00  0.00    +0.174 C 
ENDROOT
BRANCH   1   3
ATOM      2  N   UNL     1       3.277  -4.667   1.263  0.00  0.00    -0.295 N 
ATOM      3  C   UNL     1       2.767  -5.542   2.152  0.00  0.00    +0.236 C 
ATOM      4  O   UNL     1       2.082  -6.466   1.770  0.00  0.00    -0.274 OA
ATOM      5  H   UNL     1       3.825  -3.928   1.569  0.00  0.00    +0.150 HD
BRANCH   2   6
ATOM      6  C   UNL     1       3.002  -4.833  -0.167  0.00  0.00    +0.278 C 
BRANCH   6   7
ATOM      7  S   UNL     1       1.577  -3.811  -0.631  0.00  0.00    +0.013 S 
ATOM      8  O   UNL     1       0.520  -3.993   0.300  0.00  0.00    -0.168 OA
ATOM      9  O   UNL     1       1.337  -3.912  -2.028  0.00  0.00    -0.168 OA
BRANCH   7  14
ATOM     10  C   UNL     1       3.405   1.878   0.208  0.00  0.00    +0.044 C 
ATOM     11  C   UNL     1       2.949   0.457  -0.001  0.00  0.00    -0.050 A 
ATOM     12  C   UNL     1       3.136  -0.156  -1.226  0.00  0.00    +0.005 A 
ATOM     13  C   UNL     1       2.718  -1.459  -1.419  0.00  0.00    +0.027 A 
ATOM     14  C   UNL     1       2.112  -2.150  -0.386  0.00  0.00    +0.090 A 
ATOM     15  C   UNL     1       1.925  -1.538   0.839  0.00  0.00    +0.027 A 
ATOM     16  C   UNL     1       2.347  -0.236   1.033  0.00  0.00    +0.005 A 
ENDBRANCH   7  14
ENDBRANCH   6   7
ENDBRANCH   2   6
ENDBRANCH   1   3
BRANCH   1  17
ATOM     17  N   UNL     1       3.145  -6.688   4.258  0.00  0.00    -0.256 N 
ATOM     18  C   UNL     1       4.256  -7.028   4.941  0.00  0.00    +0.246 C 
ATOM     19  O   UNL     1       4.269  -8.037   5.614  0.00  0.00    -0.273 OA
BRANCH  17  20
ATOM     20  C   UNL     1       2.082  -7.594   4.155  0.00  0.00    +0.055 A 
ATOM     21  C   UNL     1       1.926  -8.354   3.004  0.00  0.00    +0.025 A 
ATOM     22  C   UNL     1       0.876  -9.247   2.905  0.00  0.00    +0.002 A 
ATOM     23  C   UNL     1      -0.019  -9.383   3.950  0.00  0.00    +0.002 A 
ATOM     24  C   UNL     1       0.134  -8.627   5.098  0.00  0.00    +0.022 A 
ATOM     25  C   UNL     1       1.185  -7.737   5.206  0.00  0.00    +0.062 A 
ATOM     26 CL   UNL     1       1.381  -6.794   6.650  0.00  0.00    -0.082 Cl
ENDBRANCH  17  20
BRANCH  18  27
ATOM     27  C   UNL     1       5.481  -6.154   4.870  0.00  0.00    +0.252 C 
BRANCH  27  28
ATOM     28  O   UNL     1       6.546  -6.766   5.602  0.00  0.00    -0.386 OA
ATOM     29  H   UNL     1       7.368  -6.257   5.599  0.00  0.00    +0.210 HD
ENDBRANCH  27  28
ENDBRANCH  18  27
ENDBRANCH   1  17
BRANCH   1  30
ATOM     30  C   UNL     1       1.916  -4.574   4.271  0.00  0.00    +0.046 C 
ATOM     31  C   UNL     1       0.647  -5.428   4.306  0.00  0.00    +0.015 C 
BRANCH  30  32
ATOM     32  C   UNL     1       2.307  -4.197   5.677  0.00  0.00    -0.042 A 
ATOM     33  C   UNL     1       2.958  -5.112   6.482  0.00  0.00    +0.004 A 
ATOM     34  C   UNL     1       3.317  -4.766   7.771  0.00  0.00    +0.000 A 
ATOM     35  C   UNL     1       3.025  -3.504   8.255  0.00  0.00    +0.000 A 
ATOM     36  C   UNL     1       2.374  -2.589   7.449  0.00  0.00    +0.000 A 
ATOM     37  C   UNL     1       2.019  -2.933   6.159  0.00  0.00    +0.004 A 
ENDBRANCH  30  32
ENDBRANCH   1  30
TORSDOF 10
