REMARK  Name = ZINC13601091
REMARK  8 active torsions:
REMARK  status: ('A' for Active; 'I' for Inactive)
REMARK    1  A    between atoms: C_1  and  O_2
REMARK    2  A    between atoms: O_2  and  C_3
REMARK    3  A    between atoms: C_6  and  N_9
REMARK    4  A    between atoms: N_14  and  C_15
REMARK    5  A    between atoms: C_15  and  C_16
REMARK    6  A    between atoms: C_16  and  O_17
REMARK    7  A    between atoms: O_17  and  C_18
REMARK    8  A    between atoms: N_20  and  C_21
REMARK                            x       y       z     vdW  Elec       q    Type
REMARK                         _______ _______ _______ _____ _____    ______ ____
ROOT
ATOM      1  N   UNL     1       2.548  -2.535   4.133  0.00  0.00    -0.270 N 
ATOM      2  C   UNL     1       3.197  -1.946   5.163  0.00  0.00    +0.143 C 
ATOM      3  S   UNL     1       3.386  -0.253   5.331  0.00  0.00    -0.018 S 
ATOM      4  N   UNL     1       3.674  -2.842   6.035  0.00  0.00    -0.287 N 
ATOM      5  C   UNL     1       3.398  -4.078   5.685  0.00  0.00    +0.090 C 
ATOM      6  N   UNL     1       3.735  -5.214   6.348  0.00  0.00    -0.331 N 
ATOM      7  C   UNL     1       2.626  -3.969   4.401  0.00  0.00    +0.092 C 
ATOM      8  C   UNL     1       1.236  -4.610   4.509  0.00  0.00    +0.034 C 
ATOM      9  C   UNL     1       0.853  -4.926   3.046  0.00  0.00    +0.003 C 
ATOM     10  C   UNL     1       2.169  -5.003   2.251  0.00  0.00    +0.003 C 
ATOM     11  C   UNL     1       3.310  -4.731   3.257  0.00  0.00    +0.034 C 
ATOM     12  H   UNL     1       3.476  -6.078   5.991  0.00  0.00    +0.147 HD
ATOM     13  H   UNL     1       4.167  -2.606   6.836  0.00  0.00    +0.155 HD
ENDROOT
BRANCH   1  17
ATOM     14  C   UNL     1       0.705  -0.659   0.899  0.00  0.00    +0.120 A 
ATOM     15  C   UNL     1      -0.042  -1.011   2.014  0.00  0.00    +0.047 A 
ATOM     16  C   UNL     1       0.568  -1.632   3.085  0.00  0.00    +0.027 A 
ATOM     17  C   UNL     1       1.929  -1.905   3.047  0.00  0.00    +0.037 A 
ATOM     18  C   UNL     1       2.676  -1.553   1.930  0.00  0.00    +0.027 A 
ATOM     19  C   UNL     1       2.063  -0.937   0.857  0.00  0.00    +0.047 A 
BRANCH  14  21
ATOM     20  C   UNL     1      -1.298   0.208  -0.046  0.00  0.00    +0.277 C 
ATOM     21  O   UNL     1       0.104  -0.047  -0.156  0.00  0.00    -0.495 OA
ENDBRANCH  14  21
ENDBRANCH   1  17
BRANCH   6  22
ATOM     22  C   UNL     1       4.491  -5.135   7.600  0.00  0.00    +0.143 C 
BRANCH  22  23
ATOM     23  C   UNL     1       4.738  -6.547   8.137  0.00  0.00    +0.252 C 
BRANCH  23  24
ATOM     24  O   UNL     1       5.582  -7.260   7.231  0.00  0.00    -0.449 OA
BRANCH  24  25
ATOM     25  C   UNL     1       5.897  -8.527   7.558  0.00  0.00    +0.405 C 
ATOM     26  O   UNL     1       5.468  -9.014   8.585  0.00  0.00    -0.226 OA
ATOM     27  N   UNL     1       6.689  -9.256   6.747  0.00  0.00    -0.251 N 
ATOM     28  H   UNL     1       7.094  -8.844   5.967  0.00  0.00    +0.158 HD
BRANCH  27  29
ATOM     29  C   UNL     1       6.928 -10.606   7.029  0.00  0.00    +0.037 A 
ATOM     30  C   UNL     1       8.156 -11.175   6.719  0.00  0.00    +0.025 A 
ATOM     31  C   UNL     1       8.389 -12.507   6.999  0.00  0.00    +0.022 A 
ATOM     32  C   UNL     1       7.400 -13.275   7.587  0.00  0.00    +0.041 A 
ATOM     33  C   UNL     1       6.175 -12.711   7.897  0.00  0.00    +0.022 A 
ATOM     34  C   UNL     1       5.939 -11.377   7.625  0.00  0.00    +0.025 A 
ATOM     35 CL   UNL     1       7.696 -14.949   7.937  0.00  0.00    -0.084 Cl
ENDBRANCH  27  29
ENDBRANCH  24  25
ENDBRANCH  23  24
ENDBRANCH  22  23
ENDBRANCH   6  22
TORSDOF 7
