REMARK  Name = ZINC39657185
REMARK  7 active torsions:
REMARK  status: ('A' for Active; 'I' for Inactive)
REMARK    1  A    between atoms: C_1  and  C_2
REMARK    2  A    between atoms: C_5  and  C_8
REMARK    3  A    between atoms: C_8  and  C_9
REMARK    4  A    between atoms: C_13  and  C_22
REMARK    5  A    between atoms: N_24  and  C_25
REMARK    6  A    between atoms: C_25  and  C_27
REMARK    7  A    between atoms: C_25  and  C_28
REMARK                            x       y       z     vdW  Elec       q    Type
REMARK                         _______ _______ _______ _____ _____    ______ ____
ROOT
ATOM      1  C   UNL     1       1.647  -4.777   0.002  0.00  0.00    +0.220 C 
ATOM      2  O   UNL     1       2.577  -4.000  -0.054  0.00  0.00    -0.275 OA
ATOM      3  N   UNL     1       1.874  -6.104  -0.042  0.00  0.00    -0.300 N 
ATOM      4  C   UNL     1       0.876  -7.199   0.006  0.00  0.00    +0.121 C 
ATOM      5  C   UNL     1       1.397  -8.247  -1.002  0.00  0.00    +0.100 C 
ATOM      6  C   UNL     1       2.909  -7.982  -1.097  0.00  0.00    -0.004 C 
ATOM      7  C   UNL     1       3.178  -6.800  -0.155  0.00  0.00    +0.115 C 
ATOM      8  C   UNL     1       3.290  -7.606  -2.526  0.00  0.00    -0.010 C 
ATOM      9  C   UNL     1       4.806  -7.403  -2.608  0.00  0.00    -0.082 C 
ATOM     10  N   UNL     1       5.489  -8.638  -2.207  0.00  0.00    +0.379 N 
ATOM     11  C   UNL     1       5.191  -8.942  -0.802  0.00  0.00    -0.082 C 
ATOM     12  C   UNL     1       3.691  -9.210  -0.643  0.00  0.00    -0.010 C 
ATOM     13  H   UNL     1       5.174  -9.400  -2.788  0.00  0.00    -0.086 HD
ATOM     14  H   UNL     1       6.485  -8.522  -2.320  0.00  0.00    -0.086 HD
ENDROOT
BRANCH   5  15
ATOM     15  C   UNL     1       1.138  -9.641  -0.491  0.00  0.00    +0.219 C 
ATOM     16  O   UNL     1       1.127  -9.857   0.703  0.00  0.00    -0.275 OA
ATOM     17  N   UNL     1       0.919 -10.648  -1.359  0.00  0.00    -0.308 N 
ATOM     18  H   UNL     1       0.929 -10.475  -2.314  0.00  0.00    +0.149 HD
BRANCH  17  19
ATOM     19  C   UNL     1       0.668 -12.002  -0.863  0.00  0.00    +0.100 C 
ATOM     20  C   UNL     1      -0.819 -12.158  -0.535  0.00  0.00    +0.033 C 
BRANCH  19  21
ATOM     21  C   UNL     1       1.057 -13.005  -1.918  0.00  0.00    -0.027 A 
ATOM     22  C   UNL     1       0.778 -12.752  -3.248  0.00  0.00    +0.006 A 
ATOM     23  C   UNL     1       1.136 -13.671  -4.216  0.00  0.00    +0.015 A 
ATOM     24  C   UNL     1       1.772 -14.845  -3.855  0.00  0.00    +0.018 A 
ATOM     25  C   UNL     1       2.050 -15.098  -2.523  0.00  0.00    +0.015 A 
ATOM     26  C   UNL     1       1.698 -14.176  -1.556  0.00  0.00    +0.006 A 
ATOM     27 BR   UNL     1       2.260 -16.103  -5.179  0.00  0.00    -0.050 Br
ENDBRANCH  19  21
ENDBRANCH  17  19
ENDBRANCH   5  15
BRANCH   1  28
ATOM     28  C   UNL     1       0.237  -4.257   0.119  0.00  0.00    +0.131 C 
BRANCH  28  33
ATOM     29  C   UNL     1       0.314   1.520   0.227  0.00  0.00    +0.044 C 
ATOM     30  C   UNL     1       0.294   0.014   0.199  0.00  0.00    -0.050 A 
ATOM     31  C   UNL     1       0.195  -0.654  -1.008  0.00  0.00    +0.003 A 
ATOM     32  C   UNL     1       0.177  -2.036  -1.033  0.00  0.00    +0.004 A 
ATOM     33  C   UNL     1       0.258  -2.750   0.147  0.00  0.00    -0.039 A 
ATOM     34  C   UNL     1       0.358  -2.083   1.354  0.00  0.00    +0.004 A 
ATOM     35  C   UNL     1       0.381  -0.701   1.379  0.00  0.00    +0.003 A 
ENDBRANCH  28  33
ENDBRANCH   1  28
TORSDOF 5
