REMARK  Name = ZINC04133520
REMARK  13 active torsions:
REMARK  status: ('A' for Active; 'I' for Inactive)
REMARK    1  A    between atoms: C_1  and  C_2
REMARK    2  A    between atoms: C_5  and  C_30
REMARK    3  A    between atoms: C_9  and  C_14
REMARK    4  A    between atoms: C_14  and  N_15
REMARK    5  A    between atoms: N_15  and  C_16
REMARK    6  A    between atoms: N_15  and  C_20
REMARK    7  A    between atoms: C_16  and  C_17
REMARK    8  A    between atoms: C_17  and  N_60
REMARK    9  A    between atoms: C_18  and  N_60
REMARK   10  A    between atoms: C_19  and  N_60
REMARK   11  A    between atoms: C_20  and  N_22
REMARK   12  A    between atoms: N_22  and  C_23
REMARK   13  A    between atoms: C_23  and  C_24
REMARK                            x       y       z     vdW  Elec       q    Type
REMARK                         _______ _______ _______ _____ _____    ______ ____
ROOT
ATOM      1  N   UNL     1      -0.698   1.558   1.213  0.00  0.00    -0.310 N 
ENDROOT
BRANCH   1   2
ATOM      2  C   UNL     1      -0.353   2.738   1.767  0.00  0.00    +0.133 C 
ATOM      3  S   UNL     1       0.887   3.684   1.061  0.00  0.00    -0.019 S 
BRANCH   2   4
ATOM      4  N   UNL     1      -0.984   3.172   2.876  0.00  0.00    -0.322 N 
ATOM      5  H   UNL     1      -1.687   2.636   3.275  0.00  0.00    +0.148 HD
BRANCH   4   6
ATOM      6  C   UNL     1      -0.608   4.454   3.477  0.00  0.00    +0.138 C 
BRANCH   6   7
ATOM      7  C   UNL     1      -1.458   4.705   4.696  0.00  0.00    -0.030 A 
ATOM      8  C   UNL     1      -2.657   5.382   4.576  0.00  0.00    +0.005 A 
ATOM      9  C   UNL     1      -3.438   5.608   5.694  0.00  0.00    +0.000 A 
ATOM     10  C   UNL     1      -3.016   5.166   6.933  0.00  0.00    +0.000 A 
ATOM     11  C   UNL     1      -1.814   4.494   7.054  0.00  0.00    +0.000 A 
ATOM     12  C   UNL     1      -1.035   4.263   5.936  0.00  0.00    +0.005 A 
ENDBRANCH   6   7
ENDBRANCH   4   6
ENDBRANCH   2   4
ENDBRANCH   1   2
BRANCH   1  13
ATOM     13  C   UNL     1      -0.013   1.086   0.008  0.00  0.00    +0.147 C 
BRANCH  13  22
ATOM     14  C   UNL     1       0.472   5.171  -3.184  0.00  0.00    +0.044 C 
ATOM     15  C   UNL     1      -0.695   4.355  -3.676  0.00  0.00    -0.041 A 
ATOM     16  C   UNL     1      -1.396   4.755  -4.778  0.00  0.00    +0.004 A 
ATOM     17  C   UNL     1      -2.473   4.011  -5.239  0.00  0.00    +0.005 A 
ATOM     18  C   UNL     1      -2.856   2.854  -4.594  0.00  0.00    -0.026 A 
ATOM     19  C   UNL     1      -2.157   2.427  -3.470  0.00  0.00    +0.052 A 
ATOM     20  C   UNL     1      -1.066   3.185  -3.006  0.00  0.00    +0.002 A 
ATOM     21  C   UNL     1      -0.337   2.727  -1.821  0.00  0.00    +0.020 A 
ATOM     22  C   UNL     1      -0.742   1.585  -1.213  0.00  0.00    +0.035 A 
ATOM     23  C   UNL     1      -1.839   0.859  -1.722  0.00  0.00    +0.254 A 
ATOM     24  O   UNL     1      -2.184  -0.168  -1.163  0.00  0.00    -0.268 OA
ATOM     25  N   UNL     1      -2.518   1.274  -2.806  0.00  0.00    -0.322 N 
ATOM     26  H   UNL     1      -3.296   0.739  -3.135  0.00  0.00    +0.169 HD
ATOM     27  C   UNL     1      -4.027   2.055  -5.106  0.00  0.00    +0.046 C 
ENDBRANCH  13  22
ENDBRANCH   1  13
BRANCH   1  28
ATOM     28  C   UNL     1      -1.760   0.749   1.817  0.00  0.00    +0.088 C 
BRANCH  28  29
ATOM     29  C   UNL     1      -1.150  -0.204   2.847  0.00  0.00    -0.060 C 
BRANCH  29  32
ATOM     30  C   UNL     1      -1.650  -2.100   4.268  0.00  0.00    -0.097 C 
ATOM     31  C   UNL     1      -3.127  -0.181   4.246  0.00  0.00    -0.097 C 
ATOM     32  N   UNL     1      -2.230  -1.028   3.432  0.00  0.00    +0.377 N 
ATOM     33  H   UNL     1      -2.772  -1.454   2.672  0.00  0.00    -0.083 HD
ENDBRANCH  29  32
ENDBRANCH  28  29
ENDBRANCH   1  28
TORSDOF 9
