REMARK  Name = ZINC06600111
REMARK  16 active torsions:
REMARK  status: ('A' for Active; 'I' for Inactive)
REMARK    1  A    between atoms: C_1  and  C_2
REMARK    2  A    between atoms: C_2  and  O_3
REMARK    3  A    between atoms: O_3  and  C_4
REMARK    4  A    between atoms: C_4  and  C_5
REMARK    5  A    between atoms: C_5  and  C_6
REMARK    6  A    between atoms: C_6  and  N_7
REMARK    7  A    between atoms: N_7  and  C_8
REMARK    8  A    between atoms: C_8  and  C_10
REMARK    9  A    between atoms: C_8  and  C_17
REMARK   10  A    between atoms: N_19  and  C_20
REMARK   11  A    between atoms: C_20  and  C_21
REMARK   12  A    between atoms: C_20  and  C_22
REMARK   13  A    between atoms: C_20  and  C_23
REMARK   14  A    between atoms: C_24  and  C_26
REMARK   15  A    between atoms: C_27  and  N_34
REMARK   16  A    between atoms: C_28  and  C_31
REMARK                            x       y       z     vdW  Elec       q    Type
REMARK                         _______ _______ _______ _____ _____    ______ ____
ROOT
ATOM      1  N   UNL     1       2.647  -3.776   3.915  0.00  0.00    -0.281 N 
ATOM      2  C   UNL     1       3.887  -3.482   4.354  0.00  0.00    +0.257 C 
ATOM      3  O   UNL     1       4.662  -2.884   3.632  0.00  0.00    -0.269 OA
ENDROOT
BRANCH   2   4
ATOM      4  C   UNL     1       4.301  -3.884   5.700  0.00  0.00    +0.115 A 
ATOM      5  C   UNL     1       5.470  -3.572   6.395  0.00  0.00    +0.076 A 
ATOM      6  C   UNL     1       5.526  -4.134   7.668  0.00  0.00    +0.155 A 
ATOM      7  N   UNL     1       4.524  -4.876   8.094  0.00  0.00    -0.203 NA
ATOM      8  S   UNL     1       3.444  -4.894   6.891  0.00  0.00    +0.019 S 
BRANCH   6   9
ATOM      9  C   UNL     1       6.697  -3.901   8.533  0.00  0.00    +0.262 C 
ATOM     10  O   UNL     1       7.583  -3.153   8.168  0.00  0.00    -0.269 OA
ATOM     11  N   UNL     1       6.785  -4.516   9.729  0.00  0.00    -0.324 N 
ATOM     12  H   UNL     1       6.077  -5.113  10.021  0.00  0.00    +0.145 HD
ATOM     13  H   UNL     1       7.555  -4.363  10.298  0.00  0.00    +0.145 HD
ENDBRANCH   6   9
BRANCH   5  14
ATOM     14  N   UNL     1       6.480  -2.778   5.868  0.00  0.00    -0.355 N 
ATOM     15  H   UNL     1       6.342  -2.308   5.031  0.00  0.00    +0.142 HD
ATOM     16  H   UNL     1       7.325  -2.693   6.338  0.00  0.00    +0.142 HD
ENDBRANCH   5  14
ENDBRANCH   2   4
BRANCH   1  17
ATOM     17  C   UNL     1       2.201  -3.296   2.605  0.00  0.00    +0.111 C 
BRANCH  17  18
ATOM     18  C   UNL     1       1.451  -1.973   2.774  0.00  0.00    +0.047 C 
BRANCH  18  19
ATOM     19  C   UNL     1       1.074  -1.421   1.398  0.00  0.00    +0.161 C 
BRANCH  19  20
ATOM     20  O   UNL     1       0.374  -0.185   1.556  0.00  0.00    -0.380 OA
BRANCH  20  22
ATOM     21  C   UNL     1      -0.763   1.728   0.614  0.00  0.00    +0.034 C 
ATOM     22  C   UNL     1      -0.027   0.418   0.325  0.00  0.00    +0.156 C 
ENDBRANCH  20  22
ENDBRANCH  19  20
ENDBRANCH  18  19
ENDBRANCH  17  18
ENDBRANCH   1  17
BRANCH   1  23
ATOM     23  C   UNL     1       1.745  -4.575   4.748  0.00  0.00    +0.192 C 
BRANCH  23  24
ATOM     24  C   UNL     1       2.030  -6.039   4.536  0.00  0.00    -0.018 A 
ATOM     25  C   UNL     1       2.339  -6.507   3.273  0.00  0.00    +0.007 A 
ATOM     26  C   UNL     1       2.601  -7.850   3.078  0.00  0.00    +0.020 A 
ATOM     27  C   UNL     1       2.554  -8.726   4.148  0.00  0.00    +0.041 A 
ATOM     28  C   UNL     1       2.246  -8.257   5.412  0.00  0.00    +0.020 A 
ATOM     29  C   UNL     1       1.989  -6.913   5.607  0.00  0.00    +0.007 A 
ATOM     30 CL   UNL     1       2.883 -10.413   3.904  0.00  0.00    -0.084 Cl
ENDBRANCH  23  24
BRANCH  23  31
ATOM     31  C   UNL     1       0.317  -4.281   4.367  0.00  0.00    +0.238 C 
ATOM     32  O   UNL     1      -0.002  -4.238   3.197  0.00  0.00    -0.273 OA
ATOM     33  N   UNL     1      -0.606  -4.066   5.325  0.00  0.00    -0.309 N 
ATOM     34  H   UNL     1      -0.351  -4.101   6.261  0.00  0.00    +0.149 HD
BRANCH  33  35
ATOM     35  C   UNL     1      -1.995  -3.781   4.955  0.00  0.00    +0.026 C 
ATOM     36  C   UNL     1      -2.560  -4.955   4.154  0.00  0.00    +0.031 C 
ATOM     37  C   UNL     1      -2.829  -3.578   6.221  0.00  0.00    +0.031 C 
ATOM     38  C   UNL     1      -2.044  -2.511   4.103  0.00  0.00    +0.031 C 
ENDBRANCH  33  35
ENDBRANCH  23  31
ENDBRANCH   1  23
TORSDOF 12
