REMARK  Name = ZINC14457109
REMARK  6 active torsions:
REMARK  status: ('A' for Active; 'I' for Inactive)
REMARK    1  A    between atoms: C_1  and  O_2
REMARK    2  A    between atoms: O_2  and  C_3
REMARK    3  A    between atoms: C_6  and  C_10
REMARK    4  A    between atoms: C_8  and  O_9
REMARK    5  A    between atoms: C_21  and  S_26
REMARK    6  A    between atoms: S_26  and  N_29
REMARK                            x       y       z     vdW  Elec       q    Type
REMARK                         _______ _______ _______ _____ _____    ______ ____
ROOT
ATOM      1  C   UNL     1       3.647  -2.040  -0.484  0.00  0.00    +0.105 C 
ATOM      2  C   UNL     1       2.557  -2.818   0.260  0.00  0.00    +0.029 C 
ATOM      3  C   UNL     1       2.374  -4.177  -0.478  0.00  0.00    +0.033 C 
ATOM      4  C   UNL     1       1.457  -3.828  -1.634  0.00  0.00    -0.030 C 
ATOM      5  C   UNL     1       0.793  -2.727  -1.378  0.00  0.00    -0.023 C 
ATOM      6  C   UNL     1       1.179  -2.189  -0.020  0.00  0.00    +0.049 C 
ATOM      7  C   UNL     1       1.207  -0.694  -0.014  0.00  0.00    -0.018 A 
ATOM      8  C   UNL     1       0.002  -0.004   0.002  0.00  0.00    +0.034 A 
ATOM      9  C   UNL     1      -0.017   1.376   0.010  0.00  0.00    +0.106 A 
ATOM     10  C   UNL     1       1.168   2.089   0.002  0.00  0.00    +0.030 A 
ATOM     11  C   UNL     1       2.373   1.415  -0.014  0.00  0.00    +0.025 A 
ATOM     12  C   UNL     1       2.392   0.026  -0.022  0.00  0.00    +0.031 A 
ATOM     13  N   UNL     1       3.621  -0.643  -0.040  0.00  0.00    -0.336 N 
ATOM     14  H   UNL     1       4.435  -0.193   0.234  0.00  0.00    +0.147 HD
ENDROOT
BRANCH   1  18
ATOM     15  C   UNL     1       7.471  -3.744   0.387  0.00  0.00    +0.161 A 
ATOM     16  C   UNL     1       6.870  -2.884   1.292  0.00  0.00    +0.050 A 
ATOM     17  C   UNL     1       5.637  -2.330   1.004  0.00  0.00    +0.009 A 
ATOM     18  C   UNL     1       4.994  -2.642  -0.179  0.00  0.00    -0.023 A 
ATOM     19  C   UNL     1       5.588  -3.500  -1.086  0.00  0.00    +0.054 A 
ATOM     20  C   UNL     1       6.827  -4.054  -0.807  0.00  0.00    +0.159 A 
BRANCH  15  22
ATOM     21  C   UNL     1       9.289  -3.924   1.910  0.00  0.00    +0.277 C 
ATOM     22  O   UNL     1       8.687  -4.286   0.665  0.00  0.00    -0.491 OA
ENDBRANCH  15  22
BRANCH  20  23
ATOM     23  O   UNL     1       7.412  -4.898  -1.698  0.00  0.00    -0.503 OA
ATOM     24  H   UNL     1       7.976  -4.456  -2.347  0.00  0.00    +0.292 HD
ENDBRANCH  20  23
ENDBRANCH   1  18
BRANCH   9  25
ATOM     25  S   UNL     1      -1.556   2.232   0.022  0.00  0.00    +0.061 S 
ATOM     26  O   UNL     1      -1.309   3.521  -0.523  0.00  0.00    -0.153 OA
ATOM     27  O   UNL     1      -2.519   1.344  -0.530  0.00  0.00    -0.153 OA
BRANCH  25  28
ATOM     28  N   UNL     1      -1.977   2.461   1.607  0.00  0.00    -0.177 NA
ATOM     29  C   UNL     1      -2.775   1.451   2.265  0.00  0.00    +0.109 C 
ATOM     30  C   UNL     1      -4.274   1.754   2.067  0.00  0.00    +0.017 C 
ATOM     31  C   UNL     1      -4.667   2.929   2.860  0.00  0.00    +0.001 C 
ATOM     32  C   UNL     1      -3.963   4.222   2.459  0.00  0.00    +0.001 C 
ATOM     33  C   UNL     1      -2.632   4.306   3.165  0.00  0.00    +0.017 C 
ATOM     34  C   UNL     1      -1.527   3.691   2.287  0.00  0.00    +0.109 C 
ENDBRANCH  25  28
ENDBRANCH   9  25
TORSDOF 5
