REMARK  Name = ZINC66596864
REMARK  8 active torsions:
REMARK  status: ('A' for Active; 'I' for Inactive)
REMARK    1  A    between atoms: C_1  and  N_2
REMARK    2  A    between atoms: N_2  and  C_3
REMARK    3  A    between atoms: C_5  and  C_10
REMARK    4  A    between atoms: C_10  and  N_11
REMARK    5  A    between atoms: N_14  and  C_15
REMARK    6  A    between atoms: C_15  and  C_16
REMARK    7  A    between atoms: C_16  and  C_17
REMARK    8  A    between atoms: C_17  and  C_18
REMARK                            x       y       z     vdW  Elec       q    Type
REMARK                         _______ _______ _______ _____ _____    ______ ____
ROOT
ATOM      1  N   UNL     1       0.572  -2.873   1.612  0.00  0.00    -0.295 N 
ATOM      2  C   UNL     1       1.726  -3.485   1.946  0.00  0.00    +0.300 C 
ATOM      3  O   UNL     1       2.408  -4.008   1.086  0.00  0.00    -0.253 OA
ATOM      4  N   UNL     1       2.123  -3.516   3.233  0.00  0.00    -0.299 N 
ATOM      5  H   UNL     1       0.028  -2.455   2.298  0.00  0.00    +0.151 HD
ATOM      6  H   UNL     1       1.579  -3.099   3.920  0.00  0.00    +0.150 HD
ENDROOT
BRANCH   1   7
ATOM      7  C   UNL     1       0.140  -2.838   0.212  0.00  0.00    +0.144 C 
BRANCH   7  12
ATOM      8  C   UNL     1       0.448   0.458   1.550  0.00  0.00    +0.130 C 
ATOM      9  N   UNL     1      -0.012   0.003   0.236  0.00  0.00    -0.323 N 
ATOM     10  C   UNL     1       0.779   0.300  -0.960  0.00  0.00    +0.130 C 
ATOM     11  C   UNL     1      -1.200  -0.710   0.125  0.00  0.00    +0.103 A 
ATOM     12  C   UNL     1      -1.170  -2.101   0.109  0.00  0.00    +0.008 A 
ATOM     13  C   UNL     1      -2.360  -2.798  -0.002  0.00  0.00    +0.010 A 
ATOM     14  C   UNL     1      -3.543  -2.078  -0.095  0.00  0.00    +0.018 A 
ATOM     15  C   UNL     1      -3.499  -0.699  -0.073  0.00  0.00    +0.084 A 
ATOM     16  N   UNL     1      -2.350  -0.060   0.039  0.00  0.00    -0.349 N 
ATOM     17  H   UNL     1      -2.348   0.910   0.056  0.00  0.00    +0.167 HD
ENDBRANCH   7  12
ENDBRANCH   1   7
BRANCH   4  18
ATOM     18  C   UNL     1       3.377  -4.181   3.597  0.00  0.00    +0.106 C 
BRANCH  18  19
ATOM     19  C   UNL     1       3.592  -4.074   5.108  0.00  0.00    +0.023 C 
BRANCH  19  20
ATOM     20  C   UNL     1       4.902  -4.769   5.487  0.00  0.00    +0.036 C 
BRANCH  20  21
ATOM     21  C   UNL     1       5.113  -4.663   6.975  0.00  0.00    -0.046 A 
ATOM     22  C   UNL     1       5.797  -3.583   7.501  0.00  0.00    +0.004 A 
ATOM     23  C   UNL     1       5.991  -3.485   8.866  0.00  0.00    +0.001 A 
ATOM     24  C   UNL     1       5.503  -4.468   9.706  0.00  0.00    +0.015 A 
ATOM     25  C   UNL     1       4.818  -5.549   9.180  0.00  0.00    +0.018 A 
ATOM     26  C   UNL     1       4.619  -5.644   7.815  0.00  0.00    +0.019 A 
ATOM     27 BR   UNL     1       4.150  -6.895  10.329  0.00  0.00    -0.050 Br
ENDBRANCH  20  21
ENDBRANCH  19  20
ENDBRANCH  18  19
ENDBRANCH   4  18
TORSDOF 6
