REMARK  Name = ZINC35023208
REMARK  6 active torsions:
REMARK  status: ('A' for Active; 'I' for Inactive)
REMARK    1  A    between atoms: C_6  and  C_11
REMARK    2  A    between atoms: C_11  and  C_13
REMARK    3  A    between atoms: C_15  and  C_27
REMARK    4  A    between atoms: C_21  and  C_22
REMARK    5  A    between atoms: C_21  and  O_26
REMARK    6  A    between atoms: C_30  and  C_33
REMARK                            x       y       z     vdW  Elec       q    Type
REMARK                         _______ _______ _______ _____ _____    ______ ____
ROOT
ATOM      1  C   UNL     1       4.955  -4.659   0.362  0.00  0.00    +0.144 C 
ATOM      2  C   UNL     1       6.364  -4.888   0.919  0.00  0.00    +0.120 C 
ATOM      3  N   UNL     1       7.317  -4.072   0.165  0.00  0.00    -0.292 N 
ATOM      4  C   UNL     1       7.097  -3.749  -1.118  0.00  0.00    +0.302 C 
ATOM      5  O   UNL     1       7.926  -3.078  -1.701  0.00  0.00    -0.253 OA
ATOM      6  N   UNL     1       5.999  -4.137  -1.783  0.00  0.00    -0.264 N 
ATOM      7  C   UNL     1       4.965  -4.958  -1.141  0.00  0.00    +0.243 C 
ATOM      8  H   UNL     1       8.124  -3.759   0.603  0.00  0.00    +0.151 HD
ATOM      9  H   UNL     1       5.884  -3.869  -2.708  0.00  0.00    +0.153 HD
ENDROOT
BRANCH   2  10
ATOM     10  C   UNL     1       6.401  -4.495   2.373  0.00  0.00    -0.026 A 
ATOM     11  C   UNL     1       6.612  -3.173   2.724  0.00  0.00    +0.007 A 
ATOM     12  C   UNL     1       6.647  -2.805   4.053  0.00  0.00    +0.019 A 
ATOM     13  C   UNL     1       6.470  -3.771   5.046  0.00  0.00    +0.052 A 
ATOM     14  C   UNL     1       6.257  -5.103   4.685  0.00  0.00    +0.019 A 
ATOM     15  C   UNL     1       6.220  -5.456   3.352  0.00  0.00    +0.007 A 
BRANCH  13  16
ATOM     16  C   UNL     1       6.505  -3.397   6.427  0.00  0.00    +0.099 C 
ATOM     17  N   UNL     1       6.534  -3.100   7.524  0.00  0.00    -0.191 NA
ENDBRANCH  13  16
ENDBRANCH   2  10
BRANCH   7  18
ATOM     18  C   UNL     1       3.596  -4.626  -1.737  0.00  0.00    +0.436 C 
ATOM     19  F   UNL     1       3.373  -3.248  -1.655  0.00  0.00    -0.166 F 
ATOM     20  F   UNL     1       3.563  -5.025  -3.078  0.00  0.00    -0.166 F 
ATOM     21  F   UNL     1       2.600  -5.304  -1.025  0.00  0.00    -0.166 F 
ENDBRANCH   7  18
BRANCH   1  22
ATOM     22  C   UNL     1       4.548  -3.225   0.590  0.00  0.00    +0.173 C 
ATOM     23  O   UNL     1       5.151  -2.329   0.039  0.00  0.00    -0.292 OA
BRANCH  22  29
ATOM     24  C   UNL     1      -0.093  -0.774   4.317  0.00  0.00    +0.001 A 
ATOM     25  C   UNL     1       0.662   0.270   3.786  0.00  0.00    +0.001 A 
ATOM     26  C   UNL     1       1.713   0.024   2.958  0.00  0.00    +0.008 A 
ATOM     27  C   UNL     1       2.046  -1.303   2.631  0.00  0.00    -0.017 A 
ATOM     28  C   UNL     1       3.123  -1.592   1.780  0.00  0.00    +0.020 A 
ATOM     29  C   UNL     1       3.420  -2.914   1.481  0.00  0.00    +0.019 A 
ATOM     30  C   UNL     1       2.648  -3.960   2.024  0.00  0.00    +0.012 A 
ATOM     31  C   UNL     1       1.603  -3.697   2.847  0.00  0.00    +0.009 A 
ATOM     32  C   UNL     1       1.277  -2.366   3.171  0.00  0.00    -0.018 A 
ATOM     33  C   UNL     1       0.200  -2.071   4.022  0.00  0.00    +0.008 A 
ENDBRANCH  22  29
ENDBRANCH   1  22
BRANCH   7  34
ATOM     34  O   UNL     1       5.257  -6.341  -1.350  0.00  0.00    -0.364 OA
ATOM     35  H   UNL     1       5.279  -6.601  -2.281  0.00  0.00    +0.212 HD
ENDBRANCH   7  34
TORSDOF 6
