REMARK  Name = ZINC03354787
REMARK  13 active torsions:
REMARK  status: ('A' for Active; 'I' for Inactive)
REMARK    1  A    between atoms: C_1  and  C_2
REMARK    2  A    between atoms: C_5  and  O_8
REMARK    3  A    between atoms: O_8  and  C_9
REMARK    4  A    between atoms: C_12  and  N_15
REMARK    5  A    between atoms: C_16  and  C_18
REMARK    6  A    between atoms: C_18  and  S_19
REMARK    7  A    between atoms: S_19  and  C_20
REMARK    8  A    between atoms: C_23  and  C_26
REMARK    9  A    between atoms: N_24  and  N_25
REMARK   10  A    between atoms: C_29  and  C_32
REMARK   11  A    between atoms: C_32  and  C_33
REMARK   12  A    between atoms: C_32  and  C_34
REMARK   13  A    between atoms: C_32  and  C_35
REMARK                            x       y       z     vdW  Elec       q    Type
REMARK                         _______ _______ _______ _____ _____    ______ ____
ROOT
ATOM      1  C   UNL     1      -0.543   0.272  -0.287  0.00  0.00    +0.173 C 
ENDROOT
BRANCH   1   3
ATOM      2  N   UNL     1      -0.919   0.801   2.100  0.00  0.00    -0.285 N 
ATOM      3  C   UNL     1      -1.357   0.877   0.828  0.00  0.00    +0.227 C 
ATOM      4  O   UNL     1      -2.406   1.433   0.580  0.00  0.00    -0.275 OA
ATOM      5  H   UNL     1      -0.028   0.466   2.287  0.00  0.00    +0.155 HD
BRANCH   2   9
ATOM      6  C   UNL     1      -3.393   2.009   5.232  0.00  0.00    +0.129 A 
ATOM      7  C   UNL     1      -3.565   2.547   3.965  0.00  0.00    +0.048 A 
ATOM      8  C   UNL     1      -2.746   2.148   2.927  0.00  0.00    +0.027 A 
ATOM      9  C   UNL     1      -1.750   1.207   3.152  0.00  0.00    +0.034 A 
ATOM     10  C   UNL     1      -1.582   0.664   4.419  0.00  0.00    +0.027 A 
ATOM     11  C   UNL     1      -2.397   1.069   5.457  0.00  0.00    +0.048 A 
BRANCH   6  12
ATOM     12  O   UNL     1      -4.199   2.402   6.253  0.00  0.00    -0.456 OA
BRANCH  12  17
ATOM     13  C   UNL     1      -2.138   6.086   9.982  0.00  0.00    +0.044 C 
ATOM     14  C   UNL     1      -2.689   5.101   8.984  0.00  0.00    -0.050 A 
ATOM     15  C   UNL     1      -3.926   4.519   9.199  0.00  0.00    +0.007 A 
ATOM     16  C   UNL     1      -4.434   3.615   8.286  0.00  0.00    +0.046 A 
ATOM     17  C   UNL     1      -3.702   3.291   7.152  0.00  0.00    +0.128 A 
ATOM     18  C   UNL     1      -2.460   3.872   6.941  0.00  0.00    +0.046 A 
ATOM     19  C   UNL     1      -1.959   4.779   7.855  0.00  0.00    +0.007 A 
ENDBRANCH  12  17
ENDBRANCH   6  12
ENDBRANCH   2   9
ENDBRANCH   1   3
BRANCH   1  20
ATOM     20  S   UNL     1      -1.390   0.536  -1.865  0.00  0.00    -0.075 S 
BRANCH  20  21
ATOM     21  C   UNL     1      -0.252  -0.248  -2.958  0.00  0.00    +0.209 A 
ATOM     22  N   UNL     1       0.878  -0.830  -2.621  0.00  0.00    -0.121 NA
ATOM     23  N   UNL     1       1.460  -1.302  -3.666  0.00  0.00    -0.127 NA
ATOM     24  C   UNL     1       0.742  -1.042  -4.734  0.00  0.00    +0.182 A 
ATOM     25  N   UNL     1      -0.376  -0.359  -4.313  0.00  0.00    -0.224 N 
BRANCH  24  26
ATOM     26  C   UNL     1       1.073  -1.413  -6.126  0.00  0.00    +0.021 A 
ATOM     27  C   UNL     1       2.100  -2.322  -6.384  0.00  0.00    +0.012 A 
ATOM     28  C   UNL     1       2.401  -2.668  -7.685  0.00  0.00    +0.005 A 
ATOM     29  C   UNL     1       1.694  -2.107  -8.734  0.00  0.00    -0.042 A 
ATOM     30  C   UNL     1       0.678  -1.201  -8.486  0.00  0.00    +0.005 A 
ATOM     31  C   UNL     1       0.364  -0.851  -7.189  0.00  0.00    +0.012 A 
BRANCH  29  32
ATOM     32  C   UNL     1       2.032  -2.485 -10.153  0.00  0.00    -0.013 C 
ATOM     33  C   UNL     1       2.452  -1.234 -10.927  0.00  0.00    +0.015 C 
ATOM     34  C   UNL     1       3.181  -3.495 -10.152  0.00  0.00    +0.015 C 
ATOM     35  C   UNL     1       0.805  -3.110 -10.820  0.00  0.00    +0.015 C 
ENDBRANCH  29  32
ENDBRANCH  24  26
BRANCH  25  36
ATOM     36  N   UNL     1      -1.397   0.109  -5.090  0.00  0.00    -0.295 N 
ATOM     37  H   UNL     1      -1.206   1.046  -5.412  0.00  0.00    +0.163 HD
ATOM     38  H   UNL     1      -1.576  -0.511  -5.865  0.00  0.00    +0.163 HD
ENDBRANCH  25  36
ENDBRANCH  20  21
ENDBRANCH   1  20
TORSDOF 9
