REMARK  Name = ZINC08781441
REMARK  10 active torsions:
REMARK  status: ('A' for Active; 'I' for Inactive)
REMARK    1  A    between atoms: C_1  and  C_2
REMARK    2  A    between atoms: C_7  and  N_8
REMARK    3  A    between atoms: C_9  and  C_11
REMARK    4  A    between atoms: C_11  and  N_46
REMARK    5  A    between atoms: C_12  and  C_13
REMARK    6  A    between atoms: C_12  and  N_46
REMARK    7  A    between atoms: C_13  and  C_14
REMARK    8  A    between atoms: C_14  and  N_15
REMARK    9  A    between atoms: N_15  and  C_16
REMARK   10  A    between atoms: C_19  and  N_22
REMARK                            x       y       z     vdW  Elec       q    Type
REMARK                         _______ _______ _______ _____ _____    ______ ____
ROOT
ATOM      1  N   UNL     1       3.951  -6.647  -1.688  0.00  0.00    +0.385 N 
ATOM      2  H   UNL     1       2.985  -6.844  -1.401  0.00  0.00    -0.085 HD
ATOM      3  H   UNL     1       4.109  -7.015  -2.633  0.00  0.00    -0.085 HD
ENDROOT
BRANCH   1   4
ATOM      4  C   UNL     1       4.881  -7.301  -0.748  0.00  0.00    +0.015 C 
BRANCH   4   6
ATOM      5  N   UNL     1       5.370  -9.601   0.019  0.00  0.00    -0.286 N 
ATOM      6  C   UNL     1       4.635  -8.788  -0.765  0.00  0.00    +0.200 C 
ATOM      7  O   UNL     1       3.776  -9.252  -1.484  0.00  0.00    -0.278 OA
ATOM      8  H   UNL     1       6.093  -9.237   0.553  0.00  0.00    +0.155 HD
BRANCH   5  15
ATOM      9  C   UNL     1       2.698 -10.412   0.566  0.00  0.00    +0.046 C 
ATOM     10  C   UNL     1       3.800 -11.411   0.325  0.00  0.00    -0.027 A 
ATOM     11  C   UNL     1       3.527 -12.765   0.366  0.00  0.00    +0.020 A 
ATOM     12  C   UNL     1       4.538 -13.683   0.145  0.00  0.00    +0.019 A 
ATOM     13  C   UNL     1       5.825 -13.249  -0.118  0.00  0.00    +0.032 A 
ATOM     14  C   UNL     1       6.103 -11.897  -0.166  0.00  0.00    +0.040 A 
ATOM     15  C   UNL     1       5.091 -10.972   0.061  0.00  0.00    +0.050 A 
ATOM     16 BR   UNL     1       7.861 -11.304  -0.535  0.00  0.00    -0.048 Br
ATOM     17 BR   UNL     1       4.160 -15.535   0.203  0.00  0.00    -0.050 Br
ENDBRANCH   5  15
ENDBRANCH   4   6
ENDBRANCH   1   4
BRANCH   1  18
ATOM     18  C   UNL     1       4.169  -5.188  -1.692  0.00  0.00    -0.080 C 
BRANCH  18  19
ATOM     19  C   UNL     1       3.192  -4.537  -2.674  0.00  0.00    -0.000 C 
BRANCH  19  20
ATOM     20  C   UNL     1       3.412  -3.023  -2.684  0.00  0.00    +0.099 C 
BRANCH  20  21
ATOM     21  N   UNL     1       2.477  -2.400  -3.624  0.00  0.00    -0.344 N 
ATOM     22  H   UNL     1       1.850  -2.950  -4.120  0.00  0.00    +0.146 HD
BRANCH  21  23
ATOM     23  C   UNL     1       2.488  -1.016  -3.806  0.00  0.00    +0.027 A 
ATOM     24  C   UNL     1       1.602  -0.423  -4.697  0.00  0.00    +0.025 A 
ATOM     25  C   UNL     1       1.616   0.946  -4.875  0.00  0.00    +0.034 A 
ATOM     26  C   UNL     1       2.510   1.728  -4.167  0.00  0.00    +0.126 A 
ATOM     27  C   UNL     1       3.394   1.141  -3.279  0.00  0.00    +0.034 A 
ATOM     28  C   UNL     1       3.386  -0.228  -3.097  0.00  0.00    +0.025 A 
BRANCH  26  29
ATOM     29  N   UNL     1       2.523   3.195  -4.360  0.00  0.00    +0.056 N 
ATOM     30  O   UNL     1       1.745   3.713  -5.142  0.00  0.00    -0.126 OA
ATOM     31  O   UNL     1       3.310   3.885  -3.737  0.00  0.00    -0.126 OA
ENDBRANCH  26  29
ENDBRANCH  21  23
ENDBRANCH  20  21
ENDBRANCH  19  20
ENDBRANCH  18  19
ENDBRANCH   1  18
TORSDOF 9
