REMARK  Name = ZINC36697467
REMARK  11 active torsions:
REMARK  status: ('A' for Active; 'I' for Inactive)
REMARK    1  A    between atoms: C_1  and  C_2
REMARK    2  A    between atoms: C_3  and  C_35
REMARK    3  A    between atoms: C_11  and  C_13
REMARK    4  A    between atoms: C_13  and  S_14
REMARK    5  A    between atoms: S_14  and  C_15
REMARK    6  A    between atoms: C_15  and  C_17
REMARK    7  A    between atoms: C_15  and  C_18
REMARK    8  A    between atoms: N_20  and  C_21
REMARK    9  A    between atoms: C_21  and  C_22
REMARK   10  A    between atoms: C_22  and  C_24
REMARK   11  A    between atoms: C_22  and  N_29
REMARK                            x       y       z     vdW  Elec       q    Type
REMARK                         _______ _______ _______ _____ _____    ______ ____
ROOT
ATOM      1  C   UNL     1       0.001  -7.538   5.441  0.00  0.00    +0.226 C 
ATOM      2  O   UNL     1      -0.261  -7.800   4.287  0.00  0.00    -0.275 OA
ATOM      3  N   UNL     1       0.524  -8.485   6.246  0.00  0.00    -0.316 N 
ATOM      4  H   UNL     1       0.733  -8.275   7.169  0.00  0.00    +0.149 HD
ENDROOT
BRANCH   1   5
ATOM      5  C   UNL     1      -0.257  -6.153   5.976  0.00  0.00    +0.129 C 
ATOM      6  C   UNL     1      -1.566  -6.148   6.768  0.00  0.00    +0.029 C 
BRANCH   5   7
ATOM      7  S   UNL     1      -0.382  -4.984   4.595  0.00  0.00    -0.141 S 
BRANCH   7   8
ATOM      8  C   UNL     1      -0.537  -3.367   5.401  0.00  0.00    +0.144 C 
BRANCH   8  19
ATOM      9  C   UNL     1      -1.098   2.032   1.466  0.00  0.00    +0.045 C 
ATOM     10  C   UNL     1      -0.952   0.544   1.283  0.00  0.00    -0.026 A 
ATOM     11  C   UNL     1      -0.902   0.012   0.051  0.00  0.00    -0.008 A 
ATOM     12  S   UNL     1      -0.728  -1.735   0.362  0.00  0.00    -0.073 S 
ATOM     13  C   UNL     1      -0.728  -1.700   2.136  0.00  0.00    +0.116 A 
ATOM     14  C   UNL     1      -0.857  -0.332   2.437  0.00  0.00    +0.075 A 
ATOM     15  C   UNL     1      -0.881  -0.004   3.831  0.00  0.00    +0.260 A 
ATOM     16  O   UNL     1      -0.994   1.155   4.193  0.00  0.00    -0.267 OA
ATOM     17  N   UNL     1      -0.776  -0.995   4.736  0.00  0.00    -0.310 N 
ATOM     18  H   UNL     1      -0.792  -0.779   5.681  0.00  0.00    +0.170 HD
ATOM     19  C   UNL     1      -0.650  -2.291   4.351  0.00  0.00    +0.121 A 
ATOM     20  N   UNL     1      -0.634  -2.623   3.088  0.00  0.00    -0.226 NA
ATOM     21  C   UNL     1      -0.976   0.722  -1.276  0.00  0.00    +0.052 C 
ENDBRANCH   8  19
ENDBRANCH   7   8
ENDBRANCH   5   7
ENDBRANCH   1   5
BRANCH   3  22
ATOM     22  C   UNL     1       0.775  -9.831   5.726  0.00  0.00    +0.096 C 
BRANCH  22  23
ATOM     23  C   UNL     1       1.485 -10.666   6.793  0.00  0.00    +0.016 C 
BRANCH  23  24
ATOM     24  N   UNL     1       2.694  -9.962   7.241  0.00  0.00    +0.387 N 
ATOM     25  C   UNL     1       3.597  -9.769   6.100  0.00  0.00    -0.078 C 
ATOM     26  C   UNL     1       4.821  -8.966   6.544  0.00  0.00    -0.019 C 
ATOM     27  C   UNL     1       5.552  -9.730   7.652  0.00  0.00    -0.004 C 
ATOM     28  C   UNL     1       4.580  -9.991   8.805  0.00  0.00    -0.019 C 
ATOM     29  C   UNL     1       3.365 -10.757   8.278  0.00  0.00    -0.078 C 
ATOM     30  H   UNL     1       2.438  -9.063   7.621  0.00  0.00    -0.081 HD
ENDBRANCH  23  24
BRANCH  23  31
ATOM     31  C   UNL     1       0.561 -10.873   7.965  0.00  0.00    +0.093 A 
ATOM     32  C   UNL     1      -0.158 -11.983   8.214  0.00  0.00    +0.043 A 
ATOM     33  C   UNL     1      -0.878 -11.745   9.407  0.00  0.00    +0.041 A 
ATOM     34  C   UNL     1      -0.557 -10.505   9.816  0.00  0.00    +0.195 A 
ATOM     35  O   UNL     1       0.319  -9.983   8.942  0.00  0.00    -0.469 OA
ENDBRANCH  23  31
ENDBRANCH  22  23
ENDBRANCH   3  22
TORSDOF 8
