REMARK  Name = ZINC12659847
REMARK  8 active torsions:
REMARK  status: ('A' for Active; 'I' for Inactive)
REMARK    1  A    between atoms: C_1  and  C_2
REMARK    2  A    between atoms: C_3  and  C_30
REMARK    3  A    between atoms: C_4  and  N_13
REMARK    4  A    between atoms: N_5  and  C_7
REMARK    5  A    between atoms: N_22  and  C_23
REMARK    6  A    between atoms: C_23  and  C_24
REMARK    7  A    between atoms: C_30  and  C_32
REMARK    8  A    between atoms: C_30  and  O_38
REMARK                            x       y       z     vdW  Elec       q    Type
REMARK                         _______ _______ _______ _____ _____    ______ ____
ROOT
ATOM      1  C   UNL     1       0.107   1.460   0.537  0.00  0.00    +0.065 C 
ATOM      2  C   UNL     1      -0.244   0.029   0.222  0.00  0.00    +0.039 A 
ATOM      3  C   UNL     1       0.063  -0.645  -0.963  0.00  0.00    +0.046 A 
ATOM      4  C   UNL     1      -0.421  -1.914  -0.859  0.00  0.00    +0.133 A 
ATOM      5  N   UNL     1      -1.013  -2.026   0.361  0.00  0.00    -0.240 N 
ATOM      6  N   UNL     1      -0.881  -0.794   1.015  0.00  0.00    -0.295 N 
ATOM      7  H   UNL     1      -1.208  -0.587   1.905  0.00  0.00    +0.187 HD
ENDROOT
BRANCH   4   8
ATOM      8  N   UNL     1      -0.327  -2.913  -1.825  0.00  0.00    -0.269 N 
ATOM      9  C   UNL     1       0.167  -4.157  -1.486  0.00  0.00    +0.202 A 
ATOM     10  N   UNL     1       0.633  -4.485  -0.306  0.00  0.00    -0.214 NA
ATOM     11  C   UNL     1       1.034  -5.783  -0.320  0.00  0.00    +0.091 A 
ATOM     12  C   UNL     1       1.595  -6.625   0.645  0.00  0.00    +0.030 A 
ATOM     13  C   UNL     1       1.902  -7.927   0.321  0.00  0.00    +0.002 A 
ATOM     14  C   UNL     1       1.660  -8.410  -0.957  0.00  0.00    +0.002 A 
ATOM     15  C   UNL     1       1.108  -7.592  -1.921  0.00  0.00    +0.028 A 
ATOM     16  C   UNL     1       0.791  -6.278  -1.612  0.00  0.00    +0.070 A 
ATOM     17  N   UNL     1       0.237  -5.230  -2.328  0.00  0.00    -0.307 N 
ATOM     18  H   UNL     1      -0.608  -2.735  -2.736  0.00  0.00    +0.156 HD
BRANCH  17  19
ATOM     19  C   UNL     1      -0.192  -5.265  -3.728  0.00  0.00    +0.160 C 
BRANCH  19  20
ATOM     20  C   UNL     1       0.961  -4.873  -4.616  0.00  0.00    -0.028 A 
ATOM     21  C   UNL     1       1.160  -3.545  -4.945  0.00  0.00    +0.005 A 
ATOM     22  C   UNL     1       2.217  -3.186  -5.760  0.00  0.00    +0.000 A 
ATOM     23  C   UNL     1       3.076  -4.154  -6.245  0.00  0.00    +0.000 A 
ATOM     24  C   UNL     1       2.878  -5.482  -5.915  0.00  0.00    +0.000 A 
ATOM     25  C   UNL     1       1.823  -5.841  -5.097  0.00  0.00    +0.005 A 
ENDBRANCH  19  20
ENDBRANCH  17  19
ENDBRANCH   4   8
BRANCH   5  26
ATOM     26  C   UNL     1      -1.639  -3.170   0.873  0.00  0.00    +0.065 A 
ATOM     27  C   UNL     1      -2.526  -3.890   0.084  0.00  0.00    +0.028 A 
ATOM     28  C   UNL     1      -3.142  -5.018   0.591  0.00  0.00    +0.002 A 
ATOM     29  C   UNL     1      -2.875  -5.430   1.884  0.00  0.00    +0.000 A 
ATOM     30  C   UNL     1      -1.993  -4.715   2.672  0.00  0.00    +0.002 A 
ATOM     31  C   UNL     1      -1.370  -3.590   2.169  0.00  0.00    +0.028 A 
ENDBRANCH   5  26
BRANCH   3  32
ATOM     32  C   UNL     1       0.797  -0.070  -2.146  0.00  0.00    +0.180 C 
BRANCH  32  33
ATOM     33  C   UNL     1      -0.198   0.373  -3.188  0.00  0.00    -0.012 A 
ATOM     34  C   UNL     1      -0.767  -0.543  -4.059  0.00  0.00    +0.026 A 
ATOM     35  C   UNL     1      -1.676  -0.100  -5.002  0.00  0.00    +0.111 A 
ATOM     36  N   UNL     1      -2.001   1.176  -5.078  0.00  0.00    -0.263 NA
ATOM     37  C   UNL     1      -1.479   2.074  -4.267  0.00  0.00    +0.111 A 
ATOM     38  C   UNL     1      -0.569   1.705  -3.295  0.00  0.00    +0.026 A 
ENDBRANCH  32  33
BRANCH  32  39
ATOM     39  O   UNL     1       1.659  -1.065  -2.703  0.00  0.00    -0.382 OA
ATOM     40  H   UNL     1       1.192  -1.823  -3.079  0.00  0.00    +0.211 HD
ENDBRANCH  32  39
ENDBRANCH   3  32
TORSDOF 7
