REMARK  Name = ZINC64416981
REMARK  7 active torsions:
REMARK  status: ('A' for Active; 'I' for Inactive)
REMARK    1  A    between atoms: C_4  and  N_7
REMARK    2  A    between atoms: C_8  and  C_10
REMARK    3  A    between atoms: C_10  and  C_11
REMARK    4  A    between atoms: C_11  and  C_12
REMARK    5  A    between atoms: N_16  and  C_20
REMARK    6  A    between atoms: C_20  and  C_21
REMARK    7  A    between atoms: C_21  and  C_22
REMARK                            x       y       z     vdW  Elec       q    Type
REMARK                         _______ _______ _______ _____ _____    ______ ____
ROOT
ATOM      1  C   UNL     1       6.045  -4.964   0.346  0.00  0.00    +0.161 C 
ATOM      2  C   UNL     1       5.822  -6.454   0.513  0.00  0.00    +0.243 C 
ATOM      3  O   UNL     1       5.249  -7.011   1.425  0.00  0.00    -0.273 OA
ATOM      4  N   UNL     1       6.393  -7.031  -0.562  0.00  0.00    -0.224 N 
ATOM      5  C   UNL     1       6.940  -6.122  -1.378  0.00  0.00    +0.309 C 
ATOM      6  O   UNL     1       7.513  -6.401  -2.413  0.00  0.00    -0.252 OA
ATOM      7  N   UNL     1       6.787  -4.862  -0.922  0.00  0.00    -0.288 N 
ATOM      8  H   UNL     1       7.102  -4.048  -1.346  0.00  0.00    +0.151 HD
ENDROOT
BRANCH   1   9
ATOM      9  C   UNL     1       4.708  -4.227   0.249  0.00  0.00    +0.041 C 
BRANCH   9  10
ATOM     10  C   UNL     1       4.962  -2.721   0.153  0.00  0.00    +0.098 C 
BRANCH  10  12
ATOM     11  N   UNL     1       3.622  -0.651  -0.037  0.00  0.00    -0.285 N 
ATOM     12  C   UNL     1       3.645  -1.995   0.057  0.00  0.00    +0.217 C 
ATOM     13  O   UNL     1       2.606  -2.620   0.064  0.00  0.00    -0.275 OA
ATOM     14  H   UNL     1       4.452  -0.156  -0.121  0.00  0.00    +0.155 HD
BRANCH  11  18
ATOM     15  C   UNL     1      -0.015   1.381   0.029  0.00  0.00    +0.000 A 
ATOM     16  C   UNL     1       0.140   0.218   0.763  0.00  0.00    +0.002 A 
ATOM     17  C   UNL     1       1.344  -0.457   0.743  0.00  0.00    +0.023 A 
ATOM     18  C   UNL     1       2.400   0.031  -0.015  0.00  0.00    +0.033 A 
ATOM     19  C   UNL     1       2.241   1.198  -0.751  0.00  0.00    +0.023 A 
ATOM     20  C   UNL     1       1.034   1.870  -0.727  0.00  0.00    +0.002 A 
ENDBRANCH  11  18
ENDBRANCH  10  12
ENDBRANCH   9  10
ENDBRANCH   1   9
BRANCH   4  21
ATOM     21  C   UNL     1       6.412  -8.475  -0.809  0.00  0.00    +0.122 C 
BRANCH  21  22
ATOM     22  C   UNL     1       5.173  -8.872  -1.612  0.00  0.00    +0.052 C 
BRANCH  22  23
ATOM     23  C   UNL     1       5.193 -10.357  -1.865  0.00  0.00    -0.040 C 
ATOM     24  C   UNL     1       4.576 -11.315  -1.136  0.00  0.00    +0.000 A 
ATOM     25  C   UNL     1       3.736 -11.262   0.066  0.00  0.00    +0.030 A 
ATOM     26  C   UNL     1       3.252 -12.417   0.580  0.00  0.00    +0.042 A 
ATOM     27  C   UNL     1       3.533 -13.660  -0.007  0.00  0.00    +0.022 A 
ATOM     28  C   UNL     1       4.298 -13.788  -1.112  0.00  0.00    +0.027 A 
ATOM     29  C   UNL     1       4.858 -12.639  -1.736  0.00  0.00    +0.043 A 
ATOM     30  N   UNL     1       5.619 -12.505  -2.795  0.00  0.00    -0.380 N 
ATOM     31  C   UNL     1       5.901 -11.079  -2.990  0.00  0.00    +0.144 C 
ATOM     32 CL   UNL     1       2.257 -12.359   2.001  0.00  0.00    -0.084 Cl
ATOM     33  H   UNL     1       5.939 -13.228  -3.357  0.00  0.00    +0.160 HD
ENDBRANCH  22  23
ENDBRANCH  21  22
ENDBRANCH   4  21
TORSDOF 7
