REMARK  Name = ZINC03340317
REMARK  8 active torsions:
REMARK  status: ('A' for Active; 'I' for Inactive)
REMARK    1  A    between atoms: C_1  and  C_2
REMARK    2  A    between atoms: C_2  and  O_3
REMARK    3  A    between atoms: O_3  and  C_4
REMARK    4  A    between atoms: C_4  and  C_6
REMARK    5  A    between atoms: C_10  and  N_11
REMARK    6  A    between atoms: C_12  and  C_14
REMARK    7  A    between atoms: C_14  and  N_15
REMARK    8  A    between atoms: C_30  and  C_34
REMARK                            x       y       z     vdW  Elec       q    Type
REMARK                         _______ _______ _______ _____ _____    ______ ____
ROOT
ATOM      1  N   UNL     1       1.930  -5.845  -1.738  0.00  0.00    -0.278 N 
ATOM      2  C   UNL     1       2.227  -6.106  -3.026  0.00  0.00    +0.236 C 
ATOM      3  O   UNL     1       2.199  -5.214  -3.848  0.00  0.00    -0.274 OA
ATOM      4  H   UNL     1       1.953  -6.558  -1.081  0.00  0.00    +0.155 HD
ENDROOT
BRANCH   1   9
ATOM      5  C   UNL     1       1.258  -4.096  -0.085  0.00  0.00    +0.091 A 
ATOM      6  C   UNL     1       0.941  -2.684   0.053  0.00  0.00    -0.021 A 
ATOM      7  C   UNL     1       1.008  -1.966  -1.089  0.00  0.00    -0.004 A 
ATOM      8  S   UNL     1       1.484  -3.133  -2.332  0.00  0.00    -0.077 S 
ATOM      9  C   UNL     1       1.592  -4.558  -1.351  0.00  0.00    +0.086 A 
ATOM     10  C   UNL     1       0.736  -0.502  -1.252  0.00  0.00    +0.046 C 
ATOM     11  C   UNL     1       0.002  -0.004   0.002  0.00  0.00    -0.009 C 
ATOM     12  C   UNL     1       0.742  -0.514   1.242  0.00  0.00    +0.008 C 
ATOM     13  C   UNL     1       0.557  -2.027   1.373  0.00  0.00    +0.037 C 
ATOM     14  C   UNL     1      -0.019   1.526   0.010  0.00  0.00    +0.008 C 
BRANCH   5  15
ATOM     15  C   UNL     1       1.226  -4.998   1.068  0.00  0.00    +0.342 C 
ATOM     16  O   UNL     1       0.198  -5.582   1.355  0.00  0.00    -0.245 OA
BRANCH  15  17
ATOM     17  O   UNL     1       2.336  -5.182   1.812  0.00  0.00    -0.461 OA
BRANCH  17  19
ATOM     18  C   UNL     1       3.579  -6.170   3.658  0.00  0.00    +0.048 C 
ATOM     19  C   UNL     1       2.231  -6.090   2.940  0.00  0.00    +0.229 C 
ENDBRANCH  17  19
ENDBRANCH  15  17
ENDBRANCH   5  15
ENDBRANCH   1   9
BRANCH   2  20
ATOM     20  C   UNL     1       2.594  -7.506  -3.446  0.00  0.00    +0.214 C 
BRANCH  20  21
ATOM     21  N   UNL     1       2.870  -7.528  -4.884  0.00  0.00    -0.215 N 
ATOM     22  C   UNL     1       1.938  -7.764  -5.832  0.00  0.00    +0.247 C 
ATOM     23  O   UNL     1       0.767  -8.025  -5.657  0.00  0.00    -0.273 OA
ATOM     24  C   UNL     1       2.666  -7.635  -7.144  0.00  0.00    +0.113 C 
ATOM     25  C   UNL     1       2.564  -8.930  -7.959  0.00  0.00    +0.035 C 
ATOM     26  C   UNL     1       3.060  -8.668  -9.386  0.00  0.00    +0.003 C 
ATOM     27  C   UNL     1       4.552  -8.386  -9.397  0.00  0.00    +0.000 C 
ATOM     28  C   UNL     1       4.936  -6.935  -9.612  0.00  0.00    +0.000 C 
ATOM     29  C   UNL     1       3.775  -5.967  -9.749  0.00  0.00    +0.000 C 
ATOM     30  C   UNL     1       3.239  -5.538  -8.378  0.00  0.00    +0.003 C 
ATOM     31  C   UNL     1       2.111  -6.492  -7.983  0.00  0.00    +0.035 C 
ATOM     32  N   UNL     1       4.067  -7.420  -6.771  0.00  0.00    -0.285 N 
ATOM     33  C   UNL     1       4.078  -7.320  -5.423  0.00  0.00    +0.310 C 
ATOM     34  O   UNL     1       5.075  -7.068  -4.777  0.00  0.00    -0.252 OA
ATOM     35  H   UNL     1       4.840  -7.353  -7.344  0.00  0.00    +0.151 HD
ENDBRANCH  20  21
ENDBRANCH   2  20
TORSDOF 6
