REMARK  Name = ZINC23041834
REMARK  7 active torsions:
REMARK  status: ('A' for Active; 'I' for Inactive)
REMARK    1  A    between atoms: C_2  and  C_3
REMARK    2  A    between atoms: C_3  and  N_4
REMARK    3  A    between atoms: C_5  and  C_11
REMARK    4  A    between atoms: C_11  and  C_12
REMARK    5  A    between atoms: C_18  and  C_20
REMARK    6  A    between atoms: C_20  and  O_21
REMARK    7  A    between atoms: O_21  and  C_22
REMARK                            x       y       z     vdW  Elec       q    Type
REMARK                         _______ _______ _______ _____ _____    ______ ____
ROOT
ATOM      1  C   UNL     1      -0.012   2.608  -3.360  0.00  0.00    +0.058 A 
ATOM      2  C   UNL     1       0.389   2.951  -4.608  0.00  0.00    +0.072 A 
ATOM      3  S   UNL     1       1.961   2.106  -4.696  0.00  0.00    -0.060 S 
ATOM      4  C   UNL     1       1.923   1.394  -3.112  0.00  0.00    +0.165 A 
ATOM      5  N   UNL     1       0.771   1.829  -2.640  0.00  0.00    -0.229 NA
ATOM      6  N   UNL     1       2.865   0.575  -2.500  0.00  0.00    -0.262 N 
ATOM      7  C   UNL     1       3.993   0.238  -3.156  0.00  0.00    +0.256 C 
ATOM      8  O   UNL     1       4.187   0.649  -4.280  0.00  0.00    -0.272 OA
ATOM      9  H   UNL     1       2.689   0.202  -1.480  0.00  0.00    +0.157 HD
ENDROOT
BRANCH   1  10
ATOM     10  C   UNL     1      -1.327   3.099  -2.810  0.00  0.00    +0.132 C 
BRANCH  10  12
ATOM     11  N   UNL     1      -2.146   1.365  -1.112  0.00  0.00    -0.303 N 
ATOM     12  C   UNL     1      -2.157   1.922  -2.367  0.00  0.00    +0.138 A 
ATOM     13  N   UNL     1      -2.995   1.270  -3.107  0.00  0.00    -0.158 NA
ATOM     14  N   UNL     1      -3.567   0.256  -2.327  0.00  0.00    -0.254 N 
ATOM     15  H   UNL     1      -4.316  -0.419  -2.766  0.00  0.00    +0.191 HD
ATOM     16  C   UNL     1      -3.021   0.339  -1.096  0.00  0.00    +0.176 A 
ATOM     17  S   UNL     1      -3.375  -0.671   0.241  0.00  0.00    -0.011 S 
BRANCH  11  18
ATOM     18  C   UNL     1      -1.328   1.812   0.018  0.00  0.00    +0.152 C 
BRANCH  18  20
ATOM     19  C   UNL     1       1.113   1.746   0.001  0.00  0.00    +0.005 C 
ATOM     20  C   UNL     1      -0.013   1.076   0.008  0.00  0.00    -0.013 C 
ENDBRANCH  18  20
ENDBRANCH  11  18
ENDBRANCH  10  12
ENDBRANCH   1  10
BRANCH   7  21
ATOM     21  C   UNL     1       5.014  -0.649  -2.492  0.00  0.00    +0.325 C 
BRANCH  21  22
ATOM     22  O   UNL     1       6.112  -0.861  -3.382  0.00  0.00    -0.481 OA
BRANCH  22  23
ATOM     23  C   UNL     1       7.128  -1.645  -2.933  0.00  0.00    +0.141 A 
ATOM     24  C   UNL     1       7.071  -2.195  -1.661  0.00  0.00    +0.068 A 
ATOM     25  C   UNL     1       8.103  -2.996  -1.209  0.00  0.00    +0.063 A 
ATOM     26  C   UNL     1       9.197  -3.242  -2.021  0.00  0.00    +0.061 A 
ATOM     27  C   UNL     1       9.258  -2.690  -3.288  0.00  0.00    +0.045 A 
ATOM     28  C   UNL     1       8.226  -1.892  -3.746  0.00  0.00    +0.084 A 
ATOM     29 CL   UNL     1       8.302  -1.200  -5.336  0.00  0.00    -0.080 Cl
ATOM     30 CL   UNL     1      10.495  -4.243  -1.448  0.00  0.00    -0.082 Cl
ATOM     31 CL   UNL     1       8.029  -3.689   0.381  0.00  0.00    -0.082 Cl
ENDBRANCH  22  23
ENDBRANCH  21  22
ENDBRANCH   7  21
TORSDOF 7
