REMARK  Name = ZINC16011443
REMARK  5 active torsions:
REMARK  status: ('A' for Active; 'I' for Inactive)
REMARK    1  A    between atoms: C_1  and  C_2
REMARK    2  A    between atoms: C_5  and  N_9
REMARK    3  A    between atoms: C_29  and  C_31
REMARK    4  A    between atoms: C_31  and  C_32
REMARK    5  A    between atoms: C_31  and  C_33
REMARK                            x       y       z     vdW  Elec       q    Type
REMARK                         _______ _______ _______ _____ _____    ______ ____
ROOT
ATOM      1  N   UNL     1      -0.770  -5.307   1.505  0.00  0.00    -0.209 N 
ATOM      2  C   UNL     1      -1.795  -5.890   0.809  0.00  0.00    +0.232 C 
ATOM      3  O   UNL     1      -2.759  -5.335   0.328  0.00  0.00    -0.274 OA
ATOM      4  C   UNL     1      -1.480  -7.355   0.763  0.00  0.00    +0.107 C 
ATOM      5  C   UNL     1       0.080  -7.199   0.681  0.00  0.00    +0.123 C 
ATOM      6  C   UNL     1       0.348  -6.103   1.572  0.00  0.00    +0.233 C 
ATOM      7  O   UNL     1       1.344  -5.921   2.239  0.00  0.00    -0.274 OA
ATOM      8  C   UNL     1       0.600  -8.461   0.173  0.00  0.00    +0.136 C 
ATOM      9  C   UNL     1       1.234  -9.347   1.218  0.00  0.00    +0.003 A 
ATOM     10  C   UNL     1       0.790  -9.848   2.421  0.00  0.00    +0.008 A 
ATOM     11  C   UNL     1       1.618 -10.653   3.182  0.00  0.00    +0.000 A 
ATOM     12  C   UNL     1       2.890 -10.953   2.731  0.00  0.00    +0.002 A 
ATOM     13  C   UNL     1       3.338 -10.455   1.525  0.00  0.00    +0.023 A 
ATOM     14  C   UNL     1       2.510  -9.642   0.753  0.00  0.00    +0.039 A 
ATOM     15  N   UNL     1       2.730  -9.026  -0.480  0.00  0.00    -0.283 N 
ATOM     16  C   UNL     1       1.664  -8.316  -0.890  0.00  0.00    +0.243 C 
ATOM     17  O   UNL     1       1.574  -7.681  -1.920  0.00  0.00    -0.273 OA
ATOM     18  N   UNL     1      -0.575  -9.178  -0.419  0.00  0.00    -0.295 NA
ATOM     19  C   UNL     1      -1.695  -8.147  -0.526  0.00  0.00    +0.070 C 
ATOM     20  H   UNL     1       3.556  -9.101  -0.982  0.00  0.00    +0.155 HD
ATOM     21  H   UNL     1      -0.348  -9.559  -1.325  0.00  0.00    +0.124 HD
ENDROOT
BRANCH   1  26
ATOM     22  C   UNL     1      -1.098  -0.143   3.841  0.00  0.00    +0.044 C 
ATOM     23  C   UNL     1      -1.011  -1.514   3.221  0.00  0.00    -0.049 A 
ATOM     24  C   UNL     1      -0.564  -1.656   1.920  0.00  0.00    +0.005 A 
ATOM     25  C   UNL     1      -0.483  -2.911   1.349  0.00  0.00    +0.025 A 
ATOM     26  C   UNL     1      -0.851  -4.031   2.082  0.00  0.00    +0.058 A 
ATOM     27  C   UNL     1      -1.300  -3.886   3.389  0.00  0.00    +0.040 A 
ATOM     28  C   UNL     1      -1.373  -2.628   3.956  0.00  0.00    +0.020 A 
ATOM     29 BR   UNL     1      -1.803  -5.408   4.391  0.00  0.00    -0.048 Br
ENDBRANCH   1  26
BRANCH  19  30
ATOM     30  C   UNL     1      -1.520  -7.252  -1.754  0.00  0.00    +0.001 C 
ATOM     31  C   UNL     1      -1.534  -8.114  -3.019  0.00  0.00    +0.009 C 
ATOM     32  C   UNL     1      -2.666  -6.240  -1.815  0.00  0.00    +0.009 C 
ENDBRANCH  19  30
TORSDOF 2
