REMARK  Name = ZINC12694855
REMARK  10 active torsions:
REMARK  status: ('A' for Active; 'I' for Inactive)
REMARK    1  A    between atoms: C_1  and  C_2
REMARK    2  A    between atoms: C_6  and  C_8
REMARK    3  A    between atoms: C_11  and  S_16
REMARK    4  A    between atoms: N_12  and  C_13
REMARK    5  A    between atoms: C_13  and  C_14
REMARK    6  A    between atoms: S_16  and  C_17
REMARK    7  A    between atoms: C_17  and  C_18
REMARK    8  A    between atoms: N_20  and  C_21
REMARK    9  A    between atoms: C_24  and  S_28
REMARK   10  A    between atoms: S_28  and  N_31
REMARK                            x       y       z     vdW  Elec       q    Type
REMARK                         _______ _______ _______ _____ _____    ______ ____
ROOT
ATOM      1  C   UNL     1      -1.185   4.409  -5.493  0.00  0.00    +0.228 C 
ATOM      2  O   UNL     1      -0.148   4.847  -5.043  0.00  0.00    -0.275 OA
ATOM      3  N   UNL     1      -1.807   5.053  -6.500  0.00  0.00    -0.282 N 
ATOM      4  H   UNL     1      -2.675   4.748  -6.809  0.00  0.00    +0.155 HD
ENDROOT
BRANCH   3   5
ATOM      5  C   UNL     1      -1.201   6.163  -7.102  0.00  0.00    +0.071 A 
ATOM      6  C   UNL     1      -0.746   7.217  -6.320  0.00  0.00    +0.065 A 
ATOM      7  C   UNL     1      -0.145   8.309  -6.917  0.00  0.00    +0.050 A 
ATOM      8  C   UNL     1      -0.004   8.358  -8.291  0.00  0.00    +0.108 A 
ATOM      9  C   UNL     1      -0.461   7.313  -9.073  0.00  0.00    +0.050 A 
ATOM     10  C   UNL     1      -1.059   6.215  -8.483  0.00  0.00    +0.065 A 
ATOM     11 CL   UNL     1      -1.631   4.904  -9.466  0.00  0.00    -0.082 Cl
ATOM     12 CL   UNL     1      -0.928   7.160  -4.594  0.00  0.00    -0.082 Cl
BRANCH   8  13
ATOM     13  S   UNL     1       0.758   9.754  -9.048  0.00  0.00    +0.056 S 
ATOM     14  O   UNL     1       1.589  10.348  -8.061  0.00  0.00    -0.153 OA
ATOM     15  O   UNL     1       1.260   9.313 -10.302  0.00  0.00    -0.153 OA
BRANCH  13  16
ATOM     16  N   UNL     1      -0.442  10.848  -9.378  0.00  0.00    -0.204 NA
ATOM     17  H   UNL     1      -1.361  10.643  -9.148  0.00  0.00    +0.144 HD
ATOM     18  H   UNL     1      -0.224  11.694  -9.800  0.00  0.00    +0.144 HD
ENDBRANCH  13  16
ENDBRANCH   8  13
ENDBRANCH   3   5
BRANCH   1  19
ATOM     19  C   UNL     1      -1.779   3.145  -4.927  0.00  0.00    +0.173 C 
BRANCH  19  20
ATOM     20  S   UNL     1      -0.719   2.524  -3.598  0.00  0.00    -0.077 S 
BRANCH  20  24
ATOM     21  C   UNL     1      -2.284  -0.748  -2.145  0.00  0.00    +0.165 A 
ATOM     22  N   UNL     1      -3.137  -0.413  -3.084  0.00  0.00    -0.128 NA
ATOM     23  N   UNL     1      -2.747   0.663  -3.667  0.00  0.00    -0.122 NA
ATOM     24  C   UNL     1      -1.623   1.085  -3.132  0.00  0.00    +0.193 A 
ATOM     25  N   UNL     1      -1.286   0.199  -2.149  0.00  0.00    -0.298 N 
BRANCH  21  31
ATOM     26  C   UNL     1      -0.118  -3.970   0.991  0.00  0.00    +0.044 C 
ATOM     27  C   UNL     1      -1.338  -3.475   0.258  0.00  0.00    -0.050 A 
ATOM     28  C   UNL     1      -2.550  -4.123   0.421  0.00  0.00    +0.003 A 
ATOM     29  C   UNL     1      -3.676  -3.676  -0.249  0.00  0.00    +0.001 A 
ATOM     30  C   UNL     1      -3.596  -2.580  -1.083  0.00  0.00    +0.011 A 
ATOM     31  C   UNL     1      -2.377  -1.923  -1.252  0.00  0.00    +0.020 A 
ATOM     32  C   UNL     1      -1.244  -2.382  -0.577  0.00  0.00    +0.015 A 
ENDBRANCH  21  31
BRANCH  25  33
ATOM     33  C   UNL     1      -0.110   0.250  -1.277  0.00  0.00    +0.152 C 
BRANCH  33  34
ATOM     34  C   UNL     1       1.039  -0.466  -1.940  0.00  0.00    -0.013 C 
ATOM     35  C   UNL     1       2.178   0.154  -2.122  0.00  0.00    +0.005 C 
ENDBRANCH  33  34
ENDBRANCH  25  33
ENDBRANCH  20  24
ENDBRANCH  19  20
ENDBRANCH   1  19
TORSDOF 9
