REMARK  Name = ZINC12550109
REMARK  21 active torsions:
REMARK  status: ('A' for Active; 'I' for Inactive)
REMARK    1  A    between atoms: C_1  and  C_2
REMARK    2  A    between atoms: C_2  and  C_3
REMARK    3  A    between atoms: C_3  and  C_4
REMARK    4  A    between atoms: C_4  and  N_5
REMARK    5  A    between atoms: C_6  and  C_30
REMARK    6  A    between atoms: C_9  and  S_10
REMARK    7  A    between atoms: S_10  and  C_11
REMARK    8  A    between atoms: C_11  and  C_12
REMARK    9  A    between atoms: N_14  and  C_15
REMARK   10  A    between atoms: C_18  and  C_29
REMARK   11  A    between atoms: C_19  and  S_21
REMARK   12  A    between atoms: S_21  and  N_24
REMARK   13  A    between atoms: N_24  and  C_25
REMARK   14  A    between atoms: N_24  and  C_27
REMARK   15  A    between atoms: C_25  and  C_26
REMARK   16  A    between atoms: C_27  and  C_28
REMARK   17  A    between atoms: C_30  and  C_32
REMARK   18  A    between atoms: C_30  and  N_75
REMARK   19  A    between atoms: C_32  and  C_33
REMARK   20  A    between atoms: C_34  and  N_75
REMARK   21  A    between atoms: C_35  and  N_75
REMARK                            x       y       z     vdW  Elec       q    Type
REMARK                         _______ _______ _______ _____ _____    ______ ____
ROOT
ATOM      1  C   UNL     1      -4.288   2.744  -0.440  0.00  0.00    +0.227 C 
ATOM      2  O   UNL     1      -3.936   1.655  -0.843  0.00  0.00    -0.275 OA
ATOM      3  N   UNL     1      -3.396   3.750  -0.350  0.00  0.00    -0.285 N 
ATOM      4  H   UNL     1      -3.689   4.636  -0.085  0.00  0.00    +0.155 HD
ENDROOT
BRANCH   3   5
ATOM      5  C   UNL     1      -2.047   3.517  -0.638  0.00  0.00    +0.035 A 
ATOM      6  C   UNL     1      -1.694   2.626  -1.644  0.00  0.00    +0.023 A 
ATOM      7  C   UNL     1      -0.361   2.393  -1.922  0.00  0.00    +0.007 A 
ATOM      8  C   UNL     1       0.621   3.054  -1.208  0.00  0.00    -0.024 A 
ATOM      9  C   UNL     1       0.273   3.946  -0.210  0.00  0.00    +0.110 A 
ATOM     10  C   UNL     1      -1.058   4.179   0.076  0.00  0.00    +0.052 A 
ATOM     11  C   UNL     1       2.075   2.802  -1.518  0.00  0.00    +0.046 C 
BRANCH   9  12
ATOM     12  S   UNL     1       1.529   4.787   0.696  0.00  0.00    +0.061 S 
ATOM     13  O   UNL     1       1.998   3.875   1.681  0.00  0.00    -0.153 OA
ATOM     14  O   UNL     1       2.392   5.383  -0.262  0.00  0.00    -0.153 OA
BRANCH  12  15
ATOM     15  N   UNL     1       0.796   6.028   1.512  0.00  0.00    -0.177 NA
BRANCH  15  16
ATOM     16  C   UNL     1       0.301   5.818   2.874  0.00  0.00    +0.106 C 
ATOM     17  C   UNL     1       1.341   6.320   3.878  0.00  0.00    +0.022 C 
ENDBRANCH  15  16
BRANCH  15  18
ATOM     18  C   UNL     1       0.644   7.337   0.870  0.00  0.00    +0.106 C 
ATOM     19  C   UNL     1      -0.739   7.430   0.224  0.00  0.00    +0.022 C 
ENDBRANCH  15  18
ENDBRANCH  12  15
ENDBRANCH   9  12
ENDBRANCH   3   5
BRANCH   1  20
ATOM     20  C   UNL     1      -5.723   2.971  -0.041  0.00  0.00    +0.173 C 
BRANCH  20  21
ATOM     21  S   UNL     1      -6.664   1.442  -0.274  0.00  0.00    -0.077 S 
BRANCH  21  26
ATOM     22  N   UNL     1      -9.395   1.227   0.294  0.00  0.00    -0.307 N 
ATOM     23  C   UNL     1     -10.373   2.059   0.766  0.00  0.00    +0.120 A 
ATOM     24  N   UNL     1      -9.823   3.220   0.982  0.00  0.00    -0.135 NA
ATOM     25  N   UNL     1      -8.573   3.178   0.685  0.00  0.00    -0.123 NA
ATOM     26  C   UNL     1      -8.257   1.980   0.253  0.00  0.00    +0.192 A 
BRANCH  22  27
ATOM     27  C   UNL     1      -9.540  -0.180  -0.088  0.00  0.00    +0.125 C 
BRANCH  27  28
ATOM     28  C   UNL     1      -9.276  -1.069   1.129  0.00  0.00    +0.021 C 
BRANCH  28  30
ATOM     29  C   UNL     1      -9.164  -3.427   1.948  0.00  0.00    +0.004 C 
ATOM     30  C   UNL     1      -9.427  -2.538   0.730  0.00  0.00    -0.002 C 
ENDBRANCH  28  30
ENDBRANCH  27  28
ENDBRANCH  22  27
BRANCH  23  31
ATOM     31  C   UNL     1     -11.818   1.699   0.995  0.00  0.00    +0.000 C 
BRANCH  31  34
ATOM     32  C   UNL     1     -12.352   4.026   0.594  0.00  0.00    -0.096 C 
ATOM     33  C   UNL     1     -12.582   2.406  -1.191  0.00  0.00    -0.096 C 
ATOM     34  N   UNL     1     -12.705   2.629   0.265  0.00  0.00    +0.383 N 
ATOM     35  H   UNL     1     -13.677   2.455   0.548  0.00  0.00    -0.082 HD
ENDBRANCH  31  34
BRANCH  31  36
ATOM     36  C   UNL     1     -12.135   1.785   2.489  0.00  0.00    -0.011 C 
ATOM     37  C   UNL     1     -13.580   1.345   2.730  0.00  0.00    +0.002 C 
ENDBRANCH  31  36
ENDBRANCH  23  31
ENDBRANCH  21  26
ENDBRANCH  20  21
ENDBRANCH   1  20
TORSDOF 14
