REMARK  Name = ZINC39671476
REMARK  4 active torsions:
REMARK  status: ('A' for Active; 'I' for Inactive)
REMARK    1  A    between atoms: C_6  and  C_11
REMARK    2  A    between atoms: C_11  and  N_12
REMARK    3  A    between atoms: C_13  and  C_15
REMARK    4  A    between atoms: C_26  and  C_28
REMARK                            x       y       z     vdW  Elec       q    Type
REMARK                         _______ _______ _______ _____ _____    ______ ____
ROOT
ATOM      1  C   UNL     1      -8.456   0.591   3.564  0.00  0.00    +0.100 C 
ATOM      2  C   UNL     1      -7.958  -0.831   3.909  0.00  0.00    +0.121 C 
ATOM      3  N   UNL     1      -9.093  -1.461   4.624  0.00  0.00    -0.296 N 
ATOM      4  C   UNL     1     -10.295  -0.990   3.896  0.00  0.00    +0.115 C 
ATOM      5  C   UNL     1      -9.990   0.482   3.556  0.00  0.00    -0.004 C 
ATOM      6  C   UNL     1     -10.537   0.828   2.174  0.00  0.00    -0.010 C 
ATOM      7  C   UNL     1     -12.067   0.769   2.207  0.00  0.00    -0.082 C 
ATOM      8  N   UNL     1     -12.573   1.716   3.207  0.00  0.00    +0.379 N 
ATOM      9  C   UNL     1     -12.118   1.322   4.546  0.00  0.00    -0.082 C 
ATOM     10  C   UNL     1     -10.591   1.404   4.612  0.00  0.00    -0.010 C 
ATOM     11  C   UNL     1      -9.042  -2.277   5.696  0.00  0.00    +0.248 C 
ATOM     12  O   UNL     1     -10.060  -2.793   6.115  0.00  0.00    -0.270 OA
ATOM     13  H   UNL     1     -12.231   2.642   2.996  0.00  0.00    -0.086 HD
ATOM     14  H   UNL     1     -13.582   1.720   3.184  0.00  0.00    -0.086 HD
ENDROOT
BRANCH  11  15
ATOM     15  C   UNL     1      -7.750  -2.543   6.362  0.00  0.00    +0.057 A 
ATOM     16  C   UNL     1      -6.579  -2.636   5.607  0.00  0.00    +0.014 A 
ATOM     17  C   UNL     1      -5.376  -2.885   6.234  0.00  0.00    +0.002 A 
ATOM     18  C   UNL     1      -5.327  -3.044   7.608  0.00  0.00    +0.021 A 
ATOM     19  C   UNL     1      -6.483  -2.954   8.363  0.00  0.00    +0.060 A 
ATOM     20  C   UNL     1      -7.695  -2.699   7.748  0.00  0.00    +0.071 A 
ATOM     21 CL   UNL     1      -9.144  -2.579   8.697  0.00  0.00    -0.081 Cl
ATOM     22 CL   UNL     1      -6.410  -3.156  10.086  0.00  0.00    -0.082 Cl
ENDBRANCH  11  15
BRANCH   1  24
ATOM     23  N   UNL     1      -7.743   2.312   1.937  0.00  0.00    -0.309 N 
ATOM     24  C   UNL     1      -7.952   1.009   2.206  0.00  0.00    +0.219 C 
ATOM     25  O   UNL     1      -7.735   0.171   1.356  0.00  0.00    -0.275 OA
ATOM     26  H   UNL     1      -7.916   2.982   2.617  0.00  0.00    +0.149 HD
BRANCH  23  27
ATOM     27  C   UNL     1      -7.253   2.718   0.617  0.00  0.00    +0.157 C 
BRANCH  27  33
ATOM     28  C   UNL     1      -7.173   8.790   0.218  0.00  0.00    +0.001 A 
ATOM     29  C   UNL     1      -5.914   8.638   0.781  0.00  0.00    +0.002 A 
ATOM     30  C   UNL     1      -5.427   7.385   1.084  0.00  0.00    +0.026 A 
ATOM     31  C   UNL     1      -6.203   6.260   0.825  0.00  0.00    +0.047 A 
ATOM     32  N   UNL     1      -6.006   4.910   1.007  0.00  0.00    -0.357 N 
ATOM     33  C   UNL     1      -7.104   4.217   0.575  0.00  0.00    +0.034 A 
ATOM     34  H   UNL     1      -5.208   4.509   1.385  0.00  0.00    +0.166 HD
ATOM     35  C   UNL     1      -8.030   5.071   0.109  0.00  0.00    +0.032 A 
ATOM     36  C   UNL     1      -7.479   6.420   0.254  0.00  0.00    -0.000 A 
ATOM     37  C   UNL     1      -7.955   7.699  -0.040  0.00  0.00    +0.010 A 
ENDBRANCH  27  33
ENDBRANCH  23  27
ENDBRANCH   1  24
TORSDOF 4
