REMARK  Name = ZINC08827752
REMARK  12 active torsions:
REMARK  status: ('A' for Active; 'I' for Inactive)
REMARK    1  A    between atoms: C_1  and  C_2
REMARK    2  A    between atoms: C_2  and  C_3
REMARK    3  A    between atoms: C_2  and  C_4
REMARK    4  A    between atoms: C_2  and  C_5
REMARK    5  A    between atoms: C_8  and  C_11
REMARK    6  A    between atoms: C_13  and  C_27
REMARK    7  A    between atoms: C_14  and  O_26
REMARK    8  A    between atoms: N_17  and  C_18
REMARK    9  A    between atoms: C_18  and  C_19
REMARK   10  A    between atoms: C_19  and  C_20
REMARK   11  A    between atoms: C_20  and  N_74
REMARK   12  A    between atoms: C_27  and  C_29
REMARK                            x       y       z     vdW  Elec       q    Type
REMARK                         _______ _______ _______ _____ _____    ______ ____
ROOT
ATOM      1  C   UNL     1      -1.997   1.286   0.159  0.00  0.00    +0.144 C 
ATOM      2  C   UNL     1      -2.842   0.953   1.366  0.00  0.00    +0.071 C 
ATOM      3  C   UNL     1      -4.084   1.430   1.117  0.00  0.00    +0.188 C 
ATOM      4  C   UNL     1      -4.100   2.071  -0.214  0.00  0.00    +0.282 C 
ATOM      5  O   UNL     1      -5.070   2.595  -0.724  0.00  0.00    -0.267 OA
ATOM      6  N   UNL     1      -2.881   1.989  -0.778  0.00  0.00    -0.284 N 
ENDROOT
BRANCH   1  10
ATOM      7  C   UNL     1       1.252   3.819   1.289  0.00  0.00    -0.042 A 
ATOM      8  C   UNL     1       1.482   2.487   1.001  0.00  0.00    +0.004 A 
ATOM      9  C   UNL     1       0.430   1.666   0.639  0.00  0.00    +0.006 A 
ATOM     10  C   UNL     1      -0.851   2.179   0.560  0.00  0.00    -0.022 A 
ATOM     11  C   UNL     1      -1.082   3.511   0.852  0.00  0.00    +0.006 A 
ATOM     12  C   UNL     1      -0.030   4.331   1.214  0.00  0.00    +0.004 A 
BRANCH   7  14
ATOM     13  C   UNL     1       3.429   4.752   0.553  0.00  0.00    +0.015 C 
ATOM     14  C   UNL     1       2.399   4.714   1.684  0.00  0.00    -0.013 C 
ATOM     15  C   UNL     1       1.876   6.127   1.946  0.00  0.00    +0.015 C 
ATOM     16  C   UNL     1       3.056   4.169   2.954  0.00  0.00    +0.015 C 
ENDBRANCH   7  14
ENDBRANCH   1  10
BRANCH   3  17
ATOM     17  O   UNL     1      -5.143   1.335   1.954  0.00  0.00    -0.502 OA
ATOM     18  H   UNL     1      -5.940   1.766   1.533  0.00  0.00    +0.292 HD
ENDBRANCH   3  17
BRANCH   2  19
ATOM     19  C   UNL     1      -2.402   0.247   2.574  0.00  0.00    +0.195 C 
ATOM     20  O   UNL     1      -2.404   0.820   3.648  0.00  0.00    -0.287 OA
BRANCH  19  21
ATOM     21  C   UNL     1      -1.957  -1.157   2.488  0.00  0.00    +0.026 A 
ATOM     22  C   UNL     1      -2.069  -1.855   1.282  0.00  0.00    +0.015 A 
ATOM     23  C   UNL     1      -1.648  -3.164   1.203  0.00  0.00    +0.050 A 
ATOM     24  C   UNL     1      -1.122  -3.800   2.322  0.00  0.00    +0.162 A 
ATOM     25  C   UNL     1      -1.010  -3.110   3.528  0.00  0.00    +0.163 A 
ATOM     26  C   UNL     1      -1.427  -1.795   3.613  0.00  0.00    +0.061 A 
ATOM     27  O   UNL     1      -0.489  -3.716   4.630  0.00  0.00    -0.485 OA
ATOM     28  C   UNL     1      -0.426  -5.146   4.609  0.00  0.00    +0.270 C 
ATOM     29  C   UNL     1       0.144  -5.582   3.253  0.00  0.00    +0.270 C 
ATOM     30  O   UNL     1      -0.724  -5.096   2.224  0.00  0.00    -0.485 OA
ENDBRANCH  19  21
ENDBRANCH   2  19
BRANCH   6  31
ATOM     31  C   UNL     1      -2.503   2.510  -2.094  0.00  0.00    +0.107 C 
BRANCH  31  32
ATOM     32  C   UNL     1      -2.734   1.432  -3.155  0.00  0.00    +0.000 C 
BRANCH  32  33
ATOM     33  C   UNL     1      -2.340   1.976  -4.529  0.00  0.00    -0.077 C 
BRANCH  33  39
ATOM     34  C   UNL     1      -1.649  -0.195  -5.353  0.00  0.00    -0.050 C 
ATOM     35  C   UNL     1      -1.954  -1.273  -6.396  0.00  0.00    +0.141 C 
ATOM     36  O   UNL     1      -1.843  -0.708  -7.705  0.00  0.00    -0.383 OA
ATOM     37  C   UNL     1      -2.719   0.400  -7.929  0.00  0.00    +0.141 C 
ATOM     38  C   UNL     1      -2.422   1.495  -6.902  0.00  0.00    -0.050 C 
ATOM     39  N   UNL     1      -2.587   0.930  -5.546  0.00  0.00    +0.383 N 
ATOM     40  H   UNL     1      -3.548   0.585  -5.442  0.00  0.00    -0.082 HD
ENDBRANCH  33  39
ENDBRANCH  32  33
ENDBRANCH  31  32
ENDBRANCH   6  31
TORSDOF 9
