REMARK  Name = ZINC63140074
REMARK  10 active torsions:
REMARK  status: ('A' for Active; 'I' for Inactive)
REMARK    1  A    between atoms: C_1  and  O_2
REMARK    2  A    between atoms: O_2  and  C_3
REMARK    3  A    between atoms: C_6  and  C_11
REMARK    4  A    between atoms: C_8  and  O_9
REMARK    5  A    between atoms: O_9  and  C_10
REMARK    6  A    between atoms: C_11  and  C_12
REMARK    7  A    between atoms: C_12  and  N_13
REMARK    8  A    between atoms: C_33  and  C_35
REMARK    9  A    between atoms: C_35  and  C_36
REMARK   10  A    between atoms: C_36  and  C_37
REMARK                            x       y       z     vdW  Elec       q    Type
REMARK                         _______ _______ _______ _____ _____    ______ ____
ROOT
ATOM      1  N   UNL     1       5.401  -3.438  -5.309  0.00  0.00    -0.291 N 
ATOM      2  C   UNL     1       5.473  -4.901  -5.478  0.00  0.00    +0.203 C 
ATOM      3  C   UNL     1       4.824  -5.266  -6.796  0.00  0.00    +0.234 C 
ATOM      4  O   UNL     1       4.064  -6.207  -6.891  0.00  0.00    -0.274 OA
ATOM      5  N   UNL     1       5.134  -4.481  -7.880  0.00  0.00    -0.283 N 
ATOM      6  C   UNL     1       6.114  -3.444  -7.636  0.00  0.00    +0.167 C 
ATOM      7  C   UNL     1       5.739  -2.678  -6.393  0.00  0.00    +0.237 C 
ATOM      8  O   UNL     1       5.739  -1.466  -6.357  0.00  0.00    -0.274 OA
ATOM      9  C   UNL     1       6.492  -2.535  -8.777  0.00  0.00    +0.065 C 
ATOM     10  C   UNL     1       5.566  -2.761  -9.940  0.00  0.00    -0.034 C 
ATOM     11  C   UNL     1       4.985  -1.926 -10.790  0.00  0.00    -0.001 A 
ATOM     12  C   UNL     1       5.067  -0.464 -10.939  0.00  0.00    +0.010 A 
ATOM     13  C   UNL     1       4.316   0.082 -11.931  0.00  0.00    +0.001 A 
ATOM     14  C   UNL     1       3.501  -0.672 -12.782  0.00  0.00    +0.002 A 
ATOM     15  C   UNL     1       3.368  -2.021 -12.720  0.00  0.00    +0.026 A 
ATOM     16  C   UNL     1       4.113  -2.708 -11.718  0.00  0.00    +0.043 A 
ATOM     17  N   UNL     1       4.182  -3.976 -11.445  0.00  0.00    -0.376 N 
ATOM     18  C   UNL     1       5.121  -4.168 -10.333  0.00  0.00    +0.127 C 
ATOM     19  C   UNL     1       4.413  -4.747  -9.117  0.00  0.00    +0.104 C 
ATOM     20  H   UNL     1       3.693  -4.680 -11.900  0.00  0.00    +0.160 HD
ENDROOT
BRANCH   1  21
ATOM     21  C   UNL     1       4.982  -2.830  -4.044  0.00  0.00    +0.113 C 
BRANCH  21  22
ATOM     22  C   UNL     1       3.464  -2.641  -4.047  0.00  0.00    +0.054 C 
BRANCH  22  26
ATOM     23  C   UNL     1       2.242  -0.860  -0.356  0.00  0.00    +0.161 A 
ATOM     24  C   UNL     1       2.578  -0.060  -1.437  0.00  0.00    +0.049 A 
ATOM     25  C   UNL     1       2.973  -0.639  -2.628  0.00  0.00    +0.007 A 
ATOM     26  C   UNL     1       3.034  -2.015  -2.745  0.00  0.00    -0.042 A 
ATOM     27  C   UNL     1       2.699  -2.818  -1.671  0.00  0.00    +0.053 A 
ATOM     28  C   UNL     1       2.309  -2.245  -0.472  0.00  0.00    +0.162 A 
BRANCH  23  30
ATOM     29  C   UNL     1       1.809   1.136   0.863  0.00  0.00    +0.277 C 
ATOM     30  O   UNL     1       1.854  -0.292   0.817  0.00  0.00    -0.491 OA
ENDBRANCH  23  30
BRANCH  28  31
ATOM     31  O   UNL     1       1.985  -3.033   0.588  0.00  0.00    -0.491 OA
ATOM     32  C   UNL     1       2.076  -4.447   0.396  0.00  0.00    +0.277 C 
ENDBRANCH  28  31
ENDBRANCH  22  26
ENDBRANCH  21  22
ENDBRANCH   1  21
BRANCH  19  33
ATOM     33  C   UNL     1       4.242  -6.259  -9.278  0.00  0.00    +0.029 C 
BRANCH  33  34
ATOM     34  C   UNL     1       5.606  -6.942  -9.158  0.00  0.00    +0.037 C 
BRANCH  34  35
ATOM     35  C   UNL     1       5.456  -8.415  -9.439  0.00  0.00    -0.047 A 
ATOM     36  C   UNL     1       5.179  -9.291  -8.406  0.00  0.00    +0.003 A 
ATOM     37  C   UNL     1       5.042 -10.642  -8.664  0.00  0.00    +0.000 A 
ATOM     38  C   UNL     1       5.181 -11.117  -9.955  0.00  0.00    +0.000 A 
ATOM     39  C   UNL     1       5.457 -10.241 -10.988  0.00  0.00    +0.000 A 
ATOM     40  C   UNL     1       5.590  -8.889 -10.731  0.00  0.00    +0.003 A 
ENDBRANCH  34  35
ENDBRANCH  33  34
ENDBRANCH  19  33
TORSDOF 8
