REMARK  Name = ZINC63896767
REMARK  7 active torsions:
REMARK  status: ('A' for Active; 'I' for Inactive)
REMARK    1  A    between atoms: C_7  and  C_10
REMARK    2  A    between atoms: C_13  and  S_18
REMARK    3  A    between atoms: N_14  and  C_15
REMARK    4  A    between atoms: S_18  and  C_19
REMARK    5  A    between atoms: C_19  and  C_20
REMARK    6  A    between atoms: N_22  and  C_23
REMARK    7  A    between atoms: C_25  and  C_34
REMARK                            x       y       z     vdW  Elec       q    Type
REMARK                         _______ _______ _______ _____ _____    ______ ____
ROOT
ATOM      1  S   UNL     1      -0.644  -6.671  -0.746  0.00  0.00    -0.077 S 
ENDROOT
BRANCH   1   5
ATOM      2  C   UNL     1       0.399  -3.031  -1.729  0.00  0.00    +0.163 A 
ATOM      3  N   UNL     1      -0.741  -2.840  -1.080  0.00  0.00    -0.129 NA
ATOM      4  N   UNL     1      -1.212  -3.970  -0.689  0.00  0.00    -0.122 NA
ATOM      5  C   UNL     1      -0.406  -4.954  -1.060  0.00  0.00    +0.193 A 
ATOM      6  N   UNL     1       0.636  -4.395  -1.735  0.00  0.00    -0.299 N 
BRANCH   2  13
ATOM      7  C   UNL     1      -0.010   1.482  -1.930  0.00  0.00    +0.001 A 
ATOM      8  C   UNL     1       1.037   2.109  -2.611  0.00  0.00    +0.002 A 
ATOM      9  C   UNL     1       2.063   1.405  -3.148  0.00  0.00    +0.026 A 
ATOM     10  C   UNL     1       2.090  -0.009  -3.025  0.00  0.00    +0.043 A 
ATOM     11  N   UNL     1       2.959  -0.904  -3.451  0.00  0.00    -0.380 N 
ATOM     12  C   UNL     1       2.508  -2.242  -3.054  0.00  0.00    +0.152 C 
ATOM     13  C   UNL     1       1.209  -2.040  -2.305  0.00  0.00    +0.025 C 
ATOM     14  C   UNL     1       0.985  -0.664  -2.307  0.00  0.00    +0.006 A 
ATOM     15  C   UNL     1      -0.050   0.134  -1.774  0.00  0.00    +0.010 A 
ATOM     16  H   UNL     1       3.768  -0.710  -3.949  0.00  0.00    +0.160 HD
ENDBRANCH   2  13
BRANCH   6  17
ATOM     17  C   UNL     1       1.773  -5.092  -2.340  0.00  0.00    +0.091 C 
ATOM     18  C   UNL     1       1.638  -6.599  -2.567  0.00  0.00    +0.027 C 
ATOM     19  C   UNL     1       2.551  -6.071  -1.458  0.00  0.00    +0.027 C 
ENDBRANCH   6  17
ENDBRANCH   1   5
BRANCH   1  20
ATOM     20  C   UNL     1      -2.205  -6.737   0.175  0.00  0.00    +0.173 C 
BRANCH  20  21
ATOM     21  C   UNL     1      -2.530  -8.169   0.512  0.00  0.00    +0.224 C 
ATOM     22  O   UNL     1      -1.782  -9.058   0.165  0.00  0.00    -0.275 OA
ATOM     23  N   UNL     1      -3.652  -8.462   1.199  0.00  0.00    -0.299 N 
ATOM     24  H   UNL     1      -4.250  -7.751   1.476  0.00  0.00    +0.150 HD
BRANCH  23  25
ATOM     25  C   UNL     1      -3.967  -9.855   1.526  0.00  0.00    +0.167 C 
ATOM     26  C   UNL     1      -4.928  -9.937   2.698  0.00  0.00    +0.045 C 
ATOM     27  C   UNL     1      -4.662 -10.765   3.676  0.00  0.00    -0.046 C 
ATOM     28  C   UNL     1      -5.462 -10.885   4.973  0.00  0.00    +0.032 C 
ATOM     29  C   UNL     1      -4.971 -12.157   5.670  0.00  0.00    +0.004 C 
ATOM     30  C   UNL     1      -3.487 -12.090   5.998  0.00  0.00    +0.002 C 
ATOM     31  C   UNL     1      -2.657 -11.466   4.880  0.00  0.00    +0.018 C 
ATOM     32  C   UNL     1      -3.394 -11.623   3.548  0.00  0.00    +0.075 C 
ATOM     33  S   UNL     1      -2.495 -10.726   2.218  0.00  0.00    -0.126 S 
BRANCH  26  34
ATOM     34  C   UNL     1      -6.138  -9.101   2.734  0.00  0.00    +0.240 C 
ATOM     35  O   UNL     1      -6.858  -9.116   3.714  0.00  0.00    -0.271 OA
ATOM     36  N   UNL     1      -6.448  -8.319   1.681  0.00  0.00    -0.326 N 
ATOM     37  H   UNL     1      -5.837  -8.250   0.931  0.00  0.00    +0.145 HD
ATOM     38  H   UNL     1      -7.283  -7.825   1.673  0.00  0.00    +0.145 HD
ENDBRANCH  26  34
ENDBRANCH  23  25
ENDBRANCH  20  21
ENDBRANCH   1  20
TORSDOF 7
