REMARK  Name = ZINC39667563
REMARK  7 active torsions:
REMARK  status: ('A' for Active; 'I' for Inactive)
REMARK    1  A    between atoms: C_1  and  C_2
REMARK    2  A    between atoms: C_6  and  C_9
REMARK    3  A    between atoms: C_7  and  C_8
REMARK    4  A    between atoms: C_9  and  N_10
REMARK    5  A    between atoms: C_11  and  C_13
REMARK    6  A    between atoms: C_24  and  C_26
REMARK    7  A    between atoms: C_30  and  C_33
REMARK                            x       y       z     vdW  Elec       q    Type
REMARK                         _______ _______ _______ _____ _____    ______ ____
ROOT
ATOM      1  C   UNL     1      -2.927  -3.595   4.770  0.00  0.00    +0.100 C 
ATOM      2  C   UNL     1      -3.889  -4.262   3.761  0.00  0.00    +0.121 C 
ATOM      3  N   UNL     1      -3.932  -5.686   4.169  0.00  0.00    -0.296 N 
ATOM      4  C   UNL     1      -3.937  -5.644   5.651  0.00  0.00    +0.115 C 
ATOM      5  C   UNL     1      -2.965  -4.503   6.011  0.00  0.00    -0.004 C 
ATOM      6  C   UNL     1      -3.483  -3.728   7.218  0.00  0.00    -0.010 C 
ATOM      7  C   UNL     1      -3.456  -4.634   8.451  0.00  0.00    -0.082 C 
ATOM      8  N   UNL     1      -2.083  -5.095   8.693  0.00  0.00    +0.379 N 
ATOM      9  C   UNL     1      -1.626  -5.918   7.567  0.00  0.00    -0.082 C 
ATOM     10  C   UNL     1      -1.575  -5.065   6.296  0.00  0.00    -0.010 C 
ATOM     11  C   UNL     1      -3.960  -6.773   3.373  0.00  0.00    +0.251 C 
ATOM     12  O   UNL     1      -3.994  -7.885   3.864  0.00  0.00    -0.270 OA
ATOM     13  H   UNL     1      -1.475  -4.296   8.793  0.00  0.00    -0.086 HD
ATOM     14  H   UNL     1      -2.057  -5.642   9.540  0.00  0.00    -0.086 HD
ENDROOT
BRANCH  11  15
ATOM     15  C   UNL     1      -3.948  -6.614   1.906  0.00  0.00    +0.091 A 
ATOM     16  C   UNL     1      -2.735  -6.579   1.212  0.00  0.00    +0.056 A 
ATOM     17  C   UNL     1      -2.732  -6.430  -0.160  0.00  0.00    +0.021 A 
ATOM     18  C   UNL     1      -3.926  -6.315  -0.850  0.00  0.00    +0.007 A 
ATOM     19  C   UNL     1      -5.131  -6.348  -0.173  0.00  0.00    -0.014 A 
ATOM     20  C   UNL     1      -5.151  -6.503   1.201  0.00  0.00    +0.140 A 
ATOM     21  F   UNL     1      -6.329  -6.540   1.862  0.00  0.00    -0.204 F 
ATOM     22  C   UNL     1      -6.426  -6.221  -0.934  0.00  0.00    +0.047 C 
ATOM     23 CL   UNL     1      -1.235  -6.722   2.075  0.00  0.00    -0.083 Cl
ENDBRANCH  11  15
BRANCH   1  25
ATOM     24  N   UNL     1      -0.681  -2.572   4.608  0.00  0.00    -0.311 N 
ATOM     25  C   UNL     1      -1.531  -3.536   4.205  0.00  0.00    +0.218 C 
ATOM     26  O   UNL     1      -1.173  -4.357   3.387  0.00  0.00    -0.275 OA
ATOM     27  H   UNL     1      -0.968  -1.915   5.262  0.00  0.00    +0.149 HD
BRANCH  24  28
ATOM     28  C   UNL     1       0.676  -2.515   4.058  0.00  0.00    +0.139 C 
BRANCH  28  34
ATOM     29  C   UNL     1       3.249  -0.532   7.866  0.00  0.00    +0.044 C 
ATOM     30  C   UNL     1       2.647  -0.404   6.490  0.00  0.00    -0.047 A 
ATOM     31  C   UNL     1       2.774   0.780   5.788  0.00  0.00    +0.003 A 
ATOM     32  C   UNL     1       2.222   0.898   4.526  0.00  0.00    +0.001 A 
ATOM     33  C   UNL     1       1.543  -0.169   3.966  0.00  0.00    +0.005 A 
ATOM     34  C   UNL     1       1.416  -1.352   4.668  0.00  0.00    -0.027 A 
ATOM     35  C   UNL     1       1.972  -1.472   5.928  0.00  0.00    -0.043 A 
ATOM     36  C   UNL     1       1.839  -2.764   6.691  0.00  0.00    +0.044 C 
ENDBRANCH  28  34
ENDBRANCH  24  28
ENDBRANCH   1  25
TORSDOF 4
