REMARK  Name = ZINC01055119
REMARK  6 active torsions:
REMARK  status: ('A' for Active; 'I' for Inactive)
REMARK    1  A    between atoms: C_4  and  N_7
REMARK    2  A    between atoms: N_7  and  C_8
REMARK    3  A    between atoms: C_17  and  N_32
REMARK    4  A    between atoms: C_18  and  C_30
REMARK    5  A    between atoms: C_19  and  C_21
REMARK    6  A    between atoms: C_26  and  N_27
REMARK                            x       y       z     vdW  Elec       q    Type
REMARK                         _______ _______ _______ _____ _____    ______ ____
ROOT
ATOM      1  C   UNL     1       5.696  -0.665  -2.010  0.00  0.00    +0.083 C 
ATOM      2  C   UNL     1       6.681  -1.648  -1.909  0.00  0.00    +0.032 C 
ATOM      3  C   UNL     1       7.990  -1.387  -2.371  0.00  0.00    +0.016 C 
ATOM      4  C   UNL     1       8.945  -2.344  -2.272  0.00  0.00    +0.052 C 
ATOM      5  C   UNL     1       8.635  -3.598  -1.709  0.00  0.00    +0.187 C 
ATOM      6  O   UNL     1       9.503  -4.457  -1.622  0.00  0.00    -0.287 OA
ATOM      7  C   UNL     1       7.335  -3.868  -1.248  0.00  0.00    +0.055 C 
ATOM      8  C   UNL     1       6.369  -2.911  -1.337  0.00  0.00    +0.146 C 
ATOM      9  O   UNL     1       5.112  -3.143  -0.897  0.00  0.00    -0.440 OA
ATOM     10  C   UNL     1       4.878  -4.135  -0.021  0.00  0.00    +0.199 C 
ATOM     11  C   UNL     1       5.756  -5.152   0.149  0.00  0.00    +0.098 C 
ATOM     12  C   UNL     1       7.030  -5.217  -0.652  0.00  0.00    +0.104 C 
ENDROOT
BRANCH  12  13
ATOM     13  C   UNL     1       6.893  -6.232  -1.758  0.00  0.00    -0.004 A 
ATOM     14  C   UNL     1       6.012  -6.005  -2.799  0.00  0.00    +0.007 A 
ATOM     15  C   UNL     1       5.887  -6.936  -3.813  0.00  0.00    +0.000 A 
ATOM     16  C   UNL     1       6.643  -8.093  -3.787  0.00  0.00    +0.002 A 
ATOM     17  C   UNL     1       7.525  -8.319  -2.747  0.00  0.00    +0.033 A 
ATOM     18  C   UNL     1       7.653  -7.386  -1.735  0.00  0.00    +0.130 A 
BRANCH  18  19
ATOM     19  N   UNL     1       8.601  -7.625  -0.623  0.00  0.00    +0.057 N 
ATOM     20  O   UNL     1       9.682  -8.120  -0.847  0.00  0.00    -0.126 OA
ATOM     21  O   UNL     1       8.295  -7.327   0.507  0.00  0.00    -0.126 OA
ENDBRANCH  18  19
ENDBRANCH  12  13
BRANCH  10  22
ATOM     22  N   UNL     1       3.722  -4.117   0.719  0.00  0.00    -0.328 N 
ATOM     23  H   UNL     1       3.085  -3.393   0.606  0.00  0.00    +0.145 HD
ATOM     24  H   UNL     1       3.541  -4.827   1.354  0.00  0.00    +0.145 HD
ENDBRANCH  10  22
BRANCH   1  25
ATOM     25  N   UNL     1       5.991   0.529  -2.551  0.00  0.00    -0.320 N 
ATOM     26  H   UNL     1       6.889   0.708  -2.872  0.00  0.00    +0.152 HD
BRANCH  25  30
ATOM     27  C   UNL     1       3.052   3.463  -2.853  0.00  0.00    +0.000 A 
ATOM     28  C   UNL     1       4.332   3.720  -3.309  0.00  0.00    +0.002 A 
ATOM     29  C   UNL     1       5.309   2.749  -3.211  0.00  0.00    +0.023 A 
ATOM     30  C   UNL     1       5.005   1.514  -2.652  0.00  0.00    +0.031 A 
ATOM     31  C   UNL     1       3.718   1.260  -2.194  0.00  0.00    +0.023 A 
ATOM     32  C   UNL     1       2.746   2.235  -2.296  0.00  0.00    +0.002 A 
ENDBRANCH  25  30
ENDBRANCH   1  25
BRANCH  11  33
ATOM     33  C   UNL     1       5.462  -6.186   1.096  0.00  0.00    +0.101 C 
ATOM     34  N   UNL     1       5.230  -7.006   1.847  0.00  0.00    -0.191 NA
ENDBRANCH  11  33
TORSDOF 6
