REMARK  Name = ZINC39674268
REMARK  8 active torsions:
REMARK  status: ('A' for Active; 'I' for Inactive)
REMARK    1  A    between atoms: C_1  and  C_2
REMARK    2  A    between atoms: C_4  and  C_9
REMARK    3  A    between atoms: C_5  and  C_8
REMARK    4  A    between atoms: C_9  and  C_11
REMARK    5  A    between atoms: C_9  and  N_12
REMARK    6  A    between atoms: C_13  and  C_15
REMARK    7  A    between atoms: C_26  and  C_28
REMARK    8  A    between atoms: C_32  and  C_34
REMARK                            x       y       z     vdW  Elec       q    Type
REMARK                         _______ _______ _______ _____ _____    ______ ____
ROOT
ATOM      1  C   UNL     1      -4.085   2.762  -1.217  0.00  0.00    +0.100 C 
ATOM      2  C   UNL     1      -3.666   3.837  -0.190  0.00  0.00    +0.121 C 
ATOM      3  N   UNL     1      -4.756   4.840  -0.232  0.00  0.00    -0.296 N 
ATOM      4  C   UNL     1      -5.994   4.034  -0.360  0.00  0.00    +0.115 C 
ATOM      5  C   UNL     1      -5.613   2.893  -1.325  0.00  0.00    -0.004 C 
ATOM      6  C   UNL     1      -6.287   1.593  -0.897  0.00  0.00    -0.010 C 
ATOM      7  C   UNL     1      -7.803   1.729  -1.069  0.00  0.00    -0.082 C 
ATOM      8  N   UNL     1      -8.113   2.025  -2.473  0.00  0.00    +0.379 N 
ATOM      9  C   UNL     1      -7.539   3.322  -2.850  0.00  0.00    -0.082 C 
ATOM     10  C   UNL     1      -6.012   3.254  -2.753  0.00  0.00    -0.010 C 
ATOM     11  C   UNL     1      -4.647   6.182  -0.168  0.00  0.00    +0.247 C 
ATOM     12  O   UNL     1      -3.549   6.703  -0.164  0.00  0.00    -0.270 OA
ATOM     13  H   UNL     1      -7.725   1.303  -3.061  0.00  0.00    -0.086 HD
ATOM     14  H   UNL     1      -9.114   2.053  -2.596  0.00  0.00    -0.086 HD
ENDROOT
BRANCH  11  15
ATOM     15  C   UNL     1      -5.863   7.019  -0.103  0.00  0.00    +0.038 A 
ATOM     16  C   UNL     1      -7.067   6.473   0.346  0.00  0.00    +0.016 A 
ATOM     17  C   UNL     1      -8.198   7.258   0.405  0.00  0.00    +0.039 A 
ATOM     18  C   UNL     1      -8.141   8.589   0.018  0.00  0.00    +0.135 A 
ATOM     19  C   UNL     1      -6.948   9.137  -0.428  0.00  0.00    +0.091 A 
ATOM     20  C   UNL     1      -5.810   8.361  -0.485  0.00  0.00    +0.028 A 
ATOM     21  F   UNL     1      -9.253   9.355   0.077  0.00  0.00    -0.205 F 
BRANCH  19  22
ATOM     22  C   UNL     1      -6.895  10.583  -0.847  0.00  0.00    +0.420 C 
ATOM     23  F   UNL     1      -5.596  10.903  -1.256  0.00  0.00    -0.166 F 
ATOM     24  F   UNL     1      -7.783  10.796  -1.907  0.00  0.00    -0.166 F 
ATOM     25  F   UNL     1      -7.256  11.395   0.234  0.00  0.00    -0.166 F 
ENDBRANCH  19  22
ENDBRANCH  11  15
BRANCH   1  27
ATOM     26  N   UNL     1      -3.445   0.404  -1.601  0.00  0.00    -0.309 N 
ATOM     27  C   UNL     1      -3.710   1.389  -0.721  0.00  0.00    +0.219 C 
ATOM     28  O   UNL     1      -3.648   1.170   0.470  0.00  0.00    -0.275 OA
ATOM     29  H   UNL     1      -3.495   0.578  -2.554  0.00  0.00    +0.149 HD
BRANCH  26  30
ATOM     30  C   UNL     1      -3.081  -0.931  -1.119  0.00  0.00    +0.100 C 
ATOM     31  C   UNL     1      -4.351  -1.721  -0.796  0.00  0.00    +0.033 C 
BRANCH  30  34
ATOM     32  C   UNL     1      -3.045  -0.733  -4.395  0.00  0.00    +0.039 C 
ATOM     33  C   UNL     1      -2.739  -2.001  -3.596  0.00  0.00    +0.154 C 
ATOM     34  C   UNL     1      -2.298  -1.654  -2.185  0.00  0.00    -0.001 C 
ATOM     35  C   UNL     1      -1.056  -2.137  -2.109  0.00  0.00    +0.063 C 
ATOM     36  N   UNL     1      -0.696  -2.722  -3.272  0.00  0.00    -0.159 NA
ATOM     37  N   UNL     1      -1.565  -2.696  -4.152  0.00  0.00    -0.180 NA
ATOM     38  C   UNL     1      -0.175  -2.043  -0.889  0.00  0.00    +0.067 C 
ENDBRANCH  30  34
ENDBRANCH  26  30
ENDBRANCH   1  27
TORSDOF 5
