REMARK  Name = ZINC12951598
REMARK  9 active torsions:
REMARK  status: ('A' for Active; 'I' for Inactive)
REMARK    1  A    between atoms: C_1  and  O_2
REMARK    2  A    between atoms: O_2  and  C_3
REMARK    3  A    between atoms: C_8  and  O_9
REMARK    4  A    between atoms: O_9  and  C_10
REMARK    5  A    between atoms: C_12  and  S_23
REMARK    6  A    between atoms: N_13  and  C_15
REMARK    7  A    between atoms: C_15  and  C_16
REMARK    8  A    between atoms: S_23  and  C_24
REMARK    9  A    between atoms: C_24  and  C_25
REMARK                            x       y       z     vdW  Elec       q    Type
REMARK                         _______ _______ _______ _____ _____    ______ ____
ROOT
ATOM      1  C   UNL     1      -1.719   0.391  -0.117  0.00  0.00    +0.162 A 
ATOM      2  C   UNL     1      -0.363   0.144  -0.194  0.00  0.00    +0.063 A 
ATOM      3  C   UNL     1       0.537   1.201  -0.081  0.00  0.00    +0.044 A 
ATOM      4  C   UNL     1       0.066   2.518   0.113  0.00  0.00    +0.081 A 
ATOM      5  C   UNL     1      -1.308   2.750   0.189  0.00  0.00    +0.078 A 
ATOM      6  C   UNL     1      -2.190   1.692   0.075  0.00  0.00    +0.164 A 
ATOM      7  N   UNL     1       0.958   3.535   0.222  0.00  0.00    -0.223 NA
ATOM      8  C   UNL     1       2.249   3.337   0.154  0.00  0.00    +0.171 A 
ATOM      9  N   UNL     1       2.806   2.102  -0.032  0.00  0.00    -0.302 N 
ATOM     10  C   UNL     1       1.993   0.988  -0.157  0.00  0.00    +0.116 A 
ATOM     11  H   UNL     1       1.992  -1.035  -0.432  0.00  0.00    +0.157 HD
ATOM     12  N   UNL     1       2.568  -0.198  -0.336  0.00  0.00    -0.384 N 
ATOM     13  H   UNL     1       3.591  -0.272  -0.379  0.00  0.00    +0.157 HD
ENDROOT
BRANCH   1  15
ATOM     14  C   UNL     1      -2.055  -1.944  -0.421  0.00  0.00    +0.277 C 
ATOM     15  O   UNL     1      -2.602  -0.639  -0.226  0.00  0.00    -0.491 OA
ENDBRANCH   1  15
BRANCH   6  16
ATOM     16  O   UNL     1      -3.527   1.920   0.149  0.00  0.00    -0.491 OA
ATOM     17  C   UNL     1      -3.945   3.272   0.346  0.00  0.00    +0.277 C 
ENDBRANCH   6  16
BRANCH   9  18
ATOM     18  C   UNL     1       4.262   1.957  -0.098  0.00  0.00    +0.162 C 
BRANCH  18  19
ATOM     19  C   UNL     1       4.707   2.003  -1.537  0.00  0.00    -0.009 A 
ATOM     20  C   UNL     1       4.825   3.218  -2.185  0.00  0.00    +0.007 A 
ATOM     21  C   UNL     1       5.232   3.261  -3.505  0.00  0.00    +0.000 A 
ATOM     22  C   UNL     1       5.523   2.088  -4.178  0.00  0.00    +0.001 A 
ATOM     23  C   UNL     1       5.405   0.873  -3.531  0.00  0.00    +0.020 A 
ATOM     24  C   UNL     1       5.002   0.830  -2.208  0.00  0.00    +0.046 A 
ATOM     25 CL   UNL     1       4.862  -0.696  -1.392  0.00  0.00    -0.083 Cl
ENDBRANCH  18  19
ENDBRANCH   9  18
BRANCH   8  26
ATOM     26  S   UNL     1       3.322   4.727   0.307  0.00  0.00    -0.083 S 
BRANCH  26  27
ATOM     27  C   UNL     1       2.100   6.044   0.525  0.00  0.00    +0.114 C 
BRANCH  27  28
ATOM     28  C   UNL     1       2.808   7.365   0.680  0.00  0.00    -0.019 A 
ATOM     29  C   UNL     1       3.094   8.132  -0.434  0.00  0.00    +0.007 A 
ATOM     30  C   UNL     1       3.743   9.344  -0.292  0.00  0.00    +0.020 A 
ATOM     31  C   UNL     1       4.106   9.791   0.966  0.00  0.00    +0.042 A 
ATOM     32  C   UNL     1       3.820   9.025   2.082  0.00  0.00    +0.040 A 
ATOM     33  C   UNL     1       3.166   7.814   1.939  0.00  0.00    +0.046 A 
ATOM     34 CL   UNL     1       2.800   6.855   3.339  0.00  0.00    -0.083 Cl
ATOM     35 CL   UNL     1       4.922  11.313   1.144  0.00  0.00    -0.083 Cl
ENDBRANCH  27  28
ENDBRANCH  26  27
ENDBRANCH   8  26
TORSDOF 7
