REMARK  Name = ZINC39676965
REMARK  8 active torsions:
REMARK  status: ('A' for Active; 'I' for Inactive)
REMARK    1  A    between atoms: C_1  and  C_2
REMARK    2  A    between atoms: C_5  and  C_34
REMARK    3  A    between atoms: C_6  and  C_8
REMARK    4  A    between atoms: C_8  and  C_9
REMARK    5  A    between atoms: C_9  and  N_10
REMARK    6  A    between atoms: C_11  and  C_13
REMARK    7  A    between atoms: C_24  and  C_26
REMARK    8  A    between atoms: C_29  and  C_33
REMARK                            x       y       z     vdW  Elec       q    Type
REMARK                         _______ _______ _______ _____ _____    ______ ____
ROOT
ATOM      1  C   UNL     1       2.449  -5.397   6.523  0.00  0.00    +0.100 C 
ATOM      2  C   UNL     1       1.639  -6.626   6.053  0.00  0.00    +0.121 C 
ATOM      3  N   UNL     1       2.664  -7.626   5.670  0.00  0.00    -0.296 N 
ATOM      4  C   UNL     1       3.723  -7.481   6.697  0.00  0.00    +0.115 C 
ATOM      5  C   UNL     1       3.815  -5.963   6.948  0.00  0.00    -0.004 C 
ATOM      6  C   UNL     1       4.064  -5.686   8.428  0.00  0.00    -0.010 C 
ATOM      7  C   UNL     1       5.452  -6.206   8.813  0.00  0.00    -0.082 C 
ATOM      8  N   UNL     1       6.471  -5.541   7.992  0.00  0.00    +0.379 N 
ATOM      9  C   UNL     1       6.279  -5.888   6.579  0.00  0.00    -0.082 C 
ATOM     10  C   UNL     1       4.926  -5.355   6.099  0.00  0.00    -0.010 C 
ATOM     11  C   UNL     1       2.639  -8.474   4.623  0.00  0.00    +0.247 C 
ATOM     12  O   UNL     1       1.757  -8.388   3.791  0.00  0.00    -0.270 OA
ATOM     13  H   UNL     1       6.392  -4.542   8.105  0.00  0.00    -0.086 HD
ATOM     14  H   UNL     1       7.388  -5.840   8.289  0.00  0.00    -0.086 HD
ENDROOT
BRANCH  11  15
ATOM     15  C   UNL     1       3.685  -9.510   4.486  0.00  0.00    +0.040 A 
ATOM     16  C   UNL     1       4.424  -9.911   5.600  0.00  0.00    +0.013 A 
ATOM     17  C   UNL     1       5.398 -10.879   5.467  0.00  0.00    +0.007 A 
ATOM     18  C   UNL     1       5.645 -11.453   4.233  0.00  0.00    -0.015 A 
ATOM     19  C   UNL     1       4.915 -11.060   3.122  0.00  0.00    +0.127 A 
ATOM     20  C   UNL     1       3.933 -10.096   3.244  0.00  0.00    +0.051 A 
ATOM     21  F   UNL     1       5.162 -11.624   1.920  0.00  0.00    -0.205 F 
ATOM     22  C   UNL     1       6.711 -12.509   4.096  0.00  0.00    +0.047 C 
ENDBRANCH  11  15
BRANCH   1  24
ATOM     23  N   UNL     1       2.849  -3.115   5.657  0.00  0.00    -0.315 N 
ATOM     24  C   UNL     1       2.617  -4.416   5.392  0.00  0.00    +0.218 C 
ATOM     25  O   UNL     1       2.544  -4.797   4.243  0.00  0.00    -0.275 OA
ATOM     26  H   UNL     1       2.908  -2.810   6.576  0.00  0.00    +0.149 HD
BRANCH  23  27
ATOM     27  C   UNL     1       3.013  -2.161   4.557  0.00  0.00    +0.109 C 
BRANCH  27  28
ATOM     28  C   UNL     1       3.263  -0.763   5.127  0.00  0.00    +0.054 C 
BRANCH  28  34
ATOM     29  C   UNL     1       6.230   1.788   2.007  0.00  0.00    +0.044 C 
ATOM     30  C   UNL     1       4.851   1.439   2.504  0.00  0.00    -0.050 A 
ATOM     31  C   UNL     1       3.739   2.019   1.921  0.00  0.00    +0.003 A 
ATOM     32  C   UNL     1       2.474   1.699   2.377  0.00  0.00    +0.004 A 
ATOM     33  C   UNL     1       2.320   0.799   3.414  0.00  0.00    -0.047 A 
ATOM     34  C   UNL     1       3.431   0.218   3.996  0.00  0.00    -0.043 A 
ATOM     35  C   UNL     1       4.696   0.534   3.538  0.00  0.00    +0.007 A 
ATOM     36  C   UNL     1       0.940   0.451   3.911  0.00  0.00    +0.044 C 
ENDBRANCH  28  34
ENDBRANCH  27  28
ENDBRANCH  23  27
ENDBRANCH   1  24
TORSDOF 5
