REMARK  Name = ZINC39695954
REMARK  7 active torsions:
REMARK  status: ('A' for Active; 'I' for Inactive)
REMARK    1  A    between atoms: C_1  and  C_2
REMARK    2  A    between atoms: C_2  and  C_3
REMARK    3  A    between atoms: C_6  and  C_9
REMARK    4  A    between atoms: C_9  and  C_11
REMARK    5  A    between atoms: C_9  and  N_12
REMARK    6  A    between atoms: C_13  and  C_15
REMARK    7  A    between atoms: C_26  and  C_28
REMARK                            x       y       z     vdW  Elec       q    Type
REMARK                         _______ _______ _______ _____ _____    ______ ____
ROOT
ATOM      1  C   UNL     1       1.982  -4.406   7.162  0.00  0.00    +0.100 C 
ATOM      2  C   UNL     1       0.871  -3.988   8.152  0.00  0.00    +0.121 C 
ATOM      3  N   UNL     1       0.880  -5.045   9.191  0.00  0.00    -0.296 N 
ATOM      4  C   UNL     1       2.316  -5.348   9.397  0.00  0.00    +0.115 C 
ATOM      5  C   UNL     1       2.928  -5.298   7.983  0.00  0.00    -0.004 C 
ATOM      6  C   UNL     1       4.323  -4.681   8.034  0.00  0.00    -0.010 C 
ATOM      7  C   UNL     1       5.260  -5.614   8.806  0.00  0.00    -0.082 C 
ATOM      8  N   UNL     1       5.306  -6.923   8.143  0.00  0.00    +0.379 N 
ATOM      9  C   UNL     1       3.979  -7.550   8.181  0.00  0.00    -0.082 C 
ATOM     10  C   UNL     1       2.987  -6.699   7.382  0.00  0.00    -0.010 C 
ATOM     11  C   UNL     1      -0.180  -5.604   9.809  0.00  0.00    +0.247 C 
ATOM     12  O   UNL     1      -1.307  -5.340   9.440  0.00  0.00    -0.270 OA
ATOM     13  H   UNL     1       5.592  -6.803   7.183  0.00  0.00    -0.086 HD
ATOM     14  H   UNL     1       5.970  -7.516   8.617  0.00  0.00    -0.086 HD
ENDROOT
BRANCH  11  15
ATOM     15  C   UNL     1       0.030  -6.538  10.935  0.00  0.00    +0.037 A 
ATOM     16  C   UNL     1       1.240  -6.505  11.652  0.00  0.00    +0.013 A 
ATOM     17  C   UNL     1       1.456  -7.353  12.690  0.00  0.00    +0.009 A 
ATOM     18  C   UNL     1       0.464  -8.280  13.060  0.00  0.00    -0.018 A 
ATOM     19  C   UNL     1       0.665  -9.167  14.131  0.00  0.00    +0.008 A 
ATOM     20  C   UNL     1      -0.313 -10.052  14.467  0.00  0.00    +0.001 A 
ATOM     21  C   UNL     1      -1.516 -10.095  13.763  0.00  0.00    +0.001 A 
ATOM     22  C   UNL     1      -1.747  -9.251  12.721  0.00  0.00    +0.008 A 
ATOM     23  C   UNL     1      -0.759  -8.322  12.345  0.00  0.00    -0.017 A 
ATOM     24  C   UNL     1      -0.968  -7.434  11.279  0.00  0.00    +0.021 A 
ENDBRANCH  11  15
BRANCH   1  26
ATOM     25  N   UNL     1       3.258  -3.200   5.419  0.00  0.00    -0.308 N 
ATOM     26  C   UNL     1       2.715  -3.192   6.652  0.00  0.00    +0.219 C 
ATOM     27  O   UNL     1       2.816  -2.206   7.352  0.00  0.00    -0.275 OA
ATOM     28  H   UNL     1       3.177  -3.989   4.859  0.00  0.00    +0.149 HD
BRANCH  25  29
ATOM     29  C   UNL     1       3.970  -2.020   4.924  0.00  0.00    +0.100 C 
ATOM     30  C   UNL     1       2.968  -1.037   4.316  0.00  0.00    +0.033 C 
BRANCH  29  34
ATOM     31  C   UNL     1       6.791  -3.207   1.944  0.00  0.00    -0.048 A 
ATOM     32  C   UNL     1       7.129  -2.236   2.867  0.00  0.00    +0.004 A 
ATOM     33  C   UNL     1       6.216  -1.851   3.832  0.00  0.00    +0.006 A 
ATOM     34  C   UNL     1       4.965  -2.438   3.872  0.00  0.00    -0.027 A 
ATOM     35  C   UNL     1       4.627  -3.409   2.948  0.00  0.00    +0.006 A 
ATOM     36  C   UNL     1       5.539  -3.791   1.981  0.00  0.00    +0.004 A 
BRANCH  31  38
ATOM     37  C   UNL     1       7.621  -2.745  -0.347  0.00  0.00    +0.009 C 
ATOM     38  C   UNL     1       7.787  -3.626   0.893  0.00  0.00    +0.032 C 
ENDBRANCH  31  38
ENDBRANCH  29  34
ENDBRANCH  25  29
ENDBRANCH   1  26
TORSDOF 5
