REMARK  Name = ZINC45513301
REMARK  7 active torsions:
REMARK  status: ('A' for Active; 'I' for Inactive)
REMARK    1  A    between atoms: C_1  and  C_2
REMARK    2  A    between atoms: C_2  and  C_3
REMARK    3  A    between atoms: C_3  and  C_31
REMARK    4  A    between atoms: N_6  and  N_10
REMARK    5  A    between atoms: C_11  and  C_13
REMARK    6  A    between atoms: C_13  and  N_14
REMARK    7  A    between atoms: C_17  and  N_20
REMARK                            x       y       z     vdW  Elec       q    Type
REMARK                         _______ _______ _______ _____ _____    ______ ____
ROOT
ATOM      1  N   UNL     1       4.823  -5.303  -1.478  0.00  0.00    +0.386 N 
ATOM      2  C   UNL     1       5.867  -4.298  -1.708  0.00  0.00    -0.076 C 
ATOM      3  C   UNL     1       6.403  -4.431  -3.136  0.00  0.00    +0.006 C 
ATOM      4  C   UNL     1       6.991  -5.832  -3.326  0.00  0.00    +0.089 C 
ATOM      5  C   UNL     1       5.914  -6.874  -3.011  0.00  0.00    +0.006 C 
ATOM      6  C   UNL     1       5.396  -6.650  -1.589  0.00  0.00    -0.076 C 
ATOM      7  H   UNL     1       4.094  -5.192  -2.167  0.00  0.00    -0.081 HD
ENDROOT
BRANCH   4   8
ATOM      8  N   UNL     1       7.437  -5.992  -4.712  0.00  0.00    -0.289 N 
ATOM      9  C   UNL     1       8.737  -6.275  -5.123  0.00  0.00    +0.070 A 
ATOM     10  C   UNL     1       9.927  -6.481  -4.441  0.00  0.00    +0.028 A 
ATOM     11  C   UNL     1      11.085  -6.750  -5.144  0.00  0.00    +0.002 A 
ATOM     12  C   UNL     1      11.063  -6.814  -6.526  0.00  0.00    +0.002 A 
ATOM     13  C   UNL     1       9.883  -6.611  -7.215  0.00  0.00    +0.028 A 
ATOM     14  C   UNL     1       8.715  -6.341  -6.517  0.00  0.00    +0.067 A 
ATOM     15  N   UNL     1       7.402  -6.096  -6.911  0.00  0.00    -0.306 N 
ATOM     16  H   UNL     1       7.077  -6.077  -7.825  0.00  0.00    +0.170 HD
ATOM     17  C   UNL     1       6.658  -5.896  -5.806  0.00  0.00    +0.328 A 
ATOM     18  O   UNL     1       5.464  -5.661  -5.799  0.00  0.00    -0.247 OA
ENDBRANCH   4   8
BRANCH   1  19
ATOM     19  C   UNL     1       4.258  -5.122  -0.135  0.00  0.00    +0.020 C 
BRANCH  19  21
ATOM     20  N   UNL     1       2.965  -3.403   1.087  0.00  0.00    -0.225 N 
ATOM     21  C   UNL     1       3.562  -3.787  -0.059  0.00  0.00    +0.213 C 
ATOM     22  O   UNL     1       3.539  -3.059  -1.028  0.00  0.00    -0.276 OA
ATOM     23  H   UNL     1       2.984  -3.985   1.863  0.00  0.00    +0.173 HD
BRANCH  20  27
ATOM     24  C   UNL     1       0.742  -0.511   1.242  0.00  0.00    +0.111 C 
ATOM     25  C   UNL     1       0.980  -2.005   1.147  0.00  0.00    +0.263 C 
ATOM     26  O   UNL     1       0.140  -2.877   1.076  0.00  0.00    -0.271 OA
ATOM     27  N   UNL     1       2.318  -2.162   1.158  0.00  0.00    -0.137 N 
ATOM     28  C   UNL     1       2.953  -0.988   1.245  0.00  0.00    +0.326 C 
ATOM     29  O   UNL     1       4.162  -0.874   1.272  0.00  0.00    -0.251 OA
ATOM     30  N   UNL     1       2.102   0.053   1.300  0.00  0.00    -0.284 N 
ATOM     31  C   UNL     1      -0.039  -0.166   2.511  0.00  0.00    +0.041 C 
ATOM     32  H   UNL     1       2.338   0.992   1.365  0.00  0.00    +0.151 HD
BRANCH  24  34
ATOM     33  C   UNL     1      -0.019   1.526   0.010  0.00  0.00    +0.006 C 
ATOM     34  C   UNL     1       0.002  -0.004   0.002  0.00  0.00    +0.032 C 
ENDBRANCH  24  34
ENDBRANCH  20  27
ENDBRANCH  19  21
ENDBRANCH   1  19
TORSDOF 5
