REMARK  Name = ZINC01421139
REMARK  9 active torsions:
REMARK  status: ('A' for Active; 'I' for Inactive)
REMARK    1  A    between atoms: C_1  and  C_2
REMARK    2  A    between atoms: C_5  and  N_8
REMARK    3  A    between atoms: C_9  and  C_11
REMARK    4  A    between atoms: C_11  and  O_12
REMARK    5  A    between atoms: O_12  and  C_13
REMARK    6  A    between atoms: C_15  and  C_38
REMARK    7  A    between atoms: C_22  and  C_24
REMARK    8  A    between atoms: C_31  and  C_36
REMARK    9  A    between atoms: C_31  and  C_37
REMARK                            x       y       z     vdW  Elec       q    Type
REMARK                         _______ _______ _______ _____ _____    ______ ____
ROOT
ATOM      1  C   UNL     1      -0.764   4.361   3.762  0.00  0.00    +0.125 A 
ATOM      2  C   UNL     1      -0.262   3.068   3.807  0.00  0.00    +0.049 A 
ATOM      3  C   UNL     1      -0.790   2.096   2.982  0.00  0.00    -0.040 A 
ATOM      4  C   UNL     1      -1.820   2.402   2.107  0.00  0.00    +0.005 A 
ATOM      5  C   UNL     1      -2.321   3.691   2.055  0.00  0.00    +0.131 A 
ATOM      6  C   UNL     1      -1.792   4.671   2.888  0.00  0.00    +0.091 A 
ATOM      7  O   UNL     1      -3.325   4.035   1.207  0.00  0.00    -0.468 OA
ATOM      8  C   UNL     1      -4.101   2.989   0.626  0.00  0.00    +0.182 C 
ATOM      9  C   UNL     1      -3.150   1.927   0.064  0.00  0.00    +0.081 C 
ATOM     10  C   UNL     1      -2.372   1.309   1.228  0.00  0.00    +0.058 C 
ATOM     11  C   UNL     1      -5.000   2.358   1.692  0.00  0.00    +0.094 C 
ATOM     12  C   UNL     1      -6.019   3.405   2.155  0.00  0.00    +0.036 C 
ATOM     13  N   UNL     1      -6.746   3.914   0.991  0.00  0.00    -0.294 N 
ATOM     14  C   UNL     1      -6.180   3.955  -0.224  0.00  0.00    +0.303 C 
ATOM     15  O   UNL     1      -6.824   4.401  -1.154  0.00  0.00    -0.253 OA
ATOM     16  N   UNL     1      -4.930   3.524  -0.453  0.00  0.00    -0.262 N 
ATOM     17  C   UNL     1      -7.004   2.762   3.133  0.00  0.00    +0.031 C 
ATOM     18  C   UNL     1      -5.289   4.557   2.847  0.00  0.00    +0.031 C 
ATOM     19  C   UNL     1      -0.242   0.693   3.033  0.00  0.00    +0.044 C 
ATOM     20  H   UNL     1      -7.657   4.229   1.101  0.00  0.00    +0.151 HD
ATOM     21  H   UNL     1      -4.569   3.569  -1.353  0.00  0.00    +0.154 HD
ENDROOT
BRANCH  10  22
ATOM     22  C   UNL     1      -1.235   0.479   0.687  0.00  0.00    -0.040 A 
ATOM     23  C   UNL     1      -0.136   1.098   0.122  0.00  0.00    +0.004 A 
ATOM     24  C   UNL     1       0.903   0.337  -0.380  0.00  0.00    +0.000 A 
ATOM     25  C   UNL     1       0.843  -1.043  -0.317  0.00  0.00    +0.000 A 
ATOM     26  C   UNL     1      -0.256  -1.661   0.249  0.00  0.00    +0.000 A 
ATOM     27  C   UNL     1      -1.296  -0.900   0.750  0.00  0.00    +0.004 A 
ENDBRANCH  10  22
BRANCH   1  28
ATOM     28  O   UNL     1      -0.249   5.321   4.575  0.00  0.00    -0.483 OA
BRANCH  28  29
ATOM     29  C   UNL     1      -0.815   6.629   4.474  0.00  0.00    +0.324 C 
BRANCH  29  31
ATOM     30  N   UNL     1      -0.492   8.846   5.524  0.00  0.00    -0.283 N 
ATOM     31  C   UNL     1      -0.122   7.552   5.443  0.00  0.00    +0.255 C 
ATOM     32  O   UNL     1       0.769   7.131   6.150  0.00  0.00    -0.272 OA
ATOM     33  H   UNL     1      -1.255   9.164   5.016  0.00  0.00    +0.155 HD
BRANCH  30  38
ATOM     34  C   UNL     1       2.408  12.426   8.833  0.00  0.00    +0.044 C 
ATOM     35  C   UNL     1       1.637  11.475   7.954  0.00  0.00    -0.050 A 
ATOM     36  C   UNL     1       2.295  10.441   7.314  0.00  0.00    +0.005 A 
ATOM     37  C   UNL     1       1.592   9.567   6.508  0.00  0.00    +0.023 A 
ATOM     38  C   UNL     1       0.223   9.728   6.340  0.00  0.00    +0.034 A 
ATOM     39  C   UNL     1      -0.434  10.771   6.981  0.00  0.00    +0.023 A 
ATOM     40  C   UNL     1       0.274  11.638   7.790  0.00  0.00    +0.005 A 
ENDBRANCH  30  38
ENDBRANCH  29  31
ENDBRANCH  28  29
ENDBRANCH   1  28
TORSDOF 5
