REMARK  Name = ZINC03670588
REMARK  9 active torsions:
REMARK  status: ('A' for Active; 'I' for Inactive)
REMARK    1  A    between atoms: C_1  and  C_2
REMARK    2  A    between atoms: C_2  and  C_3
REMARK    3  A    between atoms: C_3  and  C_5
REMARK    4  A    between atoms: C_3  and  N_6
REMARK    5  A    between atoms: C_7  and  C_9
REMARK    6  A    between atoms: C_9  and  O_29
REMARK    7  A    between atoms: N_19  and  C_20
REMARK    8  A    between atoms: C_23  and  C_27
REMARK    9  A    between atoms: C_24  and  C_26
REMARK                            x       y       z     vdW  Elec       q    Type
REMARK                         _______ _______ _______ _____ _____    ______ ____
ROOT
ATOM      1  C   UNL     1       2.441   1.265   0.364  0.00  0.00    +0.247 C 
ATOM      2  C   UNL     1       1.152   2.054   0.353  0.00  0.00    +0.034 A 
ATOM      3  C   UNL     1       1.126   3.386   0.697  0.00  0.00    +0.025 A 
ATOM      4  C   UNL     1      -0.074   4.077   0.675  0.00  0.00    +0.018 A 
ATOM      5  C   UNL     1      -1.240   3.429   0.310  0.00  0.00    +0.017 A 
ATOM      6  C   UNL     1      -1.217   2.090  -0.031  0.00  0.00    +0.025 A 
ATOM      7  C   UNL     1      -0.015   1.395  -0.017  0.00  0.00    +0.043 A 
ATOM      8  N   UNL     1       0.030   0.043  -0.362  0.00  0.00    -0.269 N 
ATOM      9  C   UNL     1       1.162  -0.672  -0.358  0.00  0.00    +0.314 C 
ATOM     10  O   UNL     1       1.108  -1.845  -0.674  0.00  0.00    -0.252 OA
ATOM     11  N   UNL     1       2.357  -0.154  -0.021  0.00  0.00    -0.214 N 
ATOM     12 BR   UNL     1      -0.119   5.908   1.147  0.00  0.00    -0.050 Br
ATOM     13  H   UNL     1      -0.795  -0.398  -0.616  0.00  0.00    +0.156 HD
ENDROOT
BRANCH  11  14
ATOM     14  C   UNL     1       3.506  -0.953  -0.036  0.00  0.00    +0.042 A 
ATOM     15  C   UNL     1       4.354  -0.933  -1.136  0.00  0.00    +0.024 A 
ATOM     16  C   UNL     1       5.490  -1.718  -1.145  0.00  0.00    +0.005 A 
ATOM     17  C   UNL     1       5.777  -2.533  -0.065  0.00  0.00    -0.047 A 
ATOM     18  C   UNL     1       4.931  -2.561   1.029  0.00  0.00    -0.046 A 
ATOM     19  C   UNL     1       3.797  -1.773   1.046  0.00  0.00    +0.027 A 
ATOM     20  C   UNL     1       5.248  -3.451   2.203  0.00  0.00    +0.044 C 
ATOM     21  C   UNL     1       7.014  -3.393  -0.080  0.00  0.00    +0.044 C 
ENDBRANCH  11  14
BRANCH   1  23
ATOM     22  N   UNL     1       2.435   0.653   2.760  0.00  0.00    -0.309 N 
ATOM     23  C   UNL     1       3.017   1.336   1.755  0.00  0.00    +0.269 C 
ATOM     24  O   UNL     1       4.003   2.008   1.969  0.00  0.00    -0.270 OA
ATOM     25  H   UNL     1       1.646   0.115   2.589  0.00  0.00    +0.149 HD
BRANCH  22  26
ATOM     26  C   UNL     1       2.995   0.722   4.112  0.00  0.00    +0.070 C 
ATOM     27  C   UNL     1       4.115  -0.311   4.254  0.00  0.00    +0.028 C 
BRANCH  26  29
ATOM     28  C   UNL     1       0.836   1.528   5.079  0.00  0.00    +0.005 C 
ATOM     29  C   UNL     1       1.896   0.425   5.135  0.00  0.00    +0.018 C 
ENDBRANCH  26  29
ENDBRANCH  22  26
ENDBRANCH   1  23
BRANCH   1  30
ATOM     30  O   UNL     1       3.359   1.909  -0.522  0.00  0.00    -0.360 OA
ATOM     31  H   UNL     1       3.481   2.852  -0.346  0.00  0.00    +0.213 HD
ENDBRANCH   1  30
TORSDOF 5
