REMARK  Name = ZINC22793034
REMARK  8 active torsions:
REMARK  status: ('A' for Active; 'I' for Inactive)
REMARK    1  A    between atoms: C_1  and  C_2
REMARK    2  A    between atoms: C_7  and  N_8
REMARK    3  A    between atoms: C_9  and  C_11
REMARK    4  A    between atoms: C_12  and  N_20
REMARK    5  A    between atoms: C_21  and  C_23
REMARK    6  A    between atoms: N_25  and  C_26
REMARK    7  A    between atoms: C_26  and  C_27
REMARK    8  A    between atoms: C_27  and  N_28
REMARK                            x       y       z     vdW  Elec       q    Type
REMARK                         _______ _______ _______ _____ _____    ______ ____
ROOT
ATOM      1  C   UNL     1      -2.525  -0.155   0.486  0.00  0.00    +0.212 A 
ATOM      2  C   UNL     1      -2.376   1.146   0.087  0.00  0.00    +0.093 A 
ATOM      3  C   UNL     1      -3.731   1.640  -0.186  0.00  0.00    +0.042 A 
ATOM      4  C   UNL     1      -4.249   2.859  -0.626  0.00  0.00    +0.013 A 
ATOM      5  C   UNL     1      -5.598   3.000  -0.795  0.00  0.00    +0.001 A 
ATOM      6  C   UNL     1      -6.454   1.938  -0.537  0.00  0.00    +0.004 A 
ATOM      7  C   UNL     1      -5.960   0.725  -0.107  0.00  0.00    +0.047 A 
ATOM      8  C   UNL     1      -4.591   0.559   0.071  0.00  0.00    +0.138 A 
ATOM      9  O   UNL     1      -3.836  -0.484   0.470  0.00  0.00    -0.448 OA
ENDROOT
BRANCH   1  11
ATOM     10  N   UNL     1      -1.692  -2.344   1.147  0.00  0.00    -0.279 N 
ATOM     11  C   UNL     1      -1.435  -1.050   0.869  0.00  0.00    +0.285 C 
ATOM     12  O   UNL     1      -0.295  -0.627   0.938  0.00  0.00    -0.266 OA
ATOM     13  H   UNL     1      -2.731  -2.705   1.172  0.00  0.00    +0.155 HD
BRANCH  10  20
ATOM     14  C   UNL     1      -2.233  -4.671   2.691  0.00  0.00    +0.045 C 
ATOM     15  C   UNL     1      -0.858  -4.375   2.152  0.00  0.00    -0.029 A 
ATOM     16  C   UNL     1       0.185  -5.245   2.402  0.00  0.00    +0.005 A 
ATOM     17  C   UNL     1       1.448  -4.974   1.906  0.00  0.00    +0.000 A 
ATOM     18  C   UNL     1       1.670  -3.831   1.159  0.00  0.00    +0.002 A 
ATOM     19  C   UNL     1       0.630  -2.960   0.901  0.00  0.00    +0.023 A 
ATOM     20  C   UNL     1      -0.638  -3.227   1.402  0.00  0.00    +0.037 A 
ENDBRANCH  10  20
ENDBRANCH   1  11
BRANCH   2  21
ATOM     21  N   UNL     1      -1.188   1.854  -0.029  0.00  0.00    -0.274 N 
ATOM     22  C   UNL     1      -1.157   3.170   0.262  0.00  0.00    +0.303 C 
ATOM     23  O   UNL     1      -2.184   3.757   0.530  0.00  0.00    -0.265 OA
ATOM     24  H   UNL     1      -0.272   1.342  -0.357  0.00  0.00    +0.155 HD
BRANCH  22  25
ATOM     25  C   UNL     1       0.144   3.904   0.261  0.00  0.00    +0.299 C 
ATOM     26  O   UNL     1       1.172   3.317  -0.006  0.00  0.00    -0.265 OA
ATOM     27  N   UNL     1       0.176   5.219   0.557  0.00  0.00    -0.306 N 
ATOM     28  H   UNL     1      -0.756   5.750   0.800  0.00  0.00    +0.149 HD
BRANCH  27  29
ATOM     29  C   UNL     1       1.452   5.939   0.556  0.00  0.00    +0.120 C 
BRANCH  29  30
ATOM     30  C   UNL     1       1.210   7.405   0.922  0.00  0.00    +0.103 C 
BRANCH  30  31
ATOM     31  N   UNL     1       2.489   8.127   0.921  0.00  0.00    -0.304 NA
ATOM     32  C   UNL     1       3.275   7.805  -0.278  0.00  0.00    +0.065 C 
ATOM     33  C   UNL     1       4.630   8.513  -0.203  0.00  0.00    -0.067 C 
ATOM     34  N   UNL     1       4.416   9.963  -0.090  0.00  0.00    +0.381 N 
ATOM     35  C   UNL     1       3.631  10.285   1.109  0.00  0.00    -0.067 C 
ATOM     36  C   UNL     1       2.276   9.576   1.034  0.00  0.00    +0.065 C 
ATOM     37  H   UNL     1       5.388  10.472  -0.024  0.00  0.00    -0.086 HD
ATOM     38  H   UNL     1       3.873  10.323  -0.976  0.00  0.00    -0.086 HD
ENDBRANCH  30  31
ENDBRANCH  29  30
ENDBRANCH  27  29
ENDBRANCH  22  25
ENDBRANCH   2  21
TORSDOF 7
