REMARK  Name = ZINC35768260
REMARK  6 active torsions:
REMARK  status: ('A' for Active; 'I' for Inactive)
REMARK    1  A    between atoms: C_4  and  C_7
REMARK    2  A    between atoms: C_10  and  C_12
REMARK    3  A    between atoms: C_21  and  C_25
REMARK    4  A    between atoms: N_27  and  C_28
REMARK    5  A    between atoms: C_28  and  C_29
REMARK    6  A    between atoms: C_29  and  C_30
REMARK                            x       y       z     vdW  Elec       q    Type
REMARK                         _______ _______ _______ _____ _____    ______ ____
ROOT
ATOM      1  C   UNL     1       5.438  -1.755   1.594  0.00  0.00    +0.219 C 
ATOM      2  O   UNL     1       6.302  -1.103   1.047  0.00  0.00    -0.275 OA
ATOM      3  N   UNL     1       5.756  -2.572   2.618  0.00  0.00    -0.301 N 
ATOM      4  C   UNL     1       4.720  -3.372   3.286  0.00  0.00    +0.107 C 
ATOM      5  C   UNL     1       4.768  -3.082   4.790  0.00  0.00    +0.017 C 
ATOM      6  C   UNL     1       6.185  -3.298   5.303  0.00  0.00    -0.016 C 
ATOM      7  C   UNL     1       7.179  -2.392   4.591  0.00  0.00    +0.017 C 
ATOM      8  C   UNL     1       7.145  -2.683   3.082  0.00  0.00    +0.107 C 
ATOM      9  N   UNL     1       6.580  -4.712   5.194  0.00  0.00    +0.397 N 
ATOM     10  C   UNL     1       6.748  -5.426   6.464  0.00  0.00    +0.028 C 
ATOM     11  C   UNL     1       7.237  -4.458   7.582  0.00  0.00    +0.061 C 
ATOM     12  S   UNL     1       6.241  -2.971   7.112  0.00  0.00    -0.174 S 
ATOM     13  H   UNL     1       5.879  -5.194   4.652  0.00  0.00    -0.083 HD
ATOM     14  H   UNL     1       7.452  -4.756   4.689  0.00  0.00    -0.083 HD
ENDROOT
BRANCH  10  15
ATOM     15  C   UNL     1       7.763  -6.525   6.284  0.00  0.00    +0.200 C 
ATOM     16  O   UNL     1       8.290  -6.693   5.204  0.00  0.00    -0.278 OA
ATOM     17  N   UNL     1       8.085  -7.322   7.322  0.00  0.00    -0.316 N 
ATOM     18  H   UNL     1       7.663  -7.188   8.185  0.00  0.00    +0.149 HD
BRANCH  17  19
ATOM     19  C   UNL     1       9.071  -8.391   7.147  0.00  0.00    +0.109 C 
BRANCH  19  20
ATOM     20  C   UNL     1       9.251  -9.140   8.469  0.00  0.00    +0.055 C 
BRANCH  20  21
ATOM     21  C   UNL     1      10.266 -10.239   8.289  0.00  0.00    -0.027 A 
ATOM     22  C   UNL     1       9.848 -11.523   7.992  0.00  0.00    +0.006 A 
ATOM     23  C   UNL     1      10.778 -12.532   7.827  0.00  0.00    +0.020 A 
ATOM     24  C   UNL     1      12.128 -12.257   7.958  0.00  0.00    +0.042 A 
ATOM     25  C   UNL     1      12.547 -10.973   8.255  0.00  0.00    +0.040 A 
ATOM     26  C   UNL     1      11.616  -9.962   8.415  0.00  0.00    +0.046 A 
ATOM     27 CL   UNL     1      12.140  -8.348   8.781  0.00  0.00    -0.083 Cl
ATOM     28 CL   UNL     1      13.296 -13.525   7.751  0.00  0.00    -0.083 Cl
ENDBRANCH  20  21
ENDBRANCH  19  20
ENDBRANCH  17  19
ENDBRANCH  10  15
BRANCH   1  31
ATOM     29  C   UNL     1       3.711  -0.707  -0.038  0.00  0.00    +0.032 C 
ATOM     30  C   UNL     1       3.671  -2.222  -0.251  0.00  0.00    +0.022 C 
ATOM     31  C   UNL     1       4.008  -1.652   1.129  0.00  0.00    +0.083 C 
BRANCH  29  35
ATOM     32  C   UNL     1      -0.017   1.378   0.010  0.00  0.00    +0.000 A 
ATOM     33  C   UNL     1       1.171   2.086   0.002  0.00  0.00    +0.000 A 
ATOM     34  C   UNL     1       2.377   1.411  -0.013  0.00  0.00    +0.004 A 
ATOM     35  C   UNL     1       2.396   0.029  -0.020  0.00  0.00    -0.044 A 
ATOM     36  C   UNL     1       1.208  -0.679  -0.012  0.00  0.00    +0.004 A 
ATOM     37  C   UNL     1       0.002  -0.004   0.002  0.00  0.00    +0.000 A 
ENDBRANCH  29  35
ENDBRANCH   1  31
TORSDOF 6
