REMARK  Name = ZINC12482029
REMARK  10 active torsions:
REMARK  status: ('A' for Active; 'I' for Inactive)
REMARK    1  A    between atoms: C_4  and  S_7
REMARK    2  A    between atoms: S_7  and  C_8
REMARK    3  A    between atoms: C_8  and  C_9
REMARK    4  A    between atoms: C_11  and  C_14
REMARK    5  A    between atoms: C_14  and  C_15
REMARK    6  A    between atoms: C_20  and  C_22
REMARK    7  A    between atoms: C_22  and  C_23
REMARK    8  A    between atoms: N_25  and  C_26
REMARK    9  A    between atoms: C_26  and  C_27
REMARK   10  A    between atoms: C_27  and  N_28
REMARK                            x       y       z     vdW  Elec       q    Type
REMARK                         _______ _______ _______ _____ _____    ______ ____
ROOT
ATOM      1  C   UNL     1      -0.833   1.800   6.168  0.00  0.00    -0.019 C 
ATOM      2  C   UNL     1      -0.128   1.242   7.407  0.00  0.00    -0.079 C 
ATOM      3  C   UNL     1       0.416  -0.813   6.242  0.00  0.00    -0.082 C 
ATOM      4  C   UNL     1      -0.273  -0.316   4.969  0.00  0.00    -0.015 C 
ATOM      5  C   UNL     1      -0.187   1.212   4.911  0.00  0.00    -0.002 C 
ATOM      6  N   UNL     1      -0.244  -0.229   7.425  0.00  0.00    +0.379 N 
ATOM      7  H   UNL     1      -1.238  -0.490   7.421  0.00  0.00    -0.086 HD
ATOM      8  H   UNL     1       0.202  -0.593   8.275  0.00  0.00    -0.086 HD
ENDROOT
BRANCH   1   9
ATOM      9  C   UNL     1      -2.314   1.418   6.208  0.00  0.00    +0.061 C 
BRANCH   9  12
ATOM     10  C   UNL     1      -4.310   3.284   8.633  0.00  0.00    +0.148 A 
ATOM     11  C   UNL     1      -4.117   2.932   7.339  0.00  0.00    +0.071 A 
ATOM     12  C   UNL     1      -2.977   2.097   7.379  0.00  0.00    +0.084 A 
ATOM     13  N   UNL     1      -2.616   2.027   8.628  0.00  0.00    -0.083 NA
ATOM     14  O   UNL     1      -3.341   2.685   9.338  0.00  0.00    -0.359 OA
BRANCH  10  15
ATOM     15  C   UNL     1      -5.399   4.175   9.172  0.00  0.00    +0.151 C 
BRANCH  15  16
ATOM     16  S   UNL     1      -6.842   3.167   9.612  0.00  0.00    -0.117 S 
BRANCH  16  20
ATOM     17  C   UNL     1      -9.847   6.177  11.170  0.00  0.00    +0.000 A 
ATOM     18  C   UNL     1     -10.174   4.833  11.129  0.00  0.00    +0.001 A 
ATOM     19  C   UNL     1      -9.260   3.913  10.655  0.00  0.00    +0.015 A 
ATOM     20  C   UNL     1      -8.011   4.338  10.218  0.00  0.00    +0.008 A 
ATOM     21  C   UNL     1      -7.684   5.688  10.266  0.00  0.00    +0.015 A 
ATOM     22  C   UNL     1      -8.605   6.603  10.736  0.00  0.00    +0.001 A 
ENDBRANCH  16  20
ENDBRANCH  15  16
ENDBRANCH  10  15
ENDBRANCH   9  12
ENDBRANCH   1   9
BRANCH   5  23
ATOM     23  C   UNL     1      -0.927   1.718   3.671  0.00  0.00    +0.099 C 
BRANCH  23  24
ATOM     24  C   UNL     1      -0.222   1.232   2.431  0.00  0.00    +0.213 C 
ATOM     25  O   UNL     1       0.774   0.548   2.529  0.00  0.00    -0.276 OA
ATOM     26  N   UNL     1      -0.698   1.558   1.213  0.00  0.00    -0.314 N 
ATOM     27  H   UNL     1      -1.495   2.106   1.135  0.00  0.00    +0.149 HD
BRANCH  26  28
ATOM     28  C   UNL     1      -0.013   1.086   0.008  0.00  0.00    +0.123 C 
BRANCH  28  29
ATOM     29  C   UNL     1      -0.753   1.593  -1.232  0.00  0.00    +0.128 C 
BRANCH  29  30
ATOM     30  N   UNL     1      -0.067   1.120  -2.437  0.00  0.00    -0.283 N 
ATOM     31  C   UNL     1       1.006   1.836  -3.142  0.00  0.00    +0.128 C 
ATOM     32  C   UNL     1       1.361   0.904  -4.318  0.00  0.00    +0.124 C 
ATOM     33  N   UNL     1       0.444  -0.233  -4.155  0.00  0.00    -0.298 N 
ATOM     34  C   UNL     1      -0.322  -0.030  -3.075  0.00  0.00    +0.302 C 
ATOM     35  O   UNL     1      -1.172  -0.818  -2.707  0.00  0.00    -0.253 OA
ATOM     36  H   UNL     1       0.400  -1.008  -4.737  0.00  0.00    +0.150 HD
ENDBRANCH  29  30
ENDBRANCH  28  29
ENDBRANCH  26  28
ENDBRANCH  23  24
ENDBRANCH   5  23
TORSDOF 10
