REMARK  Name = ZINC08648546
REMARK  8 active torsions:
REMARK  status: ('A' for Active; 'I' for Inactive)
REMARK    1  A    between atoms: C_4  and  C_7
REMARK    2  A    between atoms: C_7  and  C_8
REMARK    3  A    between atoms: C_7  and  N_56
REMARK    4  A    between atoms: C_15  and  S_17
REMARK    5  A    between atoms: S_17  and  C_18
REMARK    6  A    between atoms: C_18  and  C_19
REMARK    7  A    between atoms: N_21  and  N_22
REMARK    8  A    between atoms: C_23  and  C_25
REMARK                            x       y       z     vdW  Elec       q    Type
REMARK                         _______ _______ _______ _____ _____    ______ ____
ROOT
ATOM      1  C   UNL     1       5.469   1.126   0.079  0.00  0.00    -0.065 C 
ATOM      2  C   UNL     1       4.138   1.893  -0.027  0.00  0.00    +0.014 C 
ATOM      3  C   UNL     1       4.599   2.301  -1.438  0.00  0.00    -0.065 C 
ATOM      4  N   UNL     1       5.870   2.011  -0.932  0.00  0.00    +0.388 N 
ATOM      5  H   UNL     1       6.336   2.845  -0.555  0.00  0.00    -0.080 HD
ENDROOT
BRANCH   4   6
ATOM      6  C   UNL     1       6.775   1.352  -1.958  0.00  0.00    -0.007 C 
BRANCH   6  10
ATOM      7  C   UNL     1       7.893   4.070  -5.058  0.00  0.00    +0.000 A 
ATOM      8  C   UNL     1       7.515   2.779  -5.374  0.00  0.00    +0.000 A 
ATOM      9  C   UNL     1       7.153   1.899  -4.371  0.00  0.00    +0.002 A 
ATOM     10  C   UNL     1       7.170   2.311  -3.051  0.00  0.00    -0.057 A 
ATOM     11  C   UNL     1       7.542   3.604  -2.736  0.00  0.00    +0.002 A 
ATOM     12  C   UNL     1       7.909   4.482  -3.739  0.00  0.00    +0.000 A 
ENDBRANCH   6  10
BRANCH   6  13
ATOM     13  C   UNL     1       8.015   0.791  -1.311  0.00  0.00    -0.057 A 
ATOM     14  C   UNL     1       8.701   1.535  -0.370  0.00  0.00    +0.002 A 
ATOM     15  C   UNL     1       9.836   1.018   0.227  0.00  0.00    +0.000 A 
ATOM     16  C   UNL     1      10.289  -0.240  -0.124  0.00  0.00    +0.000 A 
ATOM     17  C   UNL     1       9.606  -0.982  -1.069  0.00  0.00    +0.000 A 
ATOM     18  C   UNL     1       8.468  -0.467  -1.662  0.00  0.00    +0.002 A 
ENDBRANCH   6  13
ENDBRANCH   4   6
BRANCH   2  19
ATOM     19  S   UNL     1       2.675   0.820  -0.019  0.00  0.00    -0.152 S 
BRANCH  19  20
ATOM     20  C   UNL     1       1.280   1.980   0.001  0.00  0.00    +0.166 C 
BRANCH  20  21
ATOM     21  C   UNL     1      -0.014   1.209   0.009  0.00  0.00    +0.239 C 
ATOM     22  O   UNL     1       0.002  -0.004   0.002  0.00  0.00    -0.273 OA
ATOM     23  N   UNL     1      -1.191   1.867   0.018  0.00  0.00    -0.233 N 
ATOM     24  H   UNL     1      -1.204   2.837   0.023  0.00  0.00    +0.173 HD
BRANCH  23  25
ATOM     25  N   UNL     1      -2.394   1.150   0.020  0.00  0.00    -0.230 N 
ATOM     26  C   UNL     1      -3.571   1.808   0.029  0.00  0.00    +0.260 C 
ATOM     27  O   UNL     1      -3.587   3.023   0.035  0.00  0.00    -0.269 OA
ATOM     28  H   UNL     1      -2.381   0.180   0.014  0.00  0.00    +0.173 HD
BRANCH  26  29
ATOM     29  C   UNL     1      -4.840   1.051   0.031  0.00  0.00    +0.038 A 
ATOM     30  C   UNL     1      -4.824  -0.345   0.017  0.00  0.00    +0.014 A 
ATOM     31  C   UNL     1      -6.012  -1.045   0.025  0.00  0.00    +0.021 A 
ATOM     32  C   UNL     1      -7.220  -0.366   0.034  0.00  0.00    +0.041 A 
ATOM     33  C   UNL     1      -7.242   1.019   0.042  0.00  0.00    +0.021 A 
ATOM     34  C   UNL     1      -6.060   1.730   0.040  0.00  0.00    +0.014 A 
ATOM     35 CL   UNL     1      -8.711  -1.254   0.037  0.00  0.00    -0.084 Cl
ENDBRANCH  26  29
ENDBRANCH  23  25
ENDBRANCH  20  21
ENDBRANCH  19  20
ENDBRANCH   2  19
TORSDOF 8
