REMARK  Name = ZINC67294231
REMARK  6 active torsions:
REMARK  status: ('A' for Active; 'I' for Inactive)
REMARK    1  A    between atoms: C_1  and  C_2
REMARK    2  A    between atoms: C_2  and  C_3
REMARK    3  A    between atoms: C_7  and  N_9
REMARK    4  A    between atoms: C_11  and  C_21
REMARK    5  A    between atoms: C_16  and  O_20
REMARK    6  A    between atoms: C_27  and  C_30
REMARK                            x       y       z     vdW  Elec       q    Type
REMARK                         _______ _______ _______ _____ _____    ______ ____
ROOT
ATOM      1  N   UNL     1      -3.542  -1.718  -3.067  0.00  0.00    -0.325 N 
ATOM      2  C   UNL     1      -4.438  -2.620  -2.731  0.00  0.00    +0.212 A 
ATOM      3  C   UNL     1      -5.683  -2.786  -3.507  0.00  0.00    +0.098 A 
ATOM      4  C   UNL     1      -6.300  -4.029  -3.465  0.00  0.00    +0.030 A 
ATOM      5  C   UNL     1      -5.716  -5.039  -2.660  0.00  0.00    +0.018 A 
ATOM      6  C   UNL     1      -6.178  -6.362  -2.737  0.00  0.00    +0.015 A 
ATOM      7  C   UNL     1      -5.582  -7.334  -1.989  0.00  0.00    +0.046 A 
ATOM      8  C   UNL     1      -4.520  -7.023  -1.141  0.00  0.00    +0.120 A 
ATOM      9  C   UNL     1      -4.063  -5.718  -1.038  0.00  0.00    +0.092 A 
ATOM     10  C   UNL     1      -4.662  -4.717  -1.784  0.00  0.00    +0.141 A 
ATOM     11  O   UNL     1      -4.249  -3.435  -1.661  0.00  0.00    -0.438 OA
ATOM     12  H   UNL     1      -3.639  -1.222  -3.896  0.00  0.00    +0.169 HD
ENDROOT
BRANCH   3  13
ATOM     13  C   UNL     1      -6.247  -1.678  -4.293  0.00  0.00    +0.254 C 
ATOM     14  O   UNL     1      -7.200  -1.874  -5.024  0.00  0.00    -0.270 OA
ATOM     15  N   UNL     1      -5.709  -0.446  -4.205  0.00  0.00    -0.266 N 
ATOM     16  C   UNL     1      -6.284   0.618  -4.896  0.00  0.00    +0.125 A 
ATOM     17  C   UNL     1      -7.125   0.364  -5.974  0.00  0.00    +0.044 A 
ATOM     18  C   UNL     1      -7.691   1.429  -6.652  0.00  0.00    +0.008 A 
ATOM     19  C   UNL     1      -7.394   2.717  -6.227  0.00  0.00    -0.032 A 
ATOM     20  C   UNL     1      -6.551   2.896  -5.149  0.00  0.00    +0.116 A 
ATOM     21  N   UNL     1      -6.030   1.860  -4.518  0.00  0.00    -0.240 NA
ATOM     22  C   UNL     1      -7.987   3.908  -6.936  0.00  0.00    +0.045 C 
ATOM     23  H   UNL     1      -4.920  -0.299  -3.659  0.00  0.00    +0.157 HD
ENDBRANCH   3  13
BRANCH   1  28
ATOM     24  C   UNL     1      -0.114  -1.126  -1.957  0.00  0.00    -0.046 A 
ATOM     25  C   UNL     1      -0.306  -0.996  -0.593  0.00  0.00    +0.004 A 
ATOM     26  C   UNL     1      -1.575  -1.107  -0.052  0.00  0.00    +0.002 A 
ATOM     27  C   UNL     1      -2.658  -1.347  -0.871  0.00  0.00    +0.026 A 
ATOM     28  C   UNL     1      -2.472  -1.479  -2.250  0.00  0.00    +0.042 A 
ATOM     29  C   UNL     1      -1.188  -1.361  -2.789  0.00  0.00    +0.029 A 
BRANCH  24  31
ATOM     30  C   UNL     1       1.551   0.459  -2.889  0.00  0.00    +0.009 C 
ATOM     31  C   UNL     1       1.272  -1.004  -2.536  0.00  0.00    +0.032 C 
ENDBRANCH  24  31
ENDBRANCH   1  28
BRANCH   8  32
ATOM     32  O   UNL     1      -3.930  -8.004  -0.412  0.00  0.00    -0.507 OA
ATOM     33  H   UNL     1      -3.190  -8.435  -0.860  0.00  0.00    +0.292 HD
ENDBRANCH   8  32
TORSDOF 4
