REMARK  Name = ZINC63975385
REMARK  8 active torsions:
REMARK  status: ('A' for Active; 'I' for Inactive)
REMARK    1  A    between atoms: C_1  and  C_2
REMARK    2  A    between atoms: N_4  and  C_5
REMARK    3  A    between atoms: C_5  and  C_7
REMARK    4  A    between atoms: C_5  and  C_17
REMARK    5  A    between atoms: C_7  and  C_8
REMARK    6  A    between atoms: N_19  and  C_20
REMARK    7  A    between atoms: C_20  and  C_21
REMARK    8  A    between atoms: N_23  and  C_24
REMARK                            x       y       z     vdW  Elec       q    Type
REMARK                         _______ _______ _______ _____ _____    ______ ____
ROOT
ATOM      1  C   UNL     1      -0.395  -2.663   1.213  0.00  0.00    +0.234 C 
ATOM      2  O   UNL     1       0.367  -1.929   1.806  0.00  0.00    -0.274 OA
ATOM      3  N   UNL     1      -0.590  -3.925   1.645  0.00  0.00    -0.305 N 
ATOM      4  H   UNL     1      -1.200  -4.511   1.171  0.00  0.00    +0.149 HD
ENDROOT
BRANCH   1   5
ATOM      5  C   UNL     1      -1.125  -2.164  -0.008  0.00  0.00    +0.163 C 
BRANCH   5   9
ATOM      6  C   UNL     1       0.011   1.492  -0.012  0.00  0.00    +0.109 C 
ATOM      7  C   UNL     1       0.024  -0.015  -0.016  0.00  0.00    +0.211 C 
ATOM      8  O   UNL     1       1.079  -0.612  -0.030  0.00  0.00    -0.276 OA
ATOM      9  N   UNL     1      -1.137  -0.699  -0.004  0.00  0.00    -0.304 N 
ATOM     10  H   UNL     1      -1.982  -0.221   0.008  0.00  0.00    +0.149 HD
ENDBRANCH   5   9
BRANCH   5  11
ATOM     11  C   UNL     1      -0.414  -2.664  -1.267  0.00  0.00    +0.065 C 
BRANCH  11  12
ATOM     12  C   UNL     1      -1.210  -2.269  -2.484  0.00  0.00    -0.039 C 
ATOM     13  C   UNL     1      -1.024  -1.175  -3.257  0.00  0.00    -0.001 A 
ATOM     14  C   UNL     1      -0.063  -0.068  -3.199  0.00  0.00    +0.010 A 
ATOM     15  C   UNL     1      -0.127   0.906  -4.135  0.00  0.00    +0.001 A 
ATOM     16  C   UNL     1      -1.085   0.885  -5.157  0.00  0.00    +0.002 A 
ATOM     17  C   UNL     1      -2.002  -0.099  -5.277  0.00  0.00    +0.026 A 
ATOM     18  C   UNL     1      -2.027  -1.175  -4.347  0.00  0.00    +0.043 A 
ATOM     19  N   UNL     1      -2.802  -2.228  -4.250  0.00  0.00    -0.380 N 
ATOM     20  C   UNL     1      -2.375  -3.019  -3.091  0.00  0.00    +0.144 C 
ATOM     21  H   UNL     1      -3.533  -2.449  -4.848  0.00  0.00    +0.160 HD
ENDBRANCH  11  12
ENDBRANCH   5  11
ENDBRANCH   1   5
BRANCH   3  22
ATOM     22  C   UNL     1       0.119  -4.410   2.832  0.00  0.00    +0.200 C 
BRANCH  22  23
ATOM     23  C   UNL     1      -0.272  -5.840   3.100  0.00  0.00    +0.234 C 
ATOM     24  O   UNL     1      -1.065  -6.399   2.373  0.00  0.00    -0.274 OA
ATOM     25  N   UNL     1       0.259  -6.498   4.150  0.00  0.00    -0.284 N 
ATOM     26  H   UNL     1       0.943  -6.075   4.692  0.00  0.00    +0.155 HD
BRANCH  25  27
ATOM     27  C   UNL     1      -0.172  -7.782   4.454  0.00  0.00    +0.046 A 
ATOM     28  C   UNL     1      -0.530  -8.671   3.434  0.00  0.00    +0.024 A 
ATOM     29  C   UNL     1      -0.958  -9.945   3.733  0.00  0.00    +0.003 A 
ATOM     30  C   UNL     1      -1.044 -10.376   5.053  0.00  0.00    +0.014 A 
ATOM     31  C   UNL     1      -0.694  -9.513   6.077  0.00  0.00    +0.054 A 
ATOM     32  C   UNL     1      -0.248  -8.206   5.779  0.00  0.00    +0.073 A 
ATOM     33  C   UNL     1       0.113  -7.346   6.919  0.00  0.00    +0.285 C 
ATOM     34  O   UNL     1       0.500  -6.208   6.740  0.00  0.00    -0.267 OA
ATOM     35  N   UNL     1       0.006  -7.847   8.166  0.00  0.00    -0.084 NA
ATOM     36  N   UNL     1      -0.376  -8.984   8.428  0.00  0.00    -0.084 NA
ATOM     37  C   UNL     1      -0.756  -9.889   7.504  0.00  0.00    +0.284 C 
ATOM     38  O   UNL     1      -1.125 -10.998   7.838  0.00  0.00    -0.267 OA
ENDBRANCH  25  27
ENDBRANCH  22  23
ENDBRANCH   3  22
TORSDOF 7
