REMARK  Name = ZINC11426230
REMARK  8 active torsions:
REMARK  status: ('A' for Active; 'I' for Inactive)
REMARK    1  A    between atoms: C_3  and  C_9
REMARK    2  A    between atoms: C_12  and  S_15
REMARK    3  A    between atoms: N_13  and  N_14
REMARK    4  A    between atoms: S_15  and  C_16
REMARK    5  A    between atoms: C_16  and  C_17
REMARK    6  A    between atoms: C_17  and  C_18
REMARK    7  A    between atoms: N_20  and  C_21
REMARK    8  A    between atoms: C_22  and  C_30
REMARK                            x       y       z     vdW  Elec       q    Type
REMARK                         _______ _______ _______ _____ _____    ______ ____
ROOT
ATOM      1  S   UNL     1       2.558   5.917  -0.403  0.00  0.00    -0.084 S 
ENDROOT
BRANCH   1   5
ATOM      2  C   UNL     1       6.190   7.239   0.177  0.00  0.00    +0.183 A 
ATOM      3  N   UNL     1       6.372   5.947   0.035  0.00  0.00    -0.127 NA
ATOM      4  N   UNL     1       5.244   5.363  -0.162  0.00  0.00    -0.121 NA
ATOM      5  C   UNL     1       4.273   6.248  -0.166  0.00  0.00    +0.209 A 
ATOM      6  N   UNL     1       4.839   7.472   0.052  0.00  0.00    -0.224 N 
BRANCH   2   9
ATOM      7  C   UNL     1       8.042  10.158   1.645  0.00  0.00    +0.021 A 
ATOM      8  C   UNL     1       7.059   9.217   1.416  0.00  0.00    +0.014 A 
ATOM      9  C   UNL     1       7.237   8.253   0.423  0.00  0.00    +0.039 A 
ATOM     10  C   UNL     1       8.406   8.253  -0.341  0.00  0.00    +0.053 A 
ATOM     11  C   UNL     1       9.380   9.203  -0.106  0.00  0.00    +0.040 A 
ATOM     12  C   UNL     1       9.199  10.153   0.885  0.00  0.00    +0.042 A 
ATOM     13 CL   UNL     1      10.428  11.344   1.175  0.00  0.00    -0.083 Cl
ATOM     14 CL   UNL     1       8.634   7.062  -1.583  0.00  0.00    -0.083 Cl
ENDBRANCH   2   9
BRANCH   6  15
ATOM     15  N   UNL     1       4.199   8.676   0.131  0.00  0.00    -0.295 N 
ATOM     16  H   UNL     1       3.998   8.917   1.090  0.00  0.00    +0.163 HD
ATOM     17  H   UNL     1       4.736   9.402  -0.320  0.00  0.00    +0.163 HD
ENDBRANCH   6  15
ENDBRANCH   1   5
BRANCH   1  18
ATOM     18  C   UNL     1       2.612   4.122  -0.623  0.00  0.00    +0.086 C 
BRANCH  18  19
ATOM     19  C   UNL     1       1.195   3.593  -0.850  0.00  0.00    +0.107 C 
BRANCH  19  20
ATOM     20  C   UNL     1       1.240   2.098  -1.034  0.00  0.00    +0.218 C 
ATOM     21  O   UNL     1       2.301   1.513  -0.987  0.00  0.00    -0.275 OA
ATOM     22  N   UNL     1       0.101   1.411  -1.250  0.00  0.00    -0.279 N 
ATOM     23  H   UNL     1      -0.748   1.879  -1.291  0.00  0.00    +0.155 HD
BRANCH  22  24
ATOM     24  C   UNL     1       0.142   0.034  -1.419  0.00  0.00    +0.090 A 
ATOM     25  C   UNL     1      -0.912  -0.839  -1.643  0.00  0.00    +0.084 A 
ATOM     26  C   UNL     1      -0.598  -2.249  -1.790  0.00  0.00    -0.018 A 
ATOM     27  C   UNL     1       0.713  -2.561  -1.680  0.00  0.00    -0.004 A 
ATOM     28  S   UNL     1       1.523  -1.013  -1.394  0.00  0.00    -0.077 S 
ATOM     29  C   UNL     1       1.329  -3.922  -1.781  0.00  0.00    +0.043 C 
ATOM     30  C   UNL     1       0.212  -4.969  -1.656  0.00  0.00    +0.005 C 
ATOM     31  C   UNL     1      -0.939  -4.575  -2.586  0.00  0.00    +0.005 C 
ATOM     32  C   UNL     1      -1.642  -3.329  -2.045  0.00  0.00    +0.037 C 
BRANCH  25  33
ATOM     33  C   UNL     1      -2.261  -0.366  -1.729  0.00  0.00    +0.102 C 
ATOM     34  N   UNL     1      -3.332   0.008  -1.798  0.00  0.00    -0.191 NA
ENDBRANCH  25  33
ENDBRANCH  22  24
ENDBRANCH  19  20
ENDBRANCH  18  19
ENDBRANCH   1  18
TORSDOF 8
