REMARK  Name = ZINC08695949
REMARK  11 active torsions:
REMARK  status: ('A' for Active; 'I' for Inactive)
REMARK    1  A    between atoms: C_1  and  N_2
REMARK    2  A    between atoms: N_2  and  C_3
REMARK    3  A    between atoms: N_2  and  C_4
REMARK    4  A    between atoms: C_7  and  N_10
REMARK    5  A    between atoms: C_11  and  C_13
REMARK    6  A    between atoms: C_13  and  N_19
REMARK    7  A    between atoms: N_19  and  C_20
REMARK    8  A    between atoms: C_20  and  C_21
REMARK    9  A    between atoms: C_27  and  C_29
REMARK   10  A    between atoms: C_29  and  N_30
REMARK   11  A    between atoms: C_32  and  C_37
REMARK                            x       y       z     vdW  Elec       q    Type
REMARK                         _______ _______ _______ _____ _____    ______ ____
ROOT
ATOM      1  N   UNL     1      -0.263   1.004  -3.058  0.00  0.00    -0.282 N 
ATOM      2  C   UNL     1      -0.617   1.593  -1.898  0.00  0.00    +0.234 C 
ATOM      3  O   UNL     1      -1.761   1.958  -1.728  0.00  0.00    -0.274 OA
ENDROOT
BRANCH   1   4
ATOM      4  C   UNL     1      -1.063   1.224  -4.265  0.00  0.00    +0.115 C 
ATOM      5  C   UNL     1      -1.272   2.722  -4.464  0.00  0.00    +0.046 C 
ATOM      6  C   UNL     1      -1.750   3.361  -3.157  0.00  0.00    +0.071 C 
ATOM      7  S   UNL     1      -3.357   2.638  -2.710  0.00  0.00    -0.161 S 
ATOM      8  C   UNL     1      -3.032   0.849  -2.764  0.00  0.00    +0.071 C 
ATOM      9  C   UNL     1      -2.402   0.506  -4.117  0.00  0.00    +0.046 C 
BRANCH   4  11
ATOM     10  N   UNL     1       0.952   1.014  -5.684  0.00  0.00    -0.284 N 
ATOM     11  C   UNL     1      -0.329   0.663  -5.456  0.00  0.00    +0.241 C 
ATOM     12  O   UNL     1      -0.891  -0.104  -6.208  0.00  0.00    -0.273 OA
ATOM     13  H   UNL     1       1.450   1.499  -5.007  0.00  0.00    +0.155 HD
BRANCH  10  17
ATOM     14  C   UNL     1       2.775   0.020  -9.301  0.00  0.00    +0.029 A 
ATOM     15  C   UNL     1       3.549   0.422  -8.221  0.00  0.00    +0.025 A 
ATOM     16  C   UNL     1       2.946   0.751  -7.023  0.00  0.00    +0.025 A 
ATOM     17  C   UNL     1       1.564   0.680  -6.899  0.00  0.00    +0.034 A 
ATOM     18  C   UNL     1       0.790   0.273  -7.978  0.00  0.00    +0.025 A 
ATOM     19  C   UNL     1       1.393  -0.051  -9.177  0.00  0.00    +0.025 A 
BRANCH  14  21
ATOM     20  C   UNL     1       4.843  -0.237 -10.646  0.00  0.00    +0.129 C 
ATOM     21  N   UNL     1       3.386  -0.313 -10.515  0.00  0.00    -0.336 N 
ATOM     22  C   UNL     1       2.569  -0.737 -11.654  0.00  0.00    +0.129 C 
ENDBRANCH  14  21
ENDBRANCH  10  17
ENDBRANCH   4  11
ENDBRANCH   1   4
BRANCH   1  23
ATOM     23  C   UNL     1       0.922   0.144  -3.111  0.00  0.00    +0.144 C 
BRANCH  23  24
ATOM     24  C   UNL     1       0.500  -1.299  -3.007  0.00  0.00    -0.030 A 
ATOM     25  C   UNL     1       0.503  -1.933  -1.778  0.00  0.00    +0.005 A 
ATOM     26  C   UNL     1       0.112  -3.255  -1.682  0.00  0.00    +0.000 A 
ATOM     27  C   UNL     1      -0.272  -3.947  -2.816  0.00  0.00    +0.000 A 
ATOM     28  C   UNL     1      -0.270  -3.314  -4.045  0.00  0.00    +0.000 A 
ATOM     29  C   UNL     1       0.117  -1.991  -4.141  0.00  0.00    +0.005 A 
ENDBRANCH  23  24
ENDBRANCH   1  23
BRANCH   2  30
ATOM     30  C   UNL     1       0.409   1.798  -0.814  0.00  0.00    +0.202 C 
BRANCH  30  31
ATOM     31  N   UNL     1      -0.184   2.572   0.280  0.00  0.00    -0.302 N 
ATOM     32  C   UNL     1      -0.170   4.038   0.391  0.00  0.00    +0.134 C 
ATOM     33  C   UNL     1      -0.923   4.316   1.707  0.00  0.00    +0.119 C 
ATOM     34  N   UNL     1      -1.274   2.976   2.201  0.00  0.00    -0.318 N 
ATOM     35  C   UNL     1      -0.821   2.056   1.339  0.00  0.00    +0.134 C 
ATOM     36  S   UNL     1      -1.037   0.374   1.571  0.00  0.00    -0.019 S 
ATOM     37  H   UNL     1      -1.756   2.788   3.021  0.00  0.00    +0.148 HD
BRANCH  33  38
ATOM     38  C   UNL     1      -2.167   5.127   1.449  0.00  0.00    -0.026 A 
ATOM     39  C   UNL     1      -3.284   4.525   0.901  0.00  0.00    +0.005 A 
ATOM     40  C   UNL     1      -4.426   5.268   0.669  0.00  0.00    +0.000 A 
ATOM     41  C   UNL     1      -4.448   6.615   0.976  0.00  0.00    +0.000 A 
ATOM     42  C   UNL     1      -3.329   7.219   1.519  0.00  0.00    +0.000 A 
ATOM     43  C   UNL     1      -2.189   6.475   1.756  0.00  0.00    +0.005 A 
ENDBRANCH  33  38
ENDBRANCH  30  31
ENDBRANCH   2  30
TORSDOF 9
