REMARK  Name = ZINC41328439
REMARK  9 active torsions:
REMARK  status: ('A' for Active; 'I' for Inactive)
REMARK    1  A    between atoms: C_1  and  C_2
REMARK    2  A    between atoms: C_2  and  C_3
REMARK    3  A    between atoms: C_2  and  C_4
REMARK    4  A    between atoms: C_4  and  C_6
REMARK    5  A    between atoms: C_4  and  N_24
REMARK    6  A    between atoms: C_6  and  N_7
REMARK    7  A    between atoms: C_8  and  C_10
REMARK    8  A    between atoms: N_12  and  C_13
REMARK    9  A    between atoms: C_16  and  N_19
REMARK                            x       y       z     vdW  Elec       q    Type
REMARK                         _______ _______ _______ _____ _____    ______ ____
ROOT
ATOM      1  N   UNL     1      -2.582  -2.595  -0.517  0.00  0.00    -0.309 N 
ATOM      2  C   UNL     1      -2.739  -3.929  -0.631  0.00  0.00    +0.299 C 
ATOM      3  O   UNL     1      -1.819  -4.673  -0.362  0.00  0.00    -0.265 OA
ATOM      4  H   UNL     1      -3.318  -2.001  -0.732  0.00  0.00    +0.149 HD
ENDROOT
BRANCH   2   5
ATOM      5  C   UNL     1      -4.045  -4.492  -1.087  0.00  0.00    +0.303 C 
ATOM      6  O   UNL     1      -4.965  -3.747  -1.357  0.00  0.00    -0.265 OA
ATOM      7  N   UNL     1      -4.201  -5.825  -1.201  0.00  0.00    -0.278 N 
ATOM      8  H   UNL     1      -3.490  -6.423  -0.921  0.00  0.00    +0.155 HD
BRANCH   7   9
ATOM      9  C   UNL     1      -5.388  -6.348  -1.723  0.00  0.00    +0.034 A 
ATOM     10  C   UNL     1      -5.891  -7.549  -1.238  0.00  0.00    +0.025 A 
ATOM     11  C   UNL     1      -7.062  -8.065  -1.754  0.00  0.00    +0.029 A 
ATOM     12  C   UNL     1      -7.739  -7.383  -2.757  0.00  0.00    +0.067 A 
ATOM     13  C   UNL     1      -7.237  -6.182  -3.241  0.00  0.00    +0.029 A 
ATOM     14  C   UNL     1      -6.069  -5.663  -2.722  0.00  0.00    +0.025 A 
BRANCH  12  15
ATOM     15  N   UNL     1      -8.929  -7.908  -3.281  0.00  0.00    -0.220 N 
ATOM     16  C   UNL     1      -9.690  -7.369  -4.253  0.00  0.00    +0.225 A 
ATOM     17  N   UNL     1     -10.712  -8.161  -4.454  0.00  0.00    -0.222 NA
ATOM     18  C   UNL     1     -10.639  -9.210  -3.635  0.00  0.00    +0.245 A 
ATOM     19  N   UNL     1      -9.562  -9.103  -2.901  0.00  0.00    -0.154 NA
ENDBRANCH  12  15
ENDBRANCH   7   9
ENDBRANCH   2   5
BRANCH   1  20
ATOM     20  C   UNL     1      -1.301  -2.044  -0.069  0.00  0.00    +0.089 C 
BRANCH  20  21
ATOM     21  C   UNL     1      -1.352  -0.516  -0.138  0.00  0.00    -0.049 C 
BRANCH  21  22
ATOM     22  N   UNL     1      -1.440  -0.091  -1.541  0.00  0.00    +0.383 N 
ATOM     23  C   UNL     1      -2.784  -0.425  -2.052  0.00  0.00    -0.078 C 
ATOM     24  C   UNL     1      -3.095   0.498  -3.204  0.00  0.00    -0.019 C 
ATOM     25  C   UNL     1      -2.766  -0.160  -4.557  0.00  0.00    -0.002 C 
ATOM     26  C   UNL     1      -1.445  -0.953  -4.502  0.00  0.00    -0.002 C 
ATOM     27  C   UNL     1      -0.373  -0.230  -3.728  0.00  0.00    -0.019 C 
ATOM     28  C   UNL     1      -0.409  -0.699  -2.259  0.00  0.00    -0.078 C 
ATOM     29  H   UNL     1      -1.319   0.909  -1.584  0.00  0.00    -0.081 HD
ENDBRANCH  21  22
BRANCH  21  31
ATOM     30  C   UNL     1      -0.165   1.593   0.485  0.00  0.00    +0.005 C 
ATOM     31  C   UNL     1      -0.084   0.065   0.492  0.00  0.00    -0.029 C 
ATOM     32  C   UNL     1       0.044  -0.433   1.933  0.00  0.00    +0.005 C 
ENDBRANCH  21  31
ENDBRANCH  20  21
ENDBRANCH   1  20
TORSDOF 7
