REMARK  Name = ZINC38556668
REMARK  10 active torsions:
REMARK  status: ('A' for Active; 'I' for Inactive)
REMARK    1  A    between atoms: C_1  and  C_2
REMARK    2  A    between atoms: C_2  and  C_12
REMARK    3  A    between atoms: C_4  and  N_11
REMARK    4  A    between atoms: C_7  and  C_9
REMARK    5  A    between atoms: C_7  and  C_10
REMARK    6  A    between atoms: C_12  and  N_13
REMARK    7  A    between atoms: N_13  and  C_14
REMARK    8  A    between atoms: C_17  and  S_23
REMARK    9  A    between atoms: C_19  and  N_20
REMARK   10  A    between atoms: S_23  and  C_26
REMARK                            x       y       z     vdW  Elec       q    Type
REMARK                         _______ _______ _______ _____ _____    ______ ____
ROOT
ATOM      1  N   UNL     1       0.934   0.572  -2.152  0.00  0.00    -0.342 N 
ATOM      2  H   UNL     1       0.244   1.244  -2.039  0.00  0.00    +0.146 HD
ENDROOT
BRANCH   1   3
ATOM      3  C   UNL     1       1.396   0.253  -3.431  0.00  0.00    +0.058 A 
ATOM      4  C   UNL     1       2.311  -0.778  -3.604  0.00  0.00    +0.027 A 
ATOM      5  C   UNL     1       2.764  -1.092  -4.870  0.00  0.00    +0.029 A 
ATOM      6  C   UNL     1       2.310  -0.380  -5.965  0.00  0.00    +0.100 A 
ATOM      7  C   UNL     1       1.400   0.647  -5.796  0.00  0.00    +0.062 A 
ATOM      8  C   UNL     1       0.937   0.962  -4.534  0.00  0.00    +0.149 A 
BRANCH   8   9
ATOM      9  N   UNL     1      -0.041   2.058  -4.355  0.00  0.00    +0.058 N 
ATOM     10  O   UNL     1      -0.925   1.952  -3.537  0.00  0.00    -0.126 OA
ATOM     11  O   UNL     1       0.043   3.059  -5.027  0.00  0.00    -0.126 OA
ENDBRANCH   8   9
BRANCH   6  12
ATOM     12  S   UNL     1       2.892  -0.783  -7.579  0.00  0.00    +0.091 S 
ATOM     13  O   UNL     1       2.762   0.421  -8.322  0.00  0.00    -0.161 OA
ATOM     14  O   UNL     1       4.168  -1.370  -7.367  0.00  0.00    -0.161 OA
BRANCH  12  15
ATOM     15  C   UNL     1       1.726  -2.028  -8.197  0.00  0.00    +0.526 C 
ATOM     16  F   UNL     1       0.438  -1.483  -8.232  0.00  0.00    -0.150 F 
ATOM     17  F   UNL     1       2.102  -2.419  -9.486  0.00  0.00    -0.150 F 
ATOM     18  F   UNL     1       1.739  -3.141  -7.349  0.00  0.00    -0.150 F 
ENDBRANCH  12  15
ENDBRANCH   6  12
ENDBRANCH   1   3
BRANCH   1  19
ATOM     19  C   UNL     1       1.493  -0.108  -0.981  0.00  0.00    +0.108 C 
BRANCH  19  21
ATOM     20  C   UNL     1       0.888   1.951   0.299  0.00  0.00    +0.012 C 
ATOM     21  C   UNL     1       0.819   0.423   0.286  0.00  0.00    -0.018 C 
ATOM     22  C   UNL     1      -0.644  -0.022   0.310  0.00  0.00    -0.008 C 
ATOM     23  C   UNL     1      -0.713  -1.551   0.298  0.00  0.00    -0.074 C 
ATOM     24  C   UNL     1       0.008  -2.104   1.529  0.00  0.00    -0.010 C 
ATOM     25  C   UNL     1       1.472  -1.659   1.505  0.00  0.00    -0.036 C 
ATOM     26  C   UNL     1       1.541  -0.131   1.517  0.00  0.00    +0.014 C 
ATOM     27  C   UNL     1       2.193  -2.212   2.735  0.00  0.00    +0.011 C 
ATOM     28  C   UNL     1       2.145  -2.189   0.237  0.00  0.00    +0.011 C 
BRANCH  23  29
ATOM     29  N   UNL     1      -2.119  -1.978   0.321  0.00  0.00    +0.380 N 
ATOM     30  H   UNL     1      -2.594  -1.613  -0.491  0.00  0.00    -0.090 HD
ATOM     31  H   UNL     1      -2.164  -2.986   0.313  0.00  0.00    -0.090 HD
ATOM     32  H   UNL     1      -2.563  -1.628   1.157  0.00  0.00    -0.090 HD
ENDBRANCH  23  29
ENDBRANCH  19  21
ENDBRANCH   1  19
TORSDOF 7
