REMARK  Name = ZINC22024019
REMARK  8 active torsions:
REMARK  status: ('A' for Active; 'I' for Inactive)
REMARK    1  A    between atoms: N_9  and  C_14
REMARK    2  A    between atoms: C_14  and  C_15
REMARK    3  A    between atoms: C_15  and  C_16
REMARK    4  A    between atoms: C_16  and  C_17
REMARK    5  A    between atoms: C_17  and  C_18
REMARK    6  A    between atoms: C_18  and  C_19
REMARK    7  A    between atoms: N_21  and  C_22
REMARK    8  A    between atoms: C_25  and  N_29
REMARK                            x       y       z     vdW  Elec       q    Type
REMARK                         _______ _______ _______ _____ _____    ______ ____
ROOT
ATOM      1  C   UNL     1       6.897   5.718  -2.919  0.00  0.00    +0.009 C 
ENDROOT
BRANCH   1   2
ATOM      2  C   UNL     1       6.479   5.439  -1.474  0.00  0.00    +0.002 C 
BRANCH   2   3
ATOM      3  C   UNL     1       5.199   4.601  -1.466  0.00  0.00    +0.022 C 
BRANCH   3   4
ATOM      4  C   UNL     1       4.781   4.322  -0.020  0.00  0.00    +0.127 C 
BRANCH   4  13
ATOM      5  C   UNL     1       1.210  -0.691   0.004  0.00  0.00    +0.001 A 
ATOM      6  C   UNL     1       0.006  -0.004   0.011  0.00  0.00    +0.002 A 
ATOM      7  C   UNL     1      -0.017   1.377   0.010  0.00  0.00    +0.026 A 
ATOM      8  C   UNL     1       1.175   2.085   0.003  0.00  0.00    +0.053 A 
ATOM      9  C   UNL     1       2.397   1.389  -0.005  0.00  0.00    +0.063 A 
ATOM     10  C   UNL     1       2.406  -0.004  -0.004  0.00  0.00    +0.015 A 
ATOM     11  C   UNL     1       3.646   2.172  -0.012  0.00  0.00    +0.262 A 
ATOM     12  O   UNL     1       4.729   1.620  -0.018  0.00  0.00    -0.267 OA
ATOM     13  N   UNL     1       3.555   3.520  -0.012  0.00  0.00    -0.288 N 
ATOM     14  C   UNL     1       2.364   4.138  -0.005  0.00  0.00    +0.161 A 
ATOM     15  S   UNL     1       2.330   5.850  -0.006  0.00  0.00    -0.013 S 
ATOM     16  N   UNL     1       1.197   3.472   0.002  0.00  0.00    -0.335 N 
ATOM     17  H   UNL     1       0.253   4.036   0.007  0.00  0.00    +0.168 HD
ENDBRANCH   4  13
ENDBRANCH   3   4
ENDBRANCH   2   3
ENDBRANCH   1   2
BRANCH   1  18
ATOM     18  C   UNL     1       8.177   6.555  -2.928  0.00  0.00    +0.096 C 
BRANCH  18  19
ATOM     19  C   UNL     1       8.588   6.830  -4.351  0.00  0.00    +0.217 C 
ATOM     20  O   UNL     1       7.923   6.398  -5.269  0.00  0.00    -0.275 OA
ATOM     21  N   UNL     1       9.695   7.555  -4.605  0.00  0.00    -0.285 N 
ATOM     22  H   UNL     1      10.256   8.011  -3.775  0.00  0.00    +0.155 HD
BRANCH  21  23
ATOM     23  C   UNL     1      10.132   7.729  -5.925  0.00  0.00    +0.036 A 
ATOM     24  C   UNL     1      11.491   7.791  -6.204  0.00  0.00    +0.045 A 
ATOM     25  C   UNL     1      11.922   7.958  -7.506  0.00  0.00    +0.065 A 
ATOM     26  C   UNL     1      10.995   8.075  -8.535  0.00  0.00    +0.062 A 
ATOM     27  C   UNL     1       9.636   8.018  -8.254  0.00  0.00    +0.065 A 
ATOM     28  C   UNL     1       9.206   7.846  -6.953  0.00  0.00    +0.045 A 
ATOM     29 CL   UNL     1       8.477   8.163  -9.539  0.00  0.00    -0.082 Cl
ATOM     30 CL   UNL     1      13.621   8.029  -7.856  0.00  0.00    -0.082 Cl
BRANCH  26  31
ATOM     31  N   UNL     1      11.432   8.249  -9.854  0.00  0.00    -0.356 N 
ATOM     32  H   UNL     1      10.698   8.341 -10.669  0.00  0.00    +0.142 HD
ATOM     33  H   UNL     1      12.508   8.293 -10.076  0.00  0.00    +0.142 HD
ENDBRANCH  26  31
ENDBRANCH  21  23
ENDBRANCH  18  19
ENDBRANCH   1  18
TORSDOF 8
