REMARK  Name = ZINC02975353
REMARK  6 active torsions:
REMARK  status: ('A' for Active; 'I' for Inactive)
REMARK    1  A    between atoms: C_7  and  C_11
REMARK    2  A    between atoms: C_11  and  C_12
REMARK    3  A    between atoms: C_12  and  N_13
REMARK    4  A    between atoms: C_14  and  C_16
REMARK    5  A    between atoms: C_16  and  C_17
REMARK    6  A    between atoms: C_17  and  N_18
REMARK                            x       y       z     vdW  Elec       q    Type
REMARK                         _______ _______ _______ _____ _____    ______ ____
ROOT
ATOM      1  C   UNL     1       3.355   9.510  -2.584  0.00  0.00    +0.117 C 
ENDROOT
BRANCH   1   3
ATOM      2  N   UNL     1       1.906   7.882  -1.415  0.00  0.00    -0.315 N 
ATOM      3  C   UNL     1       2.401   8.344  -2.580  0.00  0.00    +0.215 C 
ATOM      4  O   UNL     1       2.077   7.822  -3.626  0.00  0.00    -0.276 OA
ATOM      5  H   UNL     1       2.165   8.299  -0.579  0.00  0.00    +0.149 HD
BRANCH   2   6
ATOM      6  C   UNL     1       0.978   6.748  -1.411  0.00  0.00    +0.109 C 
BRANCH   6   7
ATOM      7  C   UNL     1       0.571   6.426   0.028  0.00  0.00    +0.056 C 
BRANCH   7  14
ATOM      8  C   UNL     1       1.184   1.779   0.000  0.00  0.00    +0.001 A 
ATOM      9  C   UNL     1      -0.013   1.076   0.008  0.00  0.00    +0.002 A 
ATOM     10  C   UNL     1      -1.219   1.741   0.017  0.00  0.00    +0.026 A 
ATOM     11  C   UNL     1      -1.240   3.132   0.030  0.00  0.00    +0.047 A 
ATOM     12  C   UNL     1      -0.025   3.840   0.021  0.00  0.00    +0.003 A 
ATOM     13  C   UNL     1       1.186   3.146   0.007  0.00  0.00    +0.010 A 
ATOM     14  C   UNL     1      -0.384   5.261   0.032  0.00  0.00    -0.021 A 
ATOM     15  C   UNL     1      -1.724   5.327   0.045  0.00  0.00    +0.087 A 
ATOM     16  N   UNL     1      -2.253   4.065   0.044  0.00  0.00    -0.360 N 
ATOM     17  H   UNL     1      -3.201   3.858   0.052  0.00  0.00    +0.165 HD
ENDBRANCH   7  14
ENDBRANCH   6   7
ENDBRANCH   2   6
ENDBRANCH   1   3
BRANCH   1  18
ATOM     18  C   UNL     1       3.762   9.832  -4.024  0.00  0.00    +0.136 C 
BRANCH  18  19
ATOM     19  N   UNL     1       4.690  10.965  -4.027  0.00  0.00    -0.288 N 
ATOM     20  C   UNL     1       6.018  10.734  -3.938  0.00  0.00    +0.262 A 
ATOM     21  O   UNL     1       6.449   9.599  -3.855  0.00  0.00    -0.267 OA
ATOM     22  C   UNL     1       6.930  11.889  -3.944  0.00  0.00    +0.067 A 
ATOM     23  C   UNL     1       8.313  11.729  -3.856  0.00  0.00    +0.065 A 
ATOM     24  C   UNL     1       9.130  12.842  -3.866  0.00  0.00    +0.167 A 
ATOM     25  C   UNL     1       8.575  14.122  -3.962  0.00  0.00    +0.168 A 
ATOM     26  C   UNL     1       7.202  14.285  -4.049  0.00  0.00    +0.076 A 
ATOM     27  C   UNL     1       6.373  13.177  -4.041  0.00  0.00    +0.057 A 
ATOM     28  N   UNL     1       4.992  13.302  -4.128  0.00  0.00    -0.334 N 
ATOM     29  H   UNL     1       4.593  14.183  -4.196  0.00  0.00    +0.168 HD
ATOM     30  C   UNL     1       4.205  12.213  -4.124  0.00  0.00    +0.161 A 
ATOM     31  S   UNL     1       2.510  12.426  -4.240  0.00  0.00    -0.013 S 
ATOM     32  O   UNL     1       9.588  15.035  -3.949  0.00  0.00    -0.453 OA
ATOM     33  C   UNL     1      10.782  14.292  -4.258  0.00  0.00    +0.466 C 
ATOM     34  O   UNL     1      10.489  12.962  -3.794  0.00  0.00    -0.453 OA
ENDBRANCH  18  19
ENDBRANCH   1  18
TORSDOF 6
