REMARK  Name = ZINC36531484
REMARK  18 active torsions:
REMARK  status: ('A' for Active; 'I' for Inactive)
REMARK    1  A    between atoms: C_1  and  C_2
REMARK    2  A    between atoms: C_2  and  C_3
REMARK    3  A    between atoms: C_2  and  C_4
REMARK    4  A    between atoms: C_2  and  C_5
REMARK    5  A    between atoms: C_5  and  C_6
REMARK    6  A    between atoms: C_6  and  C_7
REMARK    7  A    between atoms: C_6  and  C_8
REMARK    8  A    between atoms: C_6  and  N_9
REMARK    9  A    between atoms: C_10  and  C_12
REMARK   10  A    between atoms: C_12  and  C_14
REMARK   11  A    between atoms: C_12  and  N_23
REMARK   12  A    between atoms: C_17  and  N_20
REMARK   13  A    between atoms: N_20  and  C_21
REMARK   14  A    between atoms: N_20  and  C_22
REMARK   15  A    between atoms: N_23  and  C_24
REMARK   16  A    between atoms: C_25  and  C_27
REMARK   17  A    between atoms: C_31  and  O_34
REMARK   18  A    between atoms: C_32  and  O_33
REMARK                            x       y       z     vdW  Elec       q    Type
REMARK                         _______ _______ _______ _____ _____    ______ ____
ROOT
ATOM      1  C   UNL     1       4.178   0.926  -3.438  0.00  0.00    +0.192 C 
ENDROOT
BRANCH   1   2
ATOM      2  C   UNL     1       3.797   2.368  -3.652  0.00  0.00    -0.018 A 
ATOM      3  C   UNL     1       4.616   3.375  -3.175  0.00  0.00    +0.008 A 
ATOM      4  C   UNL     1       4.270   4.698  -3.369  0.00  0.00    +0.023 A 
ATOM      5  C   UNL     1       3.099   5.017  -4.044  0.00  0.00    +0.029 A 
ATOM      6  C   UNL     1       2.279   4.002  -4.522  0.00  0.00    +0.023 A 
ATOM      7  C   UNL     1       2.633   2.682  -4.329  0.00  0.00    +0.008 A 
BRANCH   5   8
ATOM      8  N   UNL     1       2.746   6.354  -4.242  0.00  0.00    -0.336 N 
ATOM      9  C   UNL     1       3.663   7.421  -3.835  0.00  0.00    +0.129 C 
ATOM     10  C   UNL     1       1.458   6.688  -4.855  0.00  0.00    +0.129 C 
ENDBRANCH   5   8
ENDBRANCH   1   2
BRANCH   1  12
ATOM     11  N   UNL     1       2.861   0.240  -1.459  0.00  0.00    -0.308 N 
ATOM     12  C   UNL     1       4.058   0.586  -1.975  0.00  0.00    +0.238 C 
ATOM     13  O   UNL     1       5.038   0.623  -1.261  0.00  0.00    -0.273 OA
ATOM     14  H   UNL     1       2.078   0.210  -2.030  0.00  0.00    +0.149 HD
BRANCH  11  15
ATOM     15  C   UNL     1       2.745  -0.090  -0.037  0.00  0.00    +0.030 C 
ATOM     16  C   UNL     1       3.374   1.026   0.799  0.00  0.00    +0.031 C 
ATOM     17  C   UNL     1       3.472  -1.407   0.242  0.00  0.00    +0.031 C 
BRANCH  15  18
ATOM     18  C   UNL     1       1.268  -0.234   0.334  0.00  0.00    +0.031 C 
BRANCH  18  20
ATOM     19  C   UNL     1       0.282   0.701  -1.763  0.00  0.00    +0.010 C 
ATOM     20  C   UNL     1       0.476   0.931  -0.263  0.00  0.00    -0.036 C 
ATOM     21  C   UNL     1       1.244   2.235  -0.042  0.00  0.00    +0.010 C 
ATOM     22  C   UNL     1      -0.890   1.022   0.420  0.00  0.00    +0.010 C 
ENDBRANCH  18  20
ENDBRANCH  15  18
ENDBRANCH  11  15
ENDBRANCH   1  12
BRANCH   1  23
ATOM     23  N   UNL     1       5.560   0.715  -3.877  0.00  0.00    -0.285 N 
ATOM     24  C   UNL     1       6.386   1.859  -4.269  0.00  0.00    +0.133 C 
ATOM     25  C   UNL     1       6.071  -0.531  -3.919  0.00  0.00    +0.251 C 
ATOM     26  O   UNL     1       7.230  -0.703  -4.244  0.00  0.00    -0.270 OA
BRANCH  25  27
ATOM     27  C   UNL     1       5.223  -1.688  -3.572  0.00  0.00    +0.082 A 
ATOM     28  C   UNL     1       3.887  -1.496  -3.207  0.00  0.00    +0.017 A 
ATOM     29  C   UNL     1       3.099  -2.579  -2.884  0.00  0.00    +0.005 A 
ATOM     30  C   UNL     1       3.623  -3.861  -2.918  0.00  0.00    +0.049 A 
ATOM     31  C   UNL     1       4.944  -4.067  -3.276  0.00  0.00    +0.159 A 
ATOM     32  C   UNL     1       5.751  -2.984  -3.611  0.00  0.00    +0.171 A 
BRANCH  32  33
ATOM     33  O   UNL     1       7.046  -3.183  -3.969  0.00  0.00    -0.503 OA
ATOM     34  H   UNL     1       7.666  -3.166  -3.228  0.00  0.00    +0.292 HD
ENDBRANCH  32  33
BRANCH  31  35
ATOM     35  O   UNL     1       5.452  -5.329  -3.307  0.00  0.00    -0.503 OA
ATOM     36  H   UNL     1       5.357  -5.770  -4.162  0.00  0.00    +0.292 HD
ENDBRANCH  31  35
ENDBRANCH  25  27
ENDBRANCH   1  23
TORSDOF 10
