REMARK  Name = ZINC19928369
REMARK  11 active torsions:
REMARK  status: ('A' for Active; 'I' for Inactive)
REMARK    1  A    between atoms: C_1  and  C_2
REMARK    2  A    between atoms: C_2  and  N_3
REMARK    3  A    between atoms: N_3  and  C_4
REMARK    4  A    between atoms: N_3  and  C_6
REMARK    5  A    between atoms: C_4  and  C_5
REMARK    6  A    between atoms: C_6  and  C_7
REMARK    7  A    between atoms: C_8  and  C_18
REMARK    8  A    between atoms: N_20  and  N_21
REMARK    9  A    between atoms: C_22  and  C_23
REMARK   10  A    between atoms: C_22  and  C_24
REMARK   11  A    between atoms: C_27  and  N_30
REMARK                            x       y       z     vdW  Elec       q    Type
REMARK                         _______ _______ _______ _____ _____    ______ ____
ROOT
ATOM      1  C   UNL     1       0.116   0.596   3.208  0.00  0.00    +0.079 A 
ATOM      2  C   UNL     1      -0.822   0.885   4.165  0.00  0.00    +0.154 A 
ATOM      3  N   UNL     1      -0.129   0.967   5.348  0.00  0.00    -0.183 N 
ATOM      4  N   UNL     1       1.113   0.742   5.095  0.00  0.00    -0.058 NA
ATOM      5  N   UNL     1       1.287   0.515   3.842  0.00  0.00    -0.135 NA
ATOM      6  C   UNL     1      -0.676   1.244   6.604  0.00  0.00    +0.241 A 
ATOM      7  C   UNL     1       0.049   1.225   7.878  0.00  0.00    +0.206 A 
ATOM      8  N   UNL     1      -0.788   1.536   8.831  0.00  0.00    -0.032 NA
ATOM      9  O   UNL     1      -2.054   1.764   8.238  0.00  0.00    -0.239 OA
ATOM     10  N   UNL     1      -1.915   1.569   6.842  0.00  0.00    -0.027 NA
ATOM     11  N   UNL     1       1.397   0.927   8.044  0.00  0.00    -0.337 N 
ATOM     12  H   UNL     1       1.844   0.942   9.049  0.00  0.00    +0.144 HD
ATOM     13  H   UNL     1       2.016   0.677   7.170  0.00  0.00    +0.144 HD
ENDROOT
BRANCH   2  14
ATOM     14  C   UNL     1      -2.268   1.069   3.966  0.00  0.00    +0.284 C 
ATOM     15  O   UNL     1      -2.696   2.137   3.571  0.00  0.00    -0.267 OA
ATOM     16  N   UNL     1      -3.118   0.055   4.222  0.00  0.00    -0.201 N 
ATOM     17  H   UNL     1      -2.739  -0.885   4.649  0.00  0.00    +0.178 HD
BRANCH  16  18
ATOM     18  N   UNL     1      -4.483   0.198   3.943  0.00  0.00    -0.184 NA
ATOM     19  C   UNL     1      -5.316  -0.740   4.277  0.00  0.00    +0.063 C 
ATOM     20  C   UNL     1      -4.824  -1.953   5.023  0.00  0.00    +0.068 C 
BRANCH  19  21
ATOM     21  C   UNL     1      -6.743  -0.618   3.928  0.00  0.00    -0.002 A 
ATOM     22  C   UNL     1      -7.641  -1.628   4.281  0.00  0.00    +0.012 A 
ATOM     23  C   UNL     1      -8.976  -1.504   3.957  0.00  0.00    +0.033 A 
ATOM     24  C   UNL     1      -9.424  -0.389   3.272  0.00  0.00    +0.126 A 
ATOM     25  C   UNL     1      -8.539   0.613   2.913  0.00  0.00    +0.033 A 
ATOM     26  C   UNL     1      -7.203   0.506   3.236  0.00  0.00    +0.012 A 
BRANCH  24  27
ATOM     27  N   UNL     1     -10.857  -0.266   2.921  0.00  0.00    +0.056 N 
ATOM     28  O   UNL     1     -11.255   0.715   2.318  0.00  0.00    -0.126 OA
ATOM     29  O   UNL     1     -11.638  -1.146   3.235  0.00  0.00    -0.126 OA
ENDBRANCH  24  27
ENDBRANCH  19  21
ENDBRANCH  16  18
ENDBRANCH   2  14
BRANCH   1  30
ATOM     30  C   UNL     1      -0.128   0.403   1.734  0.00  0.00    -0.018 C 
BRANCH  30  31
ATOM     31  N   UNL     1      -0.005   1.694   1.043  0.00  0.00    +0.383 N 
ATOM     32  H   UNL     1      -0.652   2.417   1.561  0.00  0.00    -0.081 HD
BRANCH  31  34
ATOM     33  C   UNL     1       2.302   1.231   0.366  0.00  0.00    -0.017 C 
ATOM     34  C   UNL     1       1.374   2.196   1.107  0.00  0.00    -0.082 C 
ENDBRANCH  31  34
BRANCH  31  35
ATOM     35  C   UNL     1      -0.465   1.592  -0.348  0.00  0.00    -0.082 C 
ATOM     36  C   UNL     1      -0.605   2.995  -0.942  0.00  0.00    -0.017 C 
ENDBRANCH  31  35
ENDBRANCH  30  31
ENDBRANCH   1  30
TORSDOF 8
