REMARK  Name = ZINC44850001
REMARK  11 active torsions:
REMARK  status: ('A' for Active; 'I' for Inactive)
REMARK    1  A    between atoms: C_1  and  C_2
REMARK    2  A    between atoms: C_2  and  C_3
REMARK    3  A    between atoms: C_2  and  N_4
REMARK    4  A    between atoms: C_5  and  C_7
REMARK    5  A    between atoms: C_9  and  S_15
REMARK    6  A    between atoms: C_12  and  O_13
REMARK    7  A    between atoms: O_13  and  C_14
REMARK    8  A    between atoms: S_15  and  N_18
REMARK    9  A    between atoms: N_18  and  C_19
REMARK   10  A    between atoms: C_22  and  S_25
REMARK   11  A    between atoms: S_25  and  N_28
REMARK                            x       y       z     vdW  Elec       q    Type
REMARK                         _______ _______ _______ _____ _____    ______ ____
ROOT
ATOM      1  N   UNL     1      -7.168   0.046  -0.508  0.00  0.00    -0.216 N 
ATOM      2  H   UNL     1      -8.107   0.068  -0.749  0.00  0.00    +0.174 HD
ENDROOT
BRANCH   1   3
ATOM      3  C   UNL     1      -6.276   0.948  -1.093  0.00  0.00    +0.048 A 
ATOM      4  C   UNL     1      -5.355   1.627  -0.305  0.00  0.00    +0.026 A 
ATOM      5  C   UNL     1      -4.474   2.517  -0.887  0.00  0.00    +0.031 A 
ATOM      6  C   UNL     1      -4.508   2.734  -2.253  0.00  0.00    +0.113 A 
ATOM      7  C   UNL     1      -5.424   2.060  -3.040  0.00  0.00    +0.031 A 
ATOM      8  C   UNL     1      -6.304   1.164  -2.465  0.00  0.00    +0.026 A 
BRANCH   6   9
ATOM      9  S   UNL     1      -3.384   3.871  -2.991  0.00  0.00    +0.101 S 
ATOM     10  O   UNL     1      -3.982   4.303  -4.206  0.00  0.00    -0.146 OA
ATOM     11  O   UNL     1      -2.994   4.779  -1.969  0.00  0.00    -0.146 OA
BRANCH   9  12
ATOM     12  N   UNL     1      -2.027   3.018  -3.408  0.00  0.00    -0.111 NA
ATOM     13  C   UNL     1      -1.015   3.631  -3.986  0.00  0.00    +0.153 A 
ATOM     14  C   UNL     1       0.144   2.905  -4.349  0.00  0.00    +0.048 A 
ATOM     15  C   UNL     1       1.177   3.557  -4.944  0.00  0.00    +0.005 A 
ATOM     16  C   UNL     1       1.080   4.938  -5.188  0.00  0.00    +0.018 A 
ATOM     17  C   UNL     1      -0.031   5.617  -4.836  0.00  0.00    +0.084 A 
ATOM     18  N   UNL     1      -1.080   4.979  -4.244  0.00  0.00    -0.345 N 
ATOM     19  H   UNL     1      -1.874   5.480  -3.999  0.00  0.00    +0.167 HD
ENDBRANCH   9  12
ENDBRANCH   6   9
ENDBRANCH   1   3
BRANCH   1  20
ATOM     20  S   UNL     1      -6.621  -1.059   0.598  0.00  0.00    +0.072 S 
ATOM     21  O   UNL     1      -7.729  -1.885   0.927  0.00  0.00    -0.150 OA
ATOM     22  O   UNL     1      -5.897  -0.329   1.579  0.00  0.00    -0.150 OA
BRANCH  20  25
ATOM     23  C   UNL     1      -3.209  -2.510  -0.972  0.00  0.00    +0.080 A 
ATOM     24  C   UNL     1      -4.136  -1.695  -0.318  0.00  0.00    +0.045 A 
ATOM     25  C   UNL     1      -5.453  -2.088  -0.228  0.00  0.00    +0.109 A 
ATOM     26  C   UNL     1      -5.864  -3.289  -0.784  0.00  0.00    +0.032 A 
ATOM     27  C   UNL     1      -4.958  -4.104  -1.433  0.00  0.00    +0.048 A 
ATOM     28  C   UNL     1      -3.629  -3.721  -1.537  0.00  0.00    +0.132 A 
BRANCH  23  30
ATOM     29  N   UNL     1      -1.396  -0.929  -0.526  0.00  0.00    -0.309 N 
ATOM     30  C   UNL     1      -1.796  -2.095  -1.071  0.00  0.00    +0.248 C 
ATOM     31  O   UNL     1      -0.993  -2.805  -1.646  0.00  0.00    -0.270 OA
ATOM     32  H   UNL     1      -2.037  -0.363  -0.068  0.00  0.00    +0.149 HD
BRANCH  29  34
ATOM     33  C   UNL     1       0.098   1.006  -0.522  0.00  0.00    +0.027 C 
ATOM     34  C   UNL     1       0.006  -0.517  -0.625  0.00  0.00    +0.067 C 
ATOM     35  C   UNL     1       0.807  -1.155   0.512  0.00  0.00    +0.027 C 
ENDBRANCH  29  34
ENDBRANCH  23  30
BRANCH  28  36
ATOM     36  O   UNL     1      -2.739  -4.519  -2.179  0.00  0.00    -0.494 OA
ATOM     37  C   UNL     1      -3.240  -5.738  -2.730  0.00  0.00    +0.277 C 
ENDBRANCH  28  36
ENDBRANCH  20  25
ENDBRANCH   1  20
TORSDOF 8
