REMARK  Name = ZINC20236387
REMARK  10 active torsions:
REMARK  status: ('A' for Active; 'I' for Inactive)
REMARK    1  A    between atoms: C_1  and  C_2
REMARK    2  A    between atoms: C_9  and  C_10
REMARK    3  A    between atoms: C_12  and  O_28
REMARK    4  A    between atoms: C_13  and  O_17
REMARK    5  A    between atoms: O_17  and  C_18
REMARK    6  A    between atoms: C_18  and  C_19
REMARK    7  A    between atoms: C_19  and  C_20
REMARK    8  A    between atoms: C_20  and  O_21
REMARK    9  A    between atoms: O_21  and  C_22
REMARK   10  A    between atoms: O_28  and  C_29
REMARK                            x       y       z     vdW  Elec       q    Type
REMARK                         _______ _______ _______ _____ _____    ______ ____
ROOT
ATOM      1  C   UNL     1       0.532  -6.680   1.275  0.00  0.00    -0.019 A 
ATOM      2  C   UNL     1       1.134  -7.767   1.925  0.00  0.00    +0.057 A 
ATOM      3  C   UNL     1       0.354  -8.801   2.399  0.00  0.00    +0.163 A 
ATOM      4  C   UNL     1      -1.031  -8.765   2.232  0.00  0.00    +0.176 A 
ATOM      5  C   UNL     1      -1.630  -7.689   1.587  0.00  0.00    +0.064 A 
ATOM      6  C   UNL     1      -0.860  -6.649   1.115  0.00  0.00    +0.027 A 
ATOM      7 BR   UNL     1      -3.507  -7.650   1.364  0.00  0.00    -0.046 Br
ENDROOT
BRANCH   1  16
ATOM      8  C   UNL     1      -0.282   0.183  -3.321  0.00  0.00    +0.089 C 
ATOM      9  C   UNL     1      -0.047  -1.178  -2.718  0.00  0.00    +0.134 C 
ATOM     10  C   UNL     1      -0.798  -2.277  -2.953  0.00  0.00    +0.091 C 
ATOM     11  C   UNL     1      -0.260  -3.345  -2.221  0.00  0.00    +0.168 C 
ATOM     12  N   UNL     1      -0.692  -4.600  -2.111  0.00  0.00    -0.156 NA
ATOM     13  C   UNL     1      -0.063  -5.454  -1.291  0.00  0.00    +0.273 C 
ATOM     14  O   UNL     1      -0.369  -6.636  -1.275  0.00  0.00    -0.268 OA
ATOM     15  C   UNL     1       1.011  -4.944  -0.403  0.00  0.00    +0.084 C 
ATOM     16  C   UNL     1       1.355  -5.578   0.770  0.00  0.00    +0.025 C 
ATOM     17  C   UNL     1       1.696  -3.697  -0.863  0.00  0.00    +0.176 C 
ATOM     18  N   UNL     1       2.947  -3.422  -0.605  0.00  0.00    -0.280 NA
ATOM     19  N   UNL     1       0.861  -2.862  -1.594  0.00  0.00    -0.142 N 
ATOM     20  O   UNL     1       0.944  -1.491  -1.867  0.00  0.00    -0.375 OA
ATOM     21  H   UNL     1       3.484  -4.043  -0.088  0.00  0.00    +0.188 HD
ENDBRANCH   1  16
BRANCH   3  22
ATOM     22  O   UNL     1       0.935  -9.857   3.030  0.00  0.00    -0.491 OA
ATOM     23  C   UNL     1       2.357  -9.828   3.166  0.00  0.00    +0.277 C 
ENDBRANCH   3  22
BRANCH   4  24
ATOM     24  O   UNL     1      -1.796  -9.784   2.699  0.00  0.00    -0.487 OA
BRANCH  24  25
ATOM     25  C   UNL     1      -2.281  -9.670   4.039  0.00  0.00    +0.232 C 
BRANCH  25  26
ATOM     26  C   UNL     1      -3.116 -10.904   4.386  0.00  0.00    +0.082 C 
BRANCH  26  27
ATOM     27  C   UNL     1      -3.636 -10.782   5.819  0.00  0.00    +0.232 C 
BRANCH  27  28
ATOM     28  O   UNL     1      -4.416 -11.934   6.144  0.00  0.00    -0.492 OA
BRANCH  28  29
ATOM     29  C   UNL     1      -4.955 -11.984   7.390  0.00  0.00    +0.121 A 
ATOM     30  C   UNL     1      -4.742 -10.942   8.281  0.00  0.00    +0.045 A 
ATOM     31  C   UNL     1      -5.291 -10.995   9.548  0.00  0.00    +0.004 A 
ATOM     32  C   UNL     1      -6.053 -12.085   9.927  0.00  0.00    +0.000 A 
ATOM     33  C   UNL     1      -6.266 -13.124   9.041  0.00  0.00    +0.004 A 
ATOM     34  C   UNL     1      -5.724 -13.074   7.772  0.00  0.00    +0.045 A 
ENDBRANCH  28  29
ENDBRANCH  27  28
ENDBRANCH  26  27
ENDBRANCH  25  26
ENDBRANCH  24  25
ENDBRANCH   4  24
TORSDOF 8
