REMARK  Name = ZINC09487631
REMARK  6 active torsions:
REMARK  status: ('A' for Active; 'I' for Inactive)
REMARK    1  A    between atoms: C_10  and  C_11
REMARK    2  A    between atoms: C_11  and  S_12
REMARK    3  A    between atoms: S_12  and  C_13
REMARK    4  A    between atoms: C_16  and  C_19
REMARK    5  A    between atoms: N_17  and  N_18
REMARK    6  A    between atoms: C_21  and  C_25
REMARK                            x       y       z     vdW  Elec       q    Type
REMARK                         _______ _______ _______ _____ _____    ______ ____
ROOT
ATOM      1  C   UNL     1       6.964   1.426   1.472  0.00  0.00    +0.209 A 
ATOM      2  N   UNL     1       7.603   1.668   0.349  0.00  0.00    -0.120 NA
ATOM      3  N   UNL     1       8.708   2.276   0.592  0.00  0.00    -0.125 NA
ATOM      4  C   UNL     1       8.844   2.461   1.886  0.00  0.00    +0.199 A 
ATOM      5  N   UNL     1       7.727   1.926   2.488  0.00  0.00    -0.223 N 
ENDROOT
BRANCH   4   6
ATOM      6  C   UNL     1       9.974   3.120   2.563  0.00  0.00    +0.105 A 
ATOM      7  C   UNL     1      10.915   3.918   1.975  0.00  0.00    +0.061 A 
ATOM      8  C   UNL     1      11.807   4.338   2.975  0.00  0.00    +0.093 A 
ATOM      9  N   UNL     1      11.421   3.815   4.121  0.00  0.00    -0.173 NA
ATOM     10  N   UNL     1      10.270   3.051   3.895  0.00  0.00    -0.273 N 
ATOM     11  H   UNL     1       9.771   2.557   4.565  0.00  0.00    +0.189 HD
BRANCH   8  12
ATOM     12  C   UNL     1      12.984   5.220   2.776  0.00  0.00    +0.002 A 
ATOM     13  C   UNL     1      13.281   5.712   1.507  0.00  0.00    +0.011 A 
ATOM     14  C   UNL     1      14.376   6.532   1.326  0.00  0.00    +0.020 A 
ATOM     15  C   UNL     1      15.180   6.865   2.403  0.00  0.00    +0.041 A 
ATOM     16  C   UNL     1      14.889   6.378   3.666  0.00  0.00    +0.020 A 
ATOM     17  C   UNL     1      13.792   5.562   3.858  0.00  0.00    +0.011 A 
ATOM     18 CL   UNL     1      16.557   7.896   2.169  0.00  0.00    -0.084 Cl
ENDBRANCH   8  12
ENDBRANCH   4   6
BRANCH   5  19
ATOM     19  N   UNL     1       7.442   1.900   3.824  0.00  0.00    -0.295 N 
ATOM     20  H   UNL     1       7.882   1.109   4.272  0.00  0.00    +0.163 HD
ATOM     21  H   UNL     1       7.714   2.764   4.269  0.00  0.00    +0.163 HD
ENDBRANCH   5  19
BRANCH   1  22
ATOM     22  S   UNL     1       5.409   0.614   1.635  0.00  0.00    -0.080 S 
BRANCH  22  23
ATOM     23  C   UNL     1       4.944   0.208  -0.071  0.00  0.00    +0.113 C 
BRANCH  23  33
ATOM     24  C   UNL     1       0.042   1.647  -0.373  0.00  0.00    +0.001 A 
ATOM     25  C   UNL     1       1.262   2.319  -0.371  0.00  0.00    +0.001 A 
ATOM     26  C   UNL     1       2.437   1.639  -0.275  0.00  0.00    +0.009 A 
ATOM     27  C   UNL     1       2.422   0.237  -0.176  0.00  0.00    -0.014 A 
ATOM     28  C   UNL     1       1.181  -0.447  -0.179  0.00  0.00    -0.018 A 
ATOM     29  C   UNL     1      -0.012   0.290  -0.280  0.00  0.00    +0.008 A 
ATOM     30  C   UNL     1       1.166  -1.848  -0.080  0.00  0.00    +0.008 A 
ATOM     31  C   UNL     1       2.341  -2.529   0.017  0.00  0.00    +0.001 A 
ATOM     32  C   UNL     1       3.561  -1.857   0.020  0.00  0.00    +0.005 A 
ATOM     33  C   UNL     1       3.614  -0.500  -0.075  0.00  0.00    -0.029 A 
ENDBRANCH  23  33
ENDBRANCH  22  23
ENDBRANCH   1  22
TORSDOF 6
