REMARK  Name = ZINC11439566
REMARK  9 active torsions:
REMARK  status: ('A' for Active; 'I' for Inactive)
REMARK    1  A    between atoms: C_1  and  C_2
REMARK    2  A    between atoms: C_6  and  N_8
REMARK    3  A    between atoms: C_9  and  C_11
REMARK    4  A    between atoms: C_11  and  O_12
REMARK    5  A    between atoms: O_12  and  C_13
REMARK    6  A    between atoms: C_13  and  C_15
REMARK    7  A    between atoms: C_15  and  C_16
REMARK    8  A    between atoms: C_16  and  N_17
REMARK    9  A    between atoms: N_20  and  C_21
REMARK                            x       y       z     vdW  Elec       q    Type
REMARK                         _______ _______ _______ _____ _____    ______ ____
ROOT
ATOM      1  C   UNL     1      -3.285   7.787   0.075  0.00  0.00    +0.139 C 
ENDROOT
BRANCH   1   2
ATOM      2  C   UNL     1      -1.867   7.279   0.059  0.00  0.00    +0.309 C 
ATOM      3  O   UNL     1      -0.945   8.060   0.054  0.00  0.00    -0.251 OA
BRANCH   2   4
ATOM      4  O   UNL     1      -1.627   5.958   0.050  0.00  0.00    -0.455 OA
BRANCH   4   5
ATOM      5  C   UNL     1      -0.236   5.541   0.034  0.00  0.00    +0.328 C 
BRANCH   5   7
ATOM      6  N   UNL     1       1.034   3.418   0.011  0.00  0.00    -0.266 N 
ATOM      7  C   UNL     1      -0.164   4.035   0.025  0.00  0.00    +0.256 C 
ATOM      8  O   UNL     1      -1.184   3.379   0.032  0.00  0.00    -0.272 OA
ATOM      9  H   UNL     1       1.850   3.943   0.006  0.00  0.00    +0.156 HD
BRANCH   6  15
ATOM     10  C   UNL     1      -1.298  -0.766   0.010  0.00  0.00    +0.067 C 
ATOM     11  C   UNL     1       0.002  -0.004   0.002  0.00  0.00    +0.059 A 
ATOM     12  C   UNL     1       1.198  -0.697  -0.013  0.00  0.00    +0.063 A 
ATOM     13  C   UNL     1       2.393   0.011  -0.020  0.00  0.00    +0.045 A 
ATOM     14  C   UNL     1       2.341   1.395  -0.013  0.00  0.00    +0.082 A 
ATOM     15  C   UNL     1       1.101   2.025   0.002  0.00  0.00    +0.144 A 
ATOM     16  N   UNL     1      -0.016   1.315   0.009  0.00  0.00    -0.234 NA
ATOM     17 CL   UNL     1       3.803   2.330  -0.021  0.00  0.00    -0.080 Cl
ATOM     18 CL   UNL     1       1.206  -2.433  -0.021  0.00  0.00    -0.082 Cl
ENDBRANCH   6  15
ENDBRANCH   5   7
ENDBRANCH   4   5
ENDBRANCH   2   4
ENDBRANCH   1   2
BRANCH   1  19
ATOM     19  C   UNL     1      -3.278   9.317   0.083  0.00  0.00    +0.117 C 
BRANCH  19  20
ATOM     20  N   UNL     1      -4.657   9.812   0.099  0.00  0.00    -0.299 N 
ATOM     21  C   UNL     1      -4.898  11.138   0.109  0.00  0.00    +0.300 C 
ATOM     22  O   UNL     1      -3.970  11.924   0.104  0.00  0.00    -0.253 OA
ATOM     23  N   UNL     1      -6.167  11.592   0.123  0.00  0.00    -0.294 N 
ATOM     24  H   UNL     1      -5.397   9.184   0.103  0.00  0.00    +0.150 HD
ATOM     25  H   UNL     1      -6.907  10.965   0.127  0.00  0.00    +0.151 HD
BRANCH  23  26
ATOM     26  C   UNL     1      -6.428  13.034   0.133  0.00  0.00    +0.037 C 
ATOM     27  C   UNL     1      -5.797  13.658   1.380  0.00  0.00    +0.029 C 
ATOM     28  C   UNL     1      -6.070  15.163   1.391  0.00  0.00    -0.008 C 
ATOM     29  C   UNL     1      -7.581  15.407   1.407  0.00  0.00    +0.007 C 
ATOM     30  C   UNL     1      -8.211  14.784   0.160  0.00  0.00    -0.008 C 
ATOM     31  C   UNL     1      -7.938  13.278   0.149  0.00  0.00    +0.029 C 
ATOM     32  C   UNL     1      -7.604  15.421  -1.092  0.00  0.00    +0.007 C 
ATOM     33  C   UNL     1      -6.094  15.177  -1.108  0.00  0.00    -0.008 C 
ATOM     34  C   UNL     1      -5.464  15.800   0.139  0.00  0.00    +0.007 C 
ATOM     35  C   UNL     1      -5.821  13.671  -1.118  0.00  0.00    +0.029 C 
ENDBRANCH  23  26
ENDBRANCH  19  20
ENDBRANCH   1  19
TORSDOF 8
