REMARK  Name = ZINC40317271
REMARK  10 active torsions:
REMARK  status: ('A' for Active; 'I' for Inactive)
REMARK    1  A    between atoms: C_1  and  C_2
REMARK    2  A    between atoms: C_4  and  O_9
REMARK    3  A    between atoms: O_9  and  C_10
REMARK    4  A    between atoms: C_10  and  C_11
REMARK    5  A    between atoms: C_11  and  C_13
REMARK    6  A    between atoms: C_11  and  O_31
REMARK    7  A    between atoms: C_13  and  N_14
REMARK    8  A    between atoms: N_14  and  C_15
REMARK    9  A    between atoms: N_14  and  C_23
REMARK   10  A    between atoms: C_15  and  C_16
REMARK                            x       y       z     vdW  Elec       q    Type
REMARK                         _______ _______ _______ _____ _____    ______ ____
ROOT
ATOM      1  N   UNL     1       0.544  -6.816  -4.992  0.00  0.00    +0.387 N 
ATOM      2  H   UNL     1       1.213  -6.950  -5.735  0.00  0.00    -0.081 HD
ENDROOT
BRANCH   1   3
ATOM      3  C   UNL     1      -0.594  -6.033  -5.491  0.00  0.00    -0.045 C 
ATOM      4  C   UNL     1      -1.807  -6.234  -4.568  0.00  0.00    +0.009 C 
ATOM      5  C   UNL     1      -3.084  -5.683  -5.248  0.00  0.00    +0.164 C 
ATOM      6  S   UNL     1      -2.702  -5.871  -7.037  0.00  0.00    -0.033 S 
ATOM      7  O   UNL     1      -2.669  -4.585  -7.641  0.00  0.00    -0.174 OA
ATOM      8  O   UNL     1      -3.541  -6.879  -7.585  0.00  0.00    -0.174 OA
ATOM      9  C   UNL     1      -0.983  -6.522  -6.915  0.00  0.00    +0.151 C 
ENDBRANCH   1   3
BRANCH   1  10
ATOM     10  C   UNL     1       1.184  -6.098  -3.881  0.00  0.00    -0.043 C 
BRANCH  10  11
ATOM     11  C   UNL     1       1.913  -4.867  -4.423  0.00  0.00    +0.135 C 
BRANCH  11  12
ATOM     12  O   UNL     1       0.956  -3.889  -4.834  0.00  0.00    -0.390 OA
ATOM     13  H   UNL     1       0.425  -3.529  -4.110  0.00  0.00    +0.210 HD
ENDBRANCH  11  12
BRANCH  11  14
ATOM     14  C   UNL     1       2.804  -4.279  -3.328  0.00  0.00    +0.258 C 
BRANCH  14  15
ATOM     15  O   UNL     1       3.573  -3.201  -3.866  0.00  0.00    -0.489 OA
BRANCH  15  19
ATOM     16  C   UNL     1       6.905   0.283  -3.104  0.00  0.00    +0.045 C 
ATOM     17  C   UNL     1       6.062  -0.864  -2.609  0.00  0.00    -0.029 A 
ATOM     18  C   UNL     1       5.199  -1.509  -3.474  0.00  0.00    +0.050 A 
ATOM     19  C   UNL     1       4.423  -2.564  -3.018  0.00  0.00    +0.121 A 
ATOM     20  C   UNL     1       4.515  -2.969  -1.694  0.00  0.00    +0.047 A 
ATOM     21  C   UNL     1       5.379  -2.321  -0.833  0.00  0.00    +0.024 A 
ATOM     22  C   UNL     1       6.157  -1.272  -1.291  0.00  0.00    +0.044 A 
ATOM     23 CL   UNL     1       7.247  -0.464  -0.209  0.00  0.00    -0.083 Cl
ENDBRANCH  15  19
ENDBRANCH  14  15
ENDBRANCH  11  14
ENDBRANCH  10  11
ENDBRANCH   1  10
BRANCH   1  24
ATOM     24  C   UNL     1       0.070  -8.124  -4.520  0.00  0.00    -0.042 C 
BRANCH  24  25
ATOM     25  C   UNL     1      -0.403  -8.941  -5.695  0.00  0.00    -0.063 A 
ATOM     26  C   UNL     1      -1.751  -9.001  -5.997  0.00  0.00    +0.002 A 
ATOM     27  C   UNL     1      -2.185  -9.750  -7.074  0.00  0.00    +0.001 A 
ATOM     28  C   UNL     1      -1.272 -10.439  -7.851  0.00  0.00    +0.015 A 
ATOM     29  C   UNL     1       0.077 -10.378  -7.549  0.00  0.00    +0.018 A 
ATOM     30  C   UNL     1       0.511  -9.624  -6.474  0.00  0.00    +0.017 A 
ATOM     31 BR   UNL     1       1.326 -11.320  -8.610  0.00  0.00    -0.050 Br
ENDBRANCH  24  25
ENDBRANCH   1  24
TORSDOF 9
