REMARK  Name = ZINC41584859
REMARK  7 active torsions:
REMARK  status: ('A' for Active; 'I' for Inactive)
REMARK    1  A    between atoms: C_1  and  C_2
REMARK    2  A    between atoms: C_4  and  O_34
REMARK    3  A    between atoms: C_5  and  C_20
REMARK    4  A    between atoms: C_11  and  C_12
REMARK    5  A    between atoms: C_20  and  N_21
REMARK    6  A    between atoms: N_24  and  C_27
REMARK    7  A    between atoms: C_27  and  C_28
REMARK                            x       y       z     vdW  Elec       q    Type
REMARK                         _______ _______ _______ _____ _____    ______ ____
ROOT
ATOM      1  C   UNL     1       0.370   1.463  -0.007  0.00  0.00    +0.045 C 
ATOM      2  C   UNL     1       0.063  -0.012  -0.001  0.00  0.00    -0.033 A 
ATOM      3  C   UNL     1      -0.157  -0.670  -1.179  0.00  0.00    +0.050 A 
ATOM      4  C   UNL     1      -0.442  -2.033  -1.175  0.00  0.00    +0.122 A 
ATOM      5  C   UNL     1      -0.506  -2.737   0.017  0.00  0.00    +0.020 A 
ATOM      6  C   UNL     1      -0.285  -2.083   1.222  0.00  0.00    +0.145 A 
ATOM      7  C   UNL     1       0.007  -0.710   1.206  0.00  0.00    +0.071 A 
ATOM      8  C   UNL     1       0.197  -0.308   2.612  0.00  0.00    +0.232 C 
ATOM      9  O   UNL     1       0.460   0.801   3.042  0.00  0.00    -0.283 OA
ATOM     10  C   UNL     1      -0.005  -1.547   3.379  0.00  0.00    +0.176 C 
ATOM     11  C   UNL     1       0.069  -1.676   4.728  0.00  0.00    +0.058 C 
ATOM     12  O   UNL     1      -0.290  -2.533   2.496  0.00  0.00    -0.451 OA
ENDROOT
BRANCH  11  13
ATOM     13  C   UNL     1      -0.018  -3.007   5.345  0.00  0.00    -0.021 A 
ATOM     14  C   UNL     1      -0.115  -3.132   6.735  0.00  0.00    +0.009 A 
ATOM     15  C   UNL     1      -0.196  -4.384   7.306  0.00  0.00    +0.016 A 
ATOM     16  C   UNL     1      -0.181  -5.516   6.508  0.00  0.00    +0.018 A 
ATOM     17  C   UNL     1      -0.085  -5.400   5.131  0.00  0.00    +0.016 A 
ATOM     18  C   UNL     1      -0.010  -4.155   4.544  0.00  0.00    +0.009 A 
ATOM     19 BR   UNL     1      -0.292  -7.228   7.302  0.00  0.00    -0.050 Br
ENDBRANCH  11  13
BRANCH   4  20
ATOM     20  O   UNL     1      -0.659  -2.678  -2.350  0.00  0.00    -0.506 OA
ATOM     21  H   UNL     1       0.140  -3.045  -2.751  0.00  0.00    +0.292 HD
ENDBRANCH   4  20
BRANCH   5  22
ATOM     22  C   UNL     1      -0.817  -4.212   0.005  0.00  0.00    -0.035 C 
BRANCH  22  23
ATOM     23  N   UNL     1       0.435  -4.974  -0.093  0.00  0.00    +0.384 N 
ATOM     24  C   UNL     1       1.075  -4.700  -1.387  0.00  0.00    -0.063 C 
ATOM     25  C   UNL     1       2.388  -5.480  -1.482  0.00  0.00    +0.066 C 
ATOM     26  N   UNL     1       2.111  -6.918  -1.348  0.00  0.00    -0.302 NA
ATOM     27  C   UNL     1       1.448  -7.204  -0.068  0.00  0.00    +0.066 C 
ATOM     28  C   UNL     1       0.143  -6.410   0.016  0.00  0.00    -0.063 C 
ATOM     29  H   UNL     1       1.056  -4.700   0.653  0.00  0.00    -0.081 HD
BRANCH  26  30
ATOM     30  C   UNL     1       3.342  -7.706  -1.491  0.00  0.00    +0.119 C 
BRANCH  30  31
ATOM     31  C   UNL     1       2.993  -9.168  -1.594  0.00  0.00    -0.033 A 
ATOM     32  C   UNL     1       2.901  -9.939  -0.450  0.00  0.00    +0.005 A 
ATOM     33  C   UNL     1       2.581 -11.280  -0.544  0.00  0.00    +0.000 A 
ATOM     34  C   UNL     1       2.352 -11.851  -1.783  0.00  0.00    +0.000 A 
ATOM     35  C   UNL     1       2.443 -11.080  -2.926  0.00  0.00    +0.000 A 
ATOM     36  C   UNL     1       2.759  -9.738  -2.832  0.00  0.00    +0.005 A 
ENDBRANCH  30  31
ENDBRANCH  26  30
ENDBRANCH  22  23
ENDBRANCH   5  22
TORSDOF 6
