REMARK  Name = ZINC39682995
REMARK  9 active torsions:
REMARK  status: ('A' for Active; 'I' for Inactive)
REMARK    1  A    between atoms: C_1  and  O_2
REMARK    2  A    between atoms: O_2  and  C_3
REMARK    3  A    between atoms: C_6  and  O_34
REMARK    4  A    between atoms: C_7  and  C_9
REMARK    5  A    between atoms: C_9  and  N_10
REMARK    6  A    between atoms: C_11  and  C_13
REMARK    7  A    between atoms: C_24  and  C_26
REMARK    8  A    between atoms: C_26  and  C_27
REMARK    9  A    between atoms: O_34  and  C_35
REMARK                            x       y       z     vdW  Elec       q    Type
REMARK                         _______ _______ _______ _____ _____    ______ ____
ROOT
ATOM      1  C   UNL     1      -3.177  -6.463  -2.984  0.00  0.00    +0.100 C 
ATOM      2  C   UNL     1      -4.608  -6.074  -3.417  0.00  0.00    +0.121 C 
ATOM      3  N   UNL     1      -5.088  -7.232  -4.208  0.00  0.00    -0.300 N 
ATOM      4  C   UNL     1      -4.570  -8.415  -3.480  0.00  0.00    +0.115 C 
ATOM      5  C   UNL     1      -3.156  -8.001  -3.026  0.00  0.00    -0.004 C 
ATOM      6  C   UNL     1      -2.863  -8.563  -1.638  0.00  0.00    -0.010 C 
ATOM      7  C   UNL     1      -2.789 -10.090  -1.717  0.00  0.00    -0.082 C 
ATOM      8  N   UNL     1      -1.734 -10.484  -2.659  0.00  0.00    +0.379 N 
ATOM      9  C   UNL     1      -2.071 -10.018  -4.010  0.00  0.00    -0.082 C 
ATOM     10  C   UNL     1      -2.115  -8.488  -4.029  0.00  0.00    -0.010 C 
ATOM     11  C   UNL     1      -5.828  -7.214  -5.334  0.00  0.00    +0.220 C 
ATOM     12  O   UNL     1      -6.145  -8.255  -5.869  0.00  0.00    -0.275 OA
ATOM     13  H   UNL     1      -0.859 -10.073  -2.372  0.00  0.00    -0.086 HD
ATOM     14  H   UNL     1      -1.647 -11.489  -2.663  0.00  0.00    -0.086 HD
ENDROOT
BRANCH   1  16
ATOM     15  N   UNL     1      -1.640  -5.673  -1.214  0.00  0.00    -0.311 N 
ATOM     16  C   UNL     1      -2.901  -5.973  -1.586  0.00  0.00    +0.218 C 
ATOM     17  O   UNL     1      -3.812  -5.847  -0.796  0.00  0.00    -0.275 OA
ATOM     18  H   UNL     1      -0.911  -5.773  -1.847  0.00  0.00    +0.149 HD
BRANCH  15  19
ATOM     19  C   UNL     1      -1.371  -5.196   0.144  0.00  0.00    +0.143 C 
BRANCH  19  24
ATOM     20  C   UNL     1       2.266  -5.626   1.075  0.00  0.00    +0.121 A 
ATOM     21  C   UNL     1       2.818  -4.450   0.589  0.00  0.00    +0.049 A 
ATOM     22  C   UNL     1       2.015  -3.518  -0.038  0.00  0.00    +0.049 A 
ATOM     23  C   UNL     1       0.656  -3.758  -0.183  0.00  0.00    +0.125 A 
ATOM     24  C   UNL     1       0.105  -4.934   0.302  0.00  0.00    +0.015 A 
ATOM     25  C   UNL     1       0.909  -5.869   0.925  0.00  0.00    +0.054 A 
BRANCH  20  27
ATOM     26  C   UNL     1       4.445  -6.228   1.813  0.00  0.00    +0.277 C 
ATOM     27  O   UNL     1       3.057  -6.543   1.693  0.00  0.00    -0.495 OA
ENDBRANCH  20  27
BRANCH  23  28
ATOM     28  O   UNL     1      -0.135  -2.840  -0.801  0.00  0.00    -0.495 OA
ATOM     29  C   UNL     1       0.500  -1.651  -1.275  0.00  0.00    +0.277 C 
ENDBRANCH  23  28
ENDBRANCH  19  24
ENDBRANCH  15  19
ENDBRANCH   1  16
BRANCH  11  30
ATOM     30  C   UNL     1      -6.263  -5.899  -5.929  0.00  0.00    +0.131 C 
BRANCH  30  31
ATOM     31  C   UNL     1      -7.072  -6.154  -7.174  0.00  0.00    -0.039 A 
ATOM     32  C   UNL     1      -6.442  -6.243  -8.402  0.00  0.00    +0.005 A 
ATOM     33  C   UNL     1      -7.184  -6.477  -9.544  0.00  0.00    +0.020 A 
ATOM     34  C   UNL     1      -8.557  -6.622  -9.459  0.00  0.00    +0.041 A 
ATOM     35  C   UNL     1      -9.187  -6.533  -8.231  0.00  0.00    +0.020 A 
ATOM     36  C   UNL     1      -8.444  -6.304  -7.088  0.00  0.00    +0.005 A 
ATOM     37 CL   UNL     1      -9.489  -6.915 -10.894  0.00  0.00    -0.084 Cl
ENDBRANCH  30  31
ENDBRANCH  11  30
TORSDOF 7
