REMARK  Name = ZINC39467717
REMARK  6 active torsions:
REMARK  status: ('A' for Active; 'I' for Inactive)
REMARK    1  A    between atoms: C_5  and  C_7
REMARK    2  A    between atoms: C_7  and  N_8
REMARK    3  A    between atoms: C_21  and  N_25
REMARK    4  A    between atoms: N_25  and  C_26
REMARK    5  A    between atoms: C_26  and  C_27
REMARK    6  A    between atoms: C_27  and  C_28
REMARK                            x       y       z     vdW  Elec       q    Type
REMARK                         _______ _______ _______ _____ _____    ______ ____
ROOT
ATOM      1  N   UNL     1       1.488  -2.679   1.333  0.00  0.00    -0.257 N 
ATOM      2  C   UNL     1       2.780  -2.889   1.754  0.00  0.00    +0.186 C 
ATOM      3  N   UNL     1       3.045  -3.654   2.749  0.00  0.00    -0.261 NA
ATOM      4  C   UNL     1       2.013  -4.348   3.513  0.00  0.00    +0.184 C 
ATOM      5  C   UNL     1       0.706  -3.516   3.510  0.00  0.00    +0.137 C 
ATOM      6  C   UNL     1       0.461  -2.923   2.171  0.00  0.00    +0.231 C 
ATOM      7  O   UNL     1      -0.673  -2.675   1.822  0.00  0.00    -0.274 OA
ATOM      8  C   UNL     1       0.784  -2.401   4.522  0.00  0.00    -0.046 C 
ATOM      9  C   UNL     1       1.626  -2.563   5.540  0.00  0.00    -0.014 C 
ATOM     10  S   UNL     1       2.429  -4.180   5.306  0.00  0.00    -0.102 S 
ATOM     11  C   UNL     1       1.868  -1.611   6.674  0.00  0.00    +0.026 C 
ATOM     12  C   UNL     1       1.288  -0.241   6.301  0.00  0.00    -0.067 C 
ATOM     13  C   UNL     1      -0.130  -0.443   5.757  0.00  0.00    -0.011 C 
ATOM     14  C   UNL     1      -0.062  -1.137   4.397  0.00  0.00    +0.031 C 
ENDROOT
BRANCH  12  15
ATOM     15  N   UNL     1       1.246   0.618   7.492  0.00  0.00    +0.381 N 
ATOM     16  H   UNL     1       0.789   1.488   7.263  0.00  0.00    -0.086 HD
ATOM     17  H   UNL     1       0.733   0.151   8.225  0.00  0.00    -0.086 HD
BRANCH  15  18
ATOM     18  C   UNL     1       2.615   0.889   7.949  0.00  0.00    -0.077 C 
BRANCH  18  19
ATOM     19  C   UNL     1       2.571   1.783   9.190  0.00  0.00    +0.018 C 
BRANCH  19  20
ATOM     20  C   UNL     1       3.976   2.061   9.659  0.00  0.00    -0.024 A 
ATOM     21  C   UNL     1       4.865   3.117   9.168  0.00  0.00    +0.003 A 
ATOM     22  C   UNL     1       4.741   4.121   8.207  0.00  0.00    +0.010 A 
ATOM     23  C   UNL     1       5.785   4.973   7.978  0.00  0.00    +0.001 A 
ATOM     24  C   UNL     1       6.967   4.848   8.693  0.00  0.00    +0.002 A 
ATOM     25  C   UNL     1       7.111   3.865   9.647  0.00  0.00    +0.026 A 
ATOM     26  C   UNL     1       6.062   2.986   9.897  0.00  0.00    +0.047 A 
ATOM     27  N   UNL     1       5.897   1.927  10.761  0.00  0.00    -0.360 N 
ATOM     28  C   UNL     1       4.647   1.393  10.610  0.00  0.00    +0.087 A 
ATOM     29  H   UNL     1       6.567   1.610  11.388  0.00  0.00    +0.165 HD
ENDBRANCH  19  20
ENDBRANCH  18  19
ENDBRANCH  15  18
ENDBRANCH  12  15
BRANCH   1  30
ATOM     30  C   UNL     1       1.228  -2.186  -0.022  0.00  0.00    +0.152 C 
BRANCH  30  35
ATOM     31  C   UNL     1      -0.017   1.378   0.010  0.00  0.00    +0.000 A 
ATOM     32  C   UNL     1       1.171   2.087   0.002  0.00  0.00    +0.003 A 
ATOM     33  C   UNL     1       2.377   1.414  -0.013  0.00  0.00    +0.038 A 
ATOM     34  C   UNL     1       2.397   0.029  -0.021  0.00  0.00    +0.128 A 
ATOM     35  C   UNL     1       1.208  -0.679  -0.013  0.00  0.00    +0.005 A 
ATOM     36  C   UNL     1       0.002  -0.004   0.002  0.00  0.00    +0.008 A 
ATOM     37  F   UNL     1       3.577  -0.630  -0.036  0.00  0.00    -0.205 F 
ENDBRANCH  30  35
ENDBRANCH   1  30
TORSDOF 6
