REMARK  Name = ZINC65192395
REMARK  6 active torsions:
REMARK  status: ('A' for Active; 'I' for Inactive)
REMARK    1  A    between atoms: N_9  and  C_12
REMARK    2  A    between atoms: C_12  and  C_13
REMARK    3  A    between atoms: C_16  and  C_19
REMARK    4  A    between atoms: N_21  and  N_22
REMARK    5  A    between atoms: N_25  and  C_26
REMARK    6  A    between atoms: C_26  and  C_27
REMARK                            x       y       z     vdW  Elec       q    Type
REMARK                         _______ _______ _______ _____ _____    ______ ____
ROOT
ATOM      1  C   UNL     1       3.955  -3.850  -1.479  0.00  0.00    -0.030 A 
ATOM      2  C   UNL     1       3.039  -4.661  -2.125  0.00  0.00    +0.006 A 
ATOM      3  C   UNL     1       3.258  -5.051  -3.430  0.00  0.00    +0.013 A 
ATOM      4  C   UNL     1       4.407  -4.625  -4.098  0.00  0.00    +0.038 A 
ATOM      5  C   UNL     1       5.328  -3.808  -3.441  0.00  0.00    +0.013 A 
ATOM      6  C   UNL     1       5.093  -3.421  -2.137  0.00  0.00    +0.006 A 
ENDROOT
BRANCH   4   7
ATOM      7  C   UNL     1       4.649  -5.040  -5.497  0.00  0.00    +0.260 C 
ATOM      8  O   UNL     1       3.846  -5.752  -6.067  0.00  0.00    -0.269 OA
ATOM      9  N   UNL     1       5.760  -4.628  -6.139  0.00  0.00    -0.229 N 
ATOM     10  H   UNL     1       6.401  -4.059  -5.684  0.00  0.00    +0.173 HD
BRANCH   9  11
ATOM     11  N   UNL     1       5.989  -5.021  -7.465  0.00  0.00    -0.218 N 
ATOM     12  C   UNL     1       7.099  -4.609  -8.107  0.00  0.00    +0.316 C 
ATOM     13  O   UNL     1       7.298  -4.949  -9.257  0.00  0.00    -0.251 OA
ATOM     14  N   UNL     1       7.990  -3.818  -7.475  0.00  0.00    -0.298 N 
ATOM     15  H   UNL     1       5.348  -5.589  -7.920  0.00  0.00    +0.174 HD
ATOM     16  H   UNL     1       7.831  -3.547  -6.558  0.00  0.00    +0.150 HD
BRANCH  14  17
ATOM     17  C   UNL     1       9.197  -3.370  -8.174  0.00  0.00    +0.109 C 
BRANCH  17  18
ATOM     18  C   UNL     1      10.031  -2.493  -7.238  0.00  0.00    +0.006 C 
ATOM     19  C   UNL     1      10.234  -1.030  -7.636  0.00  0.00    +0.005 C 
ATOM     20  C   UNL     1      11.396  -2.019  -7.744  0.00  0.00    +0.005 C 
ENDBRANCH  17  18
ENDBRANCH  14  17
ENDBRANCH   9  11
ENDBRANCH   4   7
BRANCH   1  21
ATOM     21  C   UNL     1       3.709  -3.428  -0.053  0.00  0.00    +0.152 C 
BRANCH  21  30
ATOM     22  C   UNL     1      -0.017   1.382   0.010  0.00  0.00    +0.001 A 
ATOM     23  C   UNL     1       1.165   2.099   0.002  0.00  0.00    +0.001 A 
ATOM     24  C   UNL     1       2.385   1.442  -0.013  0.00  0.00    +0.014 A 
ATOM     25  C   UNL     1       2.420   0.056  -0.021  0.00  0.00    +0.049 A 
ATOM     26  C   UNL     1       1.215  -0.675  -0.013  0.00  0.00    +0.049 A 
ATOM     27  C   UNL     1       0.002  -0.004   0.002  0.00  0.00    +0.014 A 
ATOM     28  C   UNL     1       1.606  -2.100  -0.025  0.00  0.00    +0.254 C 
ATOM     29  O   UNL     1       0.843  -3.045  -0.023  0.00  0.00    -0.270 OA
ATOM     30  N   UNL     1       2.949  -2.175  -0.039  0.00  0.00    -0.230 N 
ATOM     31  C   UNL     1       3.503  -0.949  -0.038  0.00  0.00    +0.254 C 
ATOM     32  O   UNL     1       4.693  -0.709  -0.049  0.00  0.00    -0.270 OA
ENDBRANCH  21  30
ENDBRANCH   1  21
TORSDOF 6
