REMARK  Name = ZINC14546942
REMARK  5 active torsions:
REMARK  status: ('A' for Active; 'I' for Inactive)
REMARK    1  A    between atoms: C_1  and  C_2
REMARK    2  A    between atoms: C_2  and  C_4
REMARK    3  A    between atoms: C_4  and  O_5
REMARK    4  A    between atoms: O_5  and  C_6
REMARK    5  A    between atoms: C_13  and  C_22
REMARK                            x       y       z     vdW  Elec       q    Type
REMARK                         _______ _______ _______ _____ _____    ______ ____
ROOT
ATOM      1  C   UNL     1       1.454   3.029   0.168  0.00  0.00    +0.142 A 
ATOM      2  C   UNL     1       0.129   2.655   0.285  0.00  0.00    +0.047 A 
ATOM      3  C   UNL     1      -0.211   1.317   0.362  0.00  0.00    +0.004 A 
ATOM      4  C   UNL     1       0.781   0.356   0.330  0.00  0.00    +0.006 A 
ATOM      5  C   UNL     1       2.108   0.720   0.221  0.00  0.00    -0.016 A 
ATOM      6  C   UNL     1       2.468   2.065   0.126  0.00  0.00    +0.074 A 
ATOM      7  N   UNL     1       3.780   2.515  -0.031  0.00  0.00    -0.334 N 
ATOM      8  C   UNL     1       4.840   1.495   0.031  0.00  0.00    +0.108 C 
ATOM      9  C   UNL     1       4.324   0.271  -0.697  0.00  0.00    +0.029 C 
ATOM     10  C   UNL     1       3.193  -0.286   0.223  0.00  0.00    +0.049 C 
ATOM     11  C   UNL     1       3.003  -1.669  -0.278  0.00  0.00    -0.023 C 
ATOM     12  C   UNL     1       4.152  -2.093  -0.794  0.00  0.00    -0.030 C 
ATOM     13  C   UNL     1       5.204  -0.984  -0.705  0.00  0.00    +0.033 C 
ATOM     14  H   UNL     1       3.978   3.280   0.595  0.00  0.00    +0.147 HD
ENDROOT
BRANCH   8  15
ATOM     15  C   UNL     1       5.139   1.152   1.467  0.00  0.00    +0.010 A 
ATOM     16  C   UNL     1       4.307   1.605   2.475  0.00  0.00    +0.047 A 
ATOM     17  C   UNL     1       4.579   1.286   3.793  0.00  0.00    +0.020 A 
ATOM     18  C   UNL     1       5.688   0.522   4.104  0.00  0.00    +0.003 A 
ATOM     19  C   UNL     1       6.523   0.073   3.098  0.00  0.00    +0.020 A 
ATOM     20  C   UNL     1       6.249   0.387   1.779  0.00  0.00    +0.047 A 
ATOM     21 CL   UNL     1       7.298  -0.176   0.516  0.00  0.00    -0.083 Cl
ATOM     22 CL   UNL     1       2.918   2.570   2.084  0.00  0.00    -0.083 Cl
ENDBRANCH   8  15
BRANCH   1  23
ATOM     23  O   UNL     1       1.776   4.349   0.091  0.00  0.00    -0.486 OA
BRANCH  23  24
ATOM     24  C   UNL     1       0.697   5.284   0.139  0.00  0.00    +0.259 C 
BRANCH  24  26
ATOM     25  C   UNL     1       0.302   7.863   0.070  0.00  0.00    +0.042 C 
ATOM     26  C   UNL     1       1.242   6.685   0.042  0.00  0.00    -0.043 C 
ATOM     27  C   UNL     1       2.533   6.880  -0.065  0.00  0.00    +0.011 C 
ENDBRANCH  24  26
ENDBRANCH  23  24
ENDBRANCH   1  23
TORSDOF 4
