REMARK  Name = ZINC08960019
REMARK  12 active torsions:
REMARK  status: ('A' for Active; 'I' for Inactive)
REMARK    1  A    between atoms: C_1  and  C_2
REMARK    2  A    between atoms: C_2  and  O_3
REMARK    3  A    between atoms: O_3  and  C_4
REMARK    4  A    between atoms: C_4  and  C_6
REMARK    5  A    between atoms: C_10  and  N_11
REMARK    6  A    between atoms: C_12  and  C_14
REMARK    7  A    between atoms: C_20  and  O_23
REMARK    8  A    between atoms: O_23  and  C_24
REMARK    9  A    between atoms: C_25  and  C_30
REMARK   10  A    between atoms: C_25  and  C_31
REMARK   11  A    between atoms: C_26  and  C_28
REMARK   12  A    between atoms: C_26  and  C_29
REMARK                            x       y       z     vdW  Elec       q    Type
REMARK                         _______ _______ _______ _____ _____    ______ ____
ROOT
ATOM      1  C   UNL     1       1.316  -0.611  -0.021  0.00  0.00    +0.091 A 
ATOM      2  C   UNL     1       0.002  -0.004   0.002  0.00  0.00    -0.024 A 
ATOM      3  C   UNL     1      -0.016   1.349   0.009  0.00  0.00    -0.016 A 
ATOM      4  S   UNL     1       1.689   1.819  -0.004  0.00  0.00    -0.079 S 
ATOM      5  C   UNL     1       2.414   0.245  -0.024  0.00  0.00    +0.087 A 
ATOM      6  C   UNL     1      -1.228   2.223   0.019  0.00  0.00    -0.041 C 
ATOM      7  C   UNL     1      -2.332   0.118   0.787  0.00  0.00    -0.069 C 
ATOM      8  C   UNL     1      -1.325  -0.750   0.024  0.00  0.00    +0.024 C 
ATOM      9  C   UNL     1      -3.706  -0.574   0.710  0.00  0.00    -0.010 C 
ATOM     10  C   UNL     1      -1.923   0.189   2.261  0.00  0.00    -0.010 C 
ATOM     11  C   UNL     1      -1.085   3.280   1.123  0.00  0.00    -0.005 C 
ATOM     12  C   UNL     1      -1.308   2.955  -1.334  0.00  0.00    -0.005 C 
ATOM     13  N   UNL     1      -2.504   1.471   0.197  0.00  0.00    +0.389 N 
ATOM     14  H   UNL     1      -2.949   1.368  -0.723  0.00  0.00    -0.084 HD
ATOM     15  H   UNL     1      -3.116   2.017   0.814  0.00  0.00    -0.084 HD
ENDROOT
BRANCH   5  16
ATOM     16  N   UNL     1       3.759  -0.084  -0.039  0.00  0.00    -0.273 N 
ATOM     17  C   UNL     1       4.691   0.890  -0.039  0.00  0.00    +0.284 C 
ATOM     18  O   UNL     1       4.350   2.058  -0.025  0.00  0.00    -0.266 OA
ATOM     19  H   UNL     1       4.030  -1.015  -0.050  0.00  0.00    +0.156 HD
BRANCH  17  20
ATOM     20  C   UNL     1       6.117   0.541  -0.056  0.00  0.00    +0.191 A 
ATOM     21  C   UNL     1       7.141   1.434  -0.057  0.00  0.00    +0.063 A 
ATOM     22  C   UNL     1       8.370   0.642  -0.075  0.00  0.00    +0.025 A 
ATOM     23  C   UNL     1       9.732   0.958  -0.086  0.00  0.00    +0.012 A 
ATOM     24  C   UNL     1      10.661  -0.043  -0.103  0.00  0.00    +0.004 A 
ATOM     25  C   UNL     1      10.264  -1.373  -0.112  0.00  0.00    +0.049 A 
ATOM     26  C   UNL     1       8.923  -1.708  -0.102  0.00  0.00    +0.163 A 
ATOM     27  C   UNL     1       7.958  -0.702  -0.083  0.00  0.00    +0.177 A 
ATOM     28  O   UNL     1       6.610  -0.715  -0.066  0.00  0.00    -0.447 OA
BRANCH  26  29
ATOM     29  O   UNL     1       8.546  -3.015  -0.109  0.00  0.00    -0.491 OA
ATOM     30  C   UNL     1       9.590  -3.991  -0.128  0.00  0.00    +0.277 C 
ENDBRANCH  26  29
ENDBRANCH  17  20
ENDBRANCH   5  16
BRANCH   1  31
ATOM     31  C   UNL     1       1.497  -2.064  -0.044  0.00  0.00    +0.342 C 
ATOM     32  O   UNL     1       1.560  -2.652  -1.107  0.00  0.00    -0.245 OA
BRANCH  31  33
ATOM     33  O   UNL     1       1.592  -2.750   1.113  0.00  0.00    -0.461 OA
BRANCH  33  35
ATOM     34  C   UNL     1       1.857  -4.789   2.418  0.00  0.00    +0.048 C 
ATOM     35  C   UNL     1       1.770  -4.188   1.014  0.00  0.00    +0.229 C 
ENDBRANCH  33  35
ENDBRANCH  31  33
ENDBRANCH   1  31
TORSDOF 6
