REMARK  Name = ZINC38686164
REMARK  16 active torsions:
REMARK  status: ('A' for Active; 'I' for Inactive)
REMARK    1  A    between atoms: C_1  and  C_2
REMARK    2  A    between atoms: C_2  and  C_3
REMARK    3  A    between atoms: C_3  and  C_4
REMARK    4  A    between atoms: C_4  and  C_5
REMARK    5  A    between atoms: C_5  and  O_6
REMARK    6  A    between atoms: O_6  and  C_7
REMARK    7  A    between atoms: C_12  and  C_13
REMARK    8  A    between atoms: C_18  and  O_27
REMARK    9  A    between atoms: C_22  and  N_26
REMARK   10  A    between atoms: C_23  and  C_24
REMARK   11  A    between atoms: O_27  and  C_28
REMARK   12  A    between atoms: C_28  and  C_30
REMARK   13  A    between atoms: C_30  and  O_31
REMARK   14  A    between atoms: O_31  and  C_32
REMARK   15  A    between atoms: C_35  and  C_39
REMARK   16  A    between atoms: C_36  and  C_38
REMARK                            x       y       z     vdW  Elec       q    Type
REMARK                         _______ _______ _______ _____ _____    ______ ____
ROOT
ATOM      1  C   UNL     1      -2.801  -6.900   0.028  0.00  0.00    +0.101 C 
ATOM      2  C   UNL     1      -2.769  -7.740  -1.220  0.00  0.00    +0.008 A 
ATOM      3  C   UNL     1      -2.560  -7.132  -2.445  0.00  0.00    +0.012 A 
ATOM      4  C   UNL     1      -2.528  -7.887  -3.601  0.00  0.00    +0.047 A 
ATOM      5  C   UNL     1      -2.705  -9.262  -3.536  0.00  0.00    +0.135 A 
ATOM      6  C   UNL     1      -2.914  -9.874  -2.311  0.00  0.00    +0.093 A 
ATOM      7  C   UNL     1      -2.947  -9.113  -1.150  0.00  0.00    +0.138 A 
ATOM      8  O   UNL     1      -3.152  -9.728   0.041  0.00  0.00    -0.441 OA
ATOM      9  C   UNL     1      -2.811  -9.107   1.183  0.00  0.00    +0.199 C 
ATOM     10  C   UNL     1      -2.631  -7.770   1.242  0.00  0.00    +0.098 C 
ENDROOT
BRANCH   1  16
ATOM     11  C   UNL     1      -4.158  -4.793   0.131  0.00  0.00    +0.125 A 
ATOM     12  C   UNL     1      -5.377  -4.134   0.203  0.00  0.00    +0.046 A 
ATOM     13  C   UNL     1      -6.551  -4.859   0.259  0.00  0.00    +0.004 A 
ATOM     14  C   UNL     1      -6.513  -6.241   0.245  0.00  0.00    +0.001 A 
ATOM     15  C   UNL     1      -5.300  -6.901   0.174  0.00  0.00    +0.008 A 
ATOM     16  C   UNL     1      -4.123  -6.180   0.112  0.00  0.00    +0.007 A 
BRANCH  11  17
ATOM     17  O   UNL     1      -3.002  -4.082   0.075  0.00  0.00    -0.492 OA
BRANCH  17  18
ATOM     18  C   UNL     1      -3.114  -2.658   0.099  0.00  0.00    +0.229 C 
BRANCH  18  19
ATOM     19  C   UNL     1      -1.718  -2.035   0.028  0.00  0.00    +0.041 C 
BRANCH  19  20
ATOM     20  C   UNL     1      -1.839  -0.510   0.054  0.00  0.00    +0.003 C 
BRANCH  20  22
ATOM     21  C   UNL     1      -0.563   1.638   0.009  0.00  0.00    +0.004 C 
ATOM     22  C   UNL     1      -0.443   0.113  -0.017  0.00  0.00    -0.003 C 
ENDBRANCH  20  22
ENDBRANCH  19  20
ENDBRANCH  18  19
ENDBRANCH  17  18
ENDBRANCH  11  17
ENDBRANCH   1  16
BRANCH   9  23
ATOM     23  N   UNL     1      -2.642  -9.854   2.322  0.00  0.00    -0.328 N 
ATOM     24  H   UNL     1      -2.769 -10.816   2.295  0.00  0.00    +0.145 HD
ATOM     25  H   UNL     1      -2.395  -9.421   3.154  0.00  0.00    +0.145 HD
ENDBRANCH   9  23
BRANCH  10  26
ATOM     26  C   UNL     1      -2.268  -7.170   2.490  0.00  0.00    +0.101 C 
ATOM     27  N   UNL     1      -1.981  -6.694   3.481  0.00  0.00    -0.191 NA
ENDBRANCH  10  26
BRANCH   5  28
ATOM     28  O   UNL     1      -2.673 -10.007  -4.673  0.00  0.00    -0.423 OA
BRANCH  28  29
ATOM     29  C   UNL     1      -3.820 -10.565  -5.093  0.00  0.00    +0.350 C 
ATOM     30  O   UNL     1      -4.857 -10.314  -4.525  0.00  0.00    -0.247 OA
BRANCH  29  31
ATOM     31  C   UNL     1      -3.814 -11.504  -6.271  0.00  0.00    +0.349 C 
BRANCH  31  32
ATOM     32  O   UNL     1      -5.144 -11.963  -6.522  0.00  0.00    -0.481 OA
BRANCH  32  33
ATOM     33  C   UNL     1      -5.314 -12.823  -7.560  0.00  0.00    +0.122 A 
ATOM     34  C   UNL     1      -4.223 -13.223  -8.318  0.00  0.00    +0.046 A 
ATOM     35  C   UNL     1      -4.398 -14.098  -9.372  0.00  0.00    +0.007 A 
ATOM     36  C   UNL     1      -5.661 -14.576  -9.672  0.00  0.00    -0.047 A 
ATOM     37  C   UNL     1      -6.750 -14.179  -8.919  0.00  0.00    -0.044 A 
ATOM     38  C   UNL     1      -6.578 -13.308  -7.860  0.00  0.00    +0.049 A 
ATOM     39  C   UNL     1      -8.124 -14.702  -9.249  0.00  0.00    +0.044 C 
ATOM     40  C   UNL     1      -5.849 -15.531 -10.822  0.00  0.00    +0.044 C 
ENDBRANCH  32  33
ENDBRANCH  31  32
ENDBRANCH  29  31
ENDBRANCH  28  29
ENDBRANCH   5  28
TORSDOF 13
