REMARK  Name = ZINC00891517
REMARK  12 active torsions:
REMARK  status: ('A' for Active; 'I' for Inactive)
REMARK    1  A    between atoms: C_1  and  C_2
REMARK    2  A    between atoms: C_6  and  C_8
REMARK    3  A    between atoms: C_8  and  C_9
REMARK    4  A    between atoms: C_9  and  N_10
REMARK    5  A    between atoms: N_10  and  C_11
REMARK    6  A    between atoms: N_10  and  C_28
REMARK    7  A    between atoms: C_11  and  C_12
REMARK    8  A    between atoms: C_28  and  N_30
REMARK    9  A    between atoms: N_30  and  C_31
REMARK   10  A    between atoms: C_36  and  C_37
REMARK   11  A    between atoms: C_37  and  O_39
REMARK   12  A    between atoms: O_39  and  C_40
REMARK                            x       y       z     vdW  Elec       q    Type
REMARK                         _______ _______ _______ _____ _____    ______ ____
ROOT
ATOM      1  N   UNL     1       1.377  -3.612   3.993  0.00  0.00    -0.308 N 
ENDROOT
BRANCH   1   2
ATOM      2  C   UNL     1       1.519  -2.983   5.176  0.00  0.00    +0.137 C 
ATOM      3  S   UNL     1       2.085  -3.846   6.542  0.00  0.00    -0.018 S 
BRANCH   2   4
ATOM      4  N   UNL     1       1.215  -1.674   5.285  0.00  0.00    -0.296 N 
ATOM      5  H   UNL     1       0.974  -1.165   4.495  0.00  0.00    +0.154 HD
BRANCH   4   6
ATOM      6  C   UNL     1       1.248  -1.053   6.529  0.00  0.00    +0.047 A 
ATOM      7  C   UNL     1       0.658  -1.661   7.629  0.00  0.00    +0.024 A 
ATOM      8  C   UNL     1       0.692  -1.043   8.863  0.00  0.00    +0.002 A 
ATOM      9  C   UNL     1       1.314   0.186   9.015  0.00  0.00    +0.001 A 
ATOM     10  C   UNL     1       1.906   0.804   7.936  0.00  0.00    +0.017 A 
ATOM     11  C   UNL     1       1.884   0.189   6.681  0.00  0.00    +0.080 A 
BRANCH  11  12
ATOM     12  C   UNL     1       2.520   0.843   5.524  0.00  0.00    +0.341 C 
ATOM     13  O   UNL     1       2.536   0.285   4.444  0.00  0.00    -0.245 OA
BRANCH  12  14
ATOM     14  O   UNL     1       3.083   2.060   5.662  0.00  0.00    -0.464 OA
ATOM     15  C   UNL     1       3.681   2.634   4.498  0.00  0.00    +0.280 C 
ENDBRANCH  12  14
ENDBRANCH  11  12
ENDBRANCH   4   6
ENDBRANCH   2   4
ENDBRANCH   1   2
BRANCH   1  16
ATOM     16  C   UNL     1       0.893  -2.873   2.824  0.00  0.00    +0.112 C 
BRANCH  16  17
ATOM     17  C   UNL     1      -0.634  -2.960   2.763  0.00  0.00    +0.054 C 
BRANCH  17  23
ATOM     18  C   UNL     1      -2.244   1.302   0.691  0.00  0.00    +0.044 C 
ATOM     19  C   UNL     1      -1.903  -0.161   0.570  0.00  0.00    -0.050 A 
ATOM     20  C   UNL     1      -2.048  -0.806  -0.645  0.00  0.00    +0.003 A 
ATOM     21  C   UNL     1      -1.735  -2.148  -0.756  0.00  0.00    +0.001 A 
ATOM     22  C   UNL     1      -1.278  -2.845   0.347  0.00  0.00    +0.004 A 
ATOM     23  C   UNL     1      -1.132  -2.200   1.560  0.00  0.00    -0.046 A 
ATOM     24  C   UNL     1      -1.440  -0.857   1.671  0.00  0.00    +0.007 A 
ENDBRANCH  17  23
ENDBRANCH  16  17
ENDBRANCH   1  16
BRANCH   1  25
ATOM     25  C   UNL     1       1.707  -5.034   3.875  0.00  0.00    +0.147 C 
BRANCH  25  26
ATOM     26  C   UNL     1       3.158  -5.183   3.494  0.00  0.00    +0.035 A 
ATOM     27  C   UNL     1       4.093  -5.383   4.458  0.00  0.00    +0.020 A 
ATOM     28  C   UNL     1       5.492  -5.525   4.056  0.00  0.00    +0.003 A 
ATOM     29  C   UNL     1       6.499  -5.731   5.007  0.00  0.00    +0.059 A 
ATOM     30  C   UNL     1       7.809  -5.862   4.599  0.00  0.00    +0.163 A 
ATOM     31  C   UNL     1       8.134  -5.791   3.241  0.00  0.00    +0.164 A 
ATOM     32  C   UNL     1       7.145  -5.584   2.294  0.00  0.00    +0.075 A 
ATOM     33  C   UNL     1       5.821  -5.450   2.689  0.00  0.00    +0.053 A 
ATOM     34  N   UNL     1       4.822  -5.244   1.759  0.00  0.00    -0.322 N 
ATOM     35  H   UNL     1       5.049  -5.192   0.817  0.00  0.00    +0.169 HD
ATOM     36  C   UNL     1       3.538  -5.120   2.139  0.00  0.00    +0.254 A 
ATOM     37  O   UNL     1       2.682  -4.945   1.289  0.00  0.00    -0.268 OA
ATOM     38  O   UNL     1       9.424  -5.927   2.829  0.00  0.00    -0.485 OA
ATOM     39  C   UNL     1      10.439  -5.759   3.824  0.00  0.00    +0.270 C 
ATOM     40  C   UNL     1      10.034  -6.563   5.067  0.00  0.00    +0.270 C 
ATOM     41  O   UNL     1       8.778  -6.060   5.536  0.00  0.00    -0.485 OA
ENDBRANCH  25  26
ENDBRANCH   1  25
TORSDOF 10
