REMARK  Name = ZINC41584916
REMARK  7 active torsions:
REMARK  status: ('A' for Active; 'I' for Inactive)
REMARK    1  A    between atoms: C_4  and  C_7
REMARK    2  A    between atoms: C_7  and  N_8
REMARK    3  A    between atoms: N_11  and  C_14
REMARK    4  A    between atoms: C_14  and  C_15
REMARK    5  A    between atoms: C_16  and  O_38
REMARK    6  A    between atoms: C_23  and  C_24
REMARK    7  A    between atoms: C_27  and  C_30
REMARK                            x       y       z     vdW  Elec       q    Type
REMARK                         _______ _______ _______ _____ _____    ______ ____
ROOT
ATOM      1  C   UNL     1       6.761  -3.807   4.212  0.00  0.00    +0.051 A 
ATOM      2  C   UNL     1       6.686  -5.190   4.253  0.00  0.00    +0.125 A 
ATOM      3  C   UNL     1       7.821  -5.953   4.511  0.00  0.00    +0.046 A 
ATOM      4  C   UNL     1       9.024  -5.342   4.727  0.00  0.00    +0.019 A 
ATOM      5  C   UNL     1       9.114  -3.950   4.689  0.00  0.00    +0.068 A 
ATOM      6  C   UNL     1       7.977  -3.170   4.423  0.00  0.00    +0.147 A 
ATOM      7  O   UNL     1       8.311  -1.861   4.430  0.00  0.00    -0.451 OA
ATOM      8  C   UNL     1       9.628  -1.679   4.682  0.00  0.00    +0.176 C 
ATOM      9  C   UNL     1      10.273  -0.487   4.756  0.00  0.00    +0.058 C 
ATOM     10  C   UNL     1      10.232  -3.007   4.875  0.00  0.00    +0.231 C 
ATOM     11  O   UNL     1      11.396  -3.269   5.119  0.00  0.00    -0.283 OA
ENDROOT
BRANCH   9  12
ATOM     12  C   UNL     1       9.509   0.766   4.695  0.00  0.00    -0.021 A 
ATOM     13  C   UNL     1       8.109   0.737   4.734  0.00  0.00    +0.008 A 
ATOM     14  C   UNL     1       7.402   1.903   4.677  0.00  0.00    +0.009 A 
ATOM     15  C   UNL     1       8.072   3.124   4.581  0.00  0.00    -0.018 A 
ATOM     16  C   UNL     1       9.467   3.156   4.542  0.00  0.00    +0.009 A 
ATOM     17  C   UNL     1      10.180   1.993   4.603  0.00  0.00    +0.008 A 
BRANCH  15  18
ATOM     18  C   UNL     1       7.301   4.389   4.519  0.00  0.00    -0.018 A 
ATOM     19  C   UNL     1       5.908   4.362   4.563  0.00  0.00    +0.008 A 
ATOM     20  C   UNL     1       5.195   5.542   4.506  0.00  0.00    +0.001 A 
ATOM     21  C   UNL     1       5.861   6.751   4.405  0.00  0.00    +0.000 A 
ATOM     22  C   UNL     1       7.243   6.784   4.360  0.00  0.00    +0.001 A 
ATOM     23  C   UNL     1       7.967   5.610   4.423  0.00  0.00    +0.008 A 
ENDBRANCH  15  18
ENDBRANCH   9  12
BRANCH   2  24
ATOM     24  O   UNL     1       5.495  -5.806   4.040  0.00  0.00    -0.506 OA
ATOM     25  H   UNL     1       5.323  -6.019   3.113  0.00  0.00    +0.292 HD
ENDBRANCH   2  24
BRANCH   1  26
ATOM     26  C   UNL     1       5.524  -2.993   3.931  0.00  0.00    +0.126 C 
BRANCH  26  30
ATOM     27  N   UNL     1       5.035  -1.206   0.132  0.00  0.00    +0.384 N 
ATOM     28  C   UNL     1       3.957  -2.069   0.633  0.00  0.00    -0.063 C 
ATOM     29  C   UNL     1       4.080  -2.209   2.152  0.00  0.00    +0.066 C 
ATOM     30  N   UNL     1       5.389  -2.789   2.483  0.00  0.00    -0.301 NA
ATOM     31  C   UNL     1       6.479  -1.949   1.966  0.00  0.00    +0.066 C 
ATOM     32  C   UNL     1       6.336  -1.810   0.449  0.00  0.00    -0.063 C 
ATOM     33  H   UNL     1       4.971  -0.299   0.570  0.00  0.00    -0.081 HD
BRANCH  27  34
ATOM     34  C   UNL     1       4.906  -1.056  -1.323  0.00  0.00    -0.043 C 
BRANCH  34  38
ATOM     35  C   UNL     1       1.282   1.016  -2.229  0.00  0.00    +0.000 A 
ATOM     36  C   UNL     1       2.451   1.725  -2.026  0.00  0.00    +0.000 A 
ATOM     37  C   UNL     1       3.624   1.054  -1.733  0.00  0.00    +0.002 A 
ATOM     38  C   UNL     1       3.628  -0.325  -1.642  0.00  0.00    -0.064 A 
ATOM     39  C   UNL     1       2.458  -1.034  -1.844  0.00  0.00    +0.002 A 
ATOM     40  C   UNL     1       1.286  -0.364  -2.139  0.00  0.00    +0.000 A 
ENDBRANCH  34  38
ENDBRANCH  27  34
ENDBRANCH  26  30
ENDBRANCH   1  26
TORSDOF 7
