REMARK  Name = ZINC64057386
REMARK  6 active torsions:
REMARK  status: ('A' for Active; 'I' for Inactive)
REMARK    1  A    between atoms: C_1  and  C_2
REMARK    2  A    between atoms: C_14  and  C_27
REMARK    3  A    between atoms: N_17  and  C_18
REMARK    4  A    between atoms: C_18  and  C_19
REMARK    5  A    between atoms: C_19  and  C_20
REMARK    6  A    between atoms: N_25  and  C_26
REMARK                            x       y       z     vdW  Elec       q    Type
REMARK                         _______ _______ _______ _____ _____    ______ ____
ROOT
ATOM      1  C   UNL     1      -0.114   1.656   0.390  0.00  0.00    +0.026 C 
ATOM      2  C   UNL     1      -0.089   0.144   0.155  0.00  0.00    +0.080 C 
ATOM      3  C   UNL     1      -1.496  -0.429   0.338  0.00  0.00    +0.124 C 
ATOM      4  C   UNL     1      -1.352  -1.945   0.256  0.00  0.00    -0.028 C 
ATOM      5  C   UNL     1      -2.201  -2.353  -0.676  0.00  0.00    -0.000 A 
ATOM      6  C   UNL     1      -2.576  -3.698  -1.143  0.00  0.00    +0.010 A 
ATOM      7  C   UNL     1      -3.488  -3.751  -2.148  0.00  0.00    +0.001 A 
ATOM      8  C   UNL     1      -4.059  -2.615  -2.731  0.00  0.00    +0.002 A 
ATOM      9  C   UNL     1      -3.778  -1.340  -2.361  0.00  0.00    +0.026 A 
ATOM     10  C   UNL     1      -2.836  -1.155  -1.308  0.00  0.00    +0.043 A 
ATOM     11  N   UNL     1      -2.405  -0.044  -0.741  0.00  0.00    -0.376 N 
ATOM     12  C   UNL     1      -0.322  -2.687   1.073  0.00  0.00    +0.063 C 
ATOM     13  C   UNL     1       1.003  -1.926   0.887  0.00  0.00    +0.097 C 
ATOM     14  N   UNL     1       0.803  -0.495   1.134  0.00  0.00    -0.296 NA
ATOM     15  H   UNL     1      -2.639   0.864  -0.989  0.00  0.00    +0.160 HD
ENDROOT
BRANCH  12  16
ATOM     16  C   UNL     1      -0.720  -2.693   2.526  0.00  0.00    -0.021 A 
ATOM     17  C   UNL     1      -0.879  -1.499   3.204  0.00  0.00    +0.006 A 
ATOM     18  C   UNL     1      -1.243  -1.504   4.538  0.00  0.00    +0.000 A 
ATOM     19  C   UNL     1      -1.449  -2.703   5.194  0.00  0.00    +0.001 A 
ATOM     20  C   UNL     1      -1.290  -3.897   4.518  0.00  0.00    +0.020 A 
ATOM     21  C   UNL     1      -0.931  -3.893   3.181  0.00  0.00    +0.045 A 
ATOM     22 CL   UNL     1      -0.738  -5.393   2.329  0.00  0.00    -0.083 Cl
ENDBRANCH  12  16
BRANCH  14  23
ATOM     23  C   UNL     1       2.089   0.210   1.215  0.00  0.00    +0.094 C 
BRANCH  23  24
ATOM     24  C   UNL     1       2.839  -0.237   2.471  0.00  0.00    +0.111 C 
BRANCH  24  25
ATOM     25  C   UNL     1       4.158   0.487   2.554  0.00  0.00    +0.222 C 
ATOM     26  O   UNL     1       4.468   1.282   1.692  0.00  0.00    -0.275 OA
ATOM     27  N   UNL     1       4.993   0.251   3.585  0.00  0.00    -0.240 N 
ATOM     28  C   UNL     1       6.173   0.898   3.659  0.00  0.00    +0.306 C 
ATOM     29  O   UNL     1       6.484   1.695   2.795  0.00  0.00    -0.252 OA
ATOM     30  N   UNL     1       7.008   0.662   4.689  0.00  0.00    -0.302 N 
ATOM     31  C   UNL     1       8.290   1.366   4.770  0.00  0.00    +0.129 C 
ATOM     32  H   UNL     1       4.745  -0.385   4.274  0.00  0.00    +0.159 HD
ATOM     33  H   UNL     1       6.760   0.026   5.379  0.00  0.00    +0.150 HD
ENDBRANCH  24  25
ENDBRANCH  23  24
ENDBRANCH  14  23
TORSDOF 4
