REMARK  Name = ZINC09096691
REMARK  8 active torsions:
REMARK  status: ('A' for Active; 'I' for Inactive)
REMARK    1  A    between atoms: C_1  and  C_2
REMARK    2  A    between atoms: C_2  and  O_3
REMARK    3  A    between atoms: O_3  and  C_4
REMARK    4  A    between atoms: C_7  and  N_10
REMARK    5  A    between atoms: C_20  and  C_22
REMARK    6  A    between atoms: C_22  and  S_23
REMARK    7  A    between atoms: S_23  and  C_24
REMARK    8  A    between atoms: C_27  and  C_29
REMARK                            x       y       z     vdW  Elec       q    Type
REMARK                         _______ _______ _______ _____ _____    ______ ____
ROOT
ATOM      1  N   UNL     1      -4.341  -5.728   0.103  0.00  0.00    -0.328 N 
ATOM      2  C   UNL     1      -3.247  -6.546  -0.057  0.00  0.00    +0.180 C 
ATOM      3  N   UNL     1      -2.047  -6.040  -0.041  0.00  0.00    -0.371 N 
ATOM      4  N   UNL     1      -3.421  -7.904  -0.235  0.00  0.00    -0.298 N 
ATOM      5  C   UNL     1      -4.675  -8.455  -0.127  0.00  0.00    +0.211 A 
ATOM      6  N   UNL     1      -4.812  -9.808  -0.142  0.00  0.00    -0.293 N 
ATOM      7  H   UNL     1      -4.031 -10.376  -0.228  0.00  0.00    +0.172 HD
ATOM      8  C   UNL     1      -6.041 -10.358  -0.036  0.00  0.00    +0.253 A 
ATOM      9  O   UNL     1      -6.183 -11.570  -0.047  0.00  0.00    -0.268 OA
ATOM     10  C   UNL     1      -7.154  -9.507   0.087  0.00  0.00    +0.094 A 
ATOM     11  C   UNL     1      -6.954  -8.158   0.096  0.00  0.00    +0.060 A 
ATOM     12  N   UNL     1      -5.721  -7.665  -0.007  0.00  0.00    -0.218 NA
ATOM     13  H   UNL     1      -5.229  -6.112   0.174  0.00  0.00    +0.169 HD
ATOM     14  H   UNL     1      -1.279  -6.606  -0.217  0.00  0.00    +0.159 HD
ATOM     15  H   UNL     1      -2.658  -8.468  -0.436  0.00  0.00    +0.172 HD
ATOM     16  H   UNL     1      -1.921  -5.097   0.148  0.00  0.00    +0.159 HD
ENDROOT
BRANCH   1  20
ATOM     17  C   UNL     1      -3.840  -1.592   0.283  0.00  0.00    +0.121 A 
ATOM     18  C   UNL     1      -3.054  -2.420   1.070  0.00  0.00    +0.047 A 
ATOM     19  C   UNL     1      -3.219  -3.790   1.011  0.00  0.00    +0.029 A 
ATOM     20  C   UNL     1      -4.173  -4.338   0.164  0.00  0.00    +0.042 A 
ATOM     21  C   UNL     1      -4.960  -3.508  -0.623  0.00  0.00    +0.029 A 
ATOM     22  C   UNL     1      -4.798  -2.138  -0.559  0.00  0.00    +0.047 A 
BRANCH  17  23
ATOM     23  O   UNL     1      -3.677  -0.243   0.342  0.00  0.00    -0.492 OA
BRANCH  23  25
ATOM     24  C   UNL     1      -2.637   1.779   1.161  0.00  0.00    +0.048 C 
ATOM     25  C   UNL     1      -2.673   0.251   1.231  0.00  0.00    +0.225 C 
ENDBRANCH  23  25
ENDBRANCH  17  23
ENDBRANCH   1  20
BRANCH  11  26
ATOM     26  C   UNL     1      -8.129  -7.223   0.227  0.00  0.00    +0.132 C 
BRANCH  26  27
ATOM     27  S   UNL     1      -8.170  -6.535   1.904  0.00  0.00    -0.091 S 
BRANCH  27  28
ATOM     28  C   UNL     1      -9.580  -5.478   1.897  0.00  0.00    +0.159 A 
ATOM     29  N   UNL     1     -10.446  -5.216   0.926  0.00  0.00    -0.135 NA
ATOM     30  N   UNL     1     -11.412  -4.423   1.094  0.00  0.00    -0.146 NA
ATOM     31  C   UNL     1     -11.624  -3.806   2.238  0.00  0.00    +0.100 A 
ATOM     32  S   UNL     1     -10.261  -4.456   3.200  0.00  0.00    -0.044 S 
ATOM     33  C   UNL     1     -12.708  -2.835   2.629  0.00  0.00    +0.075 C 
ENDBRANCH  27  28
ENDBRANCH  26  27
ENDBRANCH  11  26
TORSDOF 6
