REMARK  Name = ZINC35586097
REMARK  8 active torsions:
REMARK  status: ('A' for Active; 'I' for Inactive)
REMARK    1  A    between atoms: C_1  and  C_2
REMARK    2  A    between atoms: C_2  and  C_3
REMARK    3  A    between atoms: C_3  and  N_4
REMARK    4  A    between atoms: N_4  and  C_5
REMARK    5  A    between atoms: C_5  and  C_7
REMARK    6  A    between atoms: C_5  and  C_15
REMARK    7  A    between atoms: C_10  and  C_14
REMARK    8  A    between atoms: C_12  and  C_13
REMARK                            x       y       z     vdW  Elec       q    Type
REMARK                         _______ _______ _______ _____ _____    ______ ____
ROOT
ATOM      1  C   UNL     1       1.419  -2.418  -2.483  0.00  0.00    -0.008 C 
ENDROOT
BRANCH   1   2
ATOM      2  C   UNL     1       1.532  -3.917  -2.575  0.00  0.00    -0.054 A 
ATOM      3  C   UNL     1       2.721  -4.542  -2.246  0.00  0.00    +0.003 A 
ATOM      4  C   UNL     1       2.825  -5.918  -2.331  0.00  0.00    +0.003 A 
ATOM      5  C   UNL     1       1.741  -6.669  -2.744  0.00  0.00    -0.050 A 
ATOM      6  C   UNL     1       0.552  -6.045  -3.073  0.00  0.00    +0.007 A 
ATOM      7  C   UNL     1       0.447  -4.669  -2.984  0.00  0.00    -0.048 A 
ATOM      8  C   UNL     1      -0.851  -3.989  -3.337  0.00  0.00    +0.044 C 
ATOM      9  C   UNL     1       1.855  -8.169  -2.837  0.00  0.00    +0.044 C 
ENDBRANCH   1   2
BRANCH   1  10
ATOM     10  C   UNL     1       2.797  -1.810  -2.453  0.00  0.00    -0.035 A 
ATOM     11  C   UNL     1       3.418  -1.537  -1.248  0.00  0.00    +0.026 A 
ATOM     12  C   UNL     1       4.659  -0.990  -1.256  0.00  0.00    +0.056 A 
ATOM     13  S   UNL     1       4.987  -0.846  -3.005  0.00  0.00    -0.074 S 
ATOM     14  C   UNL     1       3.451  -1.529  -3.607  0.00  0.00    +0.058 A 
ATOM     15 BR   UNL     1       2.882  -1.789  -5.392  0.00  0.00    -0.042 Br
ATOM     16 BR   UNL     1       5.756  -0.506   0.205  0.00  0.00    -0.043 Br
ENDBRANCH   1  10
BRANCH   1  17
ATOM     17  N   UNL     1       0.697  -2.056  -1.256  0.00  0.00    +0.386 N 
ATOM     18  H   UNL     1       1.248  -2.318  -0.452  0.00  0.00    -0.085 HD
ATOM     19  H   UNL     1      -0.187  -2.541  -1.230  0.00  0.00    -0.085 HD
BRANCH  17  20
ATOM     20  C   UNL     1       0.461  -0.606  -1.236  0.00  0.00    -0.082 C 
BRANCH  20  22
ATOM     21  C   UNL     1      -0.537   1.281   0.063  0.00  0.00    +0.002 C 
ATOM     22  C   UNL     1      -0.291  -0.229   0.042  0.00  0.00    -0.022 C 
ENDBRANCH  20  22
ENDBRANCH  17  20
ENDBRANCH   1  17
TORSDOF 5
