REMARK  Name = ZINC01111486
REMARK  13 active torsions:
REMARK  status: ('A' for Active; 'I' for Inactive)
REMARK    1  A    between atoms: C_1  and  C_2
REMARK    2  A    between atoms: C_2  and  N_3
REMARK    3  A    between atoms: N_3  and  C_4
REMARK    4  A    between atoms: N_3  and  C_6
REMARK    5  A    between atoms: C_4  and  C_5
REMARK    6  A    between atoms: C_9  and  C_12
REMARK    7  A    between atoms: C_15  and  C_26
REMARK    8  A    between atoms: C_21  and  N_25
REMARK    9  A    between atoms: C_22  and  C_23
REMARK   10  A    between atoms: C_28  and  O_34
REMARK   11  A    between atoms: C_31  and  O_32
REMARK   12  A    between atoms: O_32  and  C_33
REMARK   13  A    between atoms: O_34  and  C_35
REMARK                            x       y       z     vdW  Elec       q    Type
REMARK                         _______ _______ _______ _____ _____    ______ ____
ROOT
ATOM      1  C   UNL     1      -0.117  -6.138  -1.717  0.00  0.00    +0.102 C 
ATOM      2  C   UNL     1       0.577  -6.631  -2.961  0.00  0.00    +0.054 A 
ATOM      3  C   UNL     1       1.900  -6.792  -3.205  0.00  0.00    +0.077 A 
ATOM      4  N   UNL     1       2.021  -7.265  -4.481  0.00  0.00    -0.273 N 
ATOM      5  N   UNL     1       0.731  -7.392  -5.018  0.00  0.00    -0.135 NA
ATOM      6  H   UNL     1       2.852  -7.475  -4.936  0.00  0.00    +0.189 HD
ATOM      7  C   UNL     1      -0.131  -7.016  -4.116  0.00  0.00    +0.245 A 
ATOM      8  O   UNL     1      -1.489  -6.969  -4.178  0.00  0.00    -0.421 OA
ATOM      9  C   UNL     1      -2.159  -6.803  -3.020  0.00  0.00    +0.201 C 
ATOM     10  C   UNL     1      -1.590  -6.425  -1.854  0.00  0.00    +0.098 C 
ENDROOT
BRANCH   1  14
ATOM     11  C   UNL     1       0.501  -1.931  -1.297  0.00  0.00    +0.013 A 
ATOM     12  C   UNL     1       0.924  -2.795  -0.304  0.00  0.00    +0.022 A 
ATOM     13  C   UNL     1       0.724  -4.156  -0.440  0.00  0.00    +0.006 A 
ATOM     14  C   UNL     1       0.101  -4.654  -1.568  0.00  0.00    -0.034 A 
ATOM     15  C   UNL     1      -0.324  -3.790  -2.561  0.00  0.00    +0.006 A 
ATOM     16  C   UNL     1      -0.128  -2.429  -2.423  0.00  0.00    +0.022 A 
BRANCH  11  17
ATOM     17  N   UNL     1       0.703  -0.555  -1.160  0.00  0.00    -0.394 NA
ATOM     18  H   UNL     1       0.332  -0.078  -1.968  0.00  0.00    +0.126 HD
BRANCH  17  20
ATOM     19  C   UNL     1      -1.495  -0.229  -0.130  0.00  0.00    +0.022 C 
ATOM     20  C   UNL     1       0.017  -0.077   0.048  0.00  0.00    +0.081 C 
ENDBRANCH  17  20
BRANCH  17  21
ATOM     21  C   UNL     1       2.142  -0.280  -1.047  0.00  0.00    +0.081 C 
ATOM     22  C   UNL     1       2.837  -0.660  -2.356  0.00  0.00    +0.022 C 
ENDBRANCH  17  21
ENDBRANCH  11  17
ENDBRANCH   1  14
BRANCH   3  23
ATOM     23  C   UNL     1       3.007  -6.507  -2.266  0.00  0.00    +0.045 A 
ATOM     24  C   UNL     1       3.920  -5.491  -2.547  0.00  0.00    +0.059 A 
ATOM     25  C   UNL     1       4.953  -5.230  -1.664  0.00  0.00    +0.121 A 
ATOM     26  C   UNL     1       5.082  -5.977  -0.501  0.00  0.00    +0.049 A 
ATOM     27  C   UNL     1       4.181  -6.985  -0.217  0.00  0.00    +0.050 A 
ATOM     28  C   UNL     1       3.139  -7.253  -1.089  0.00  0.00    +0.129 A 
BRANCH  28  29
ATOM     29  O   UNL     1       2.250  -8.241  -0.806  0.00  0.00    -0.494 OA
ATOM     30  C   UNL     1       2.447  -8.961   0.413  0.00  0.00    +0.277 C 
ENDBRANCH  28  29
BRANCH  25  31
ATOM     31  O   UNL     1       5.845  -4.240  -1.937  0.00  0.00    -0.495 OA
ATOM     32  C   UNL     1       6.886  -4.024  -0.983  0.00  0.00    +0.277 C 
ENDBRANCH  25  31
ENDBRANCH   3  23
BRANCH   9  33
ATOM     33  N   UNL     1      -3.512  -7.033  -3.025  0.00  0.00    -0.328 N 
ATOM     34  H   UNL     1      -3.954  -7.306  -3.844  0.00  0.00    +0.145 HD
ATOM     35  H   UNL     1      -4.026  -6.923  -2.210  0.00  0.00    +0.145 HD
ENDBRANCH   9  33
BRANCH  10  36
ATOM     36  C   UNL     1      -2.424  -6.292  -0.698  0.00  0.00    +0.101 C 
ATOM     37  N   UNL     1      -3.085  -6.186   0.220  0.00  0.00    -0.191 NA
ENDBRANCH  10  36
TORSDOF 9
