REMARK  Name = ZINC64890890
REMARK  6 active torsions:
REMARK  status: ('A' for Active; 'I' for Inactive)
REMARK    1  A    between atoms: C_1  and  C_2
REMARK    2  A    between atoms: C_2  and  C_3
REMARK    3  A    between atoms: C_2  and  C_4
REMARK    4  A    between atoms: C_4  and  N_5
REMARK    5  A    between atoms: C_9  and  C_18
REMARK    6  A    between atoms: C_20  and  C_24
REMARK                            x       y       z     vdW  Elec       q    Type
REMARK                         _______ _______ _______ _____ _____    ______ ____
ROOT
ATOM      1  C   UNL     1      -1.558  -4.327  -5.256  0.00  0.00    +0.134 C 
ATOM      2  N   UNL     1      -2.133  -3.784  -6.285  0.00  0.00    -0.339 N 
ATOM      3  C   UNL     1      -1.964  -4.672  -7.442  0.00  0.00    +0.281 C 
ATOM      4  O   UNL     1      -1.218  -5.798  -6.954  0.00  0.00    -0.243 OA
ATOM      5  N   UNL     1      -0.983  -5.532  -5.581  0.00  0.00    -0.247 N 
ATOM      6  H   UNL     1      -0.498  -6.108  -4.970  0.00  0.00    +0.196 HD
ATOM      7  H   UNL     1      -2.598  -2.933  -6.289  0.00  0.00    +0.164 HD
ENDROOT
BRANCH   1  12
ATOM      8  N   UNL     1      -1.416  -1.993  -0.116  0.00  0.00    -0.302 N 
ATOM      9  C   UNL     1      -1.450  -2.578  -1.375  0.00  0.00    +0.068 A 
ATOM     10  C   UNL     1      -1.500  -1.768  -2.508  0.00  0.00    +0.028 A 
ATOM     11  C   UNL     1      -1.535  -2.333  -3.762  0.00  0.00    +0.013 A 
ATOM     12  C   UNL     1      -1.520  -3.723  -3.906  0.00  0.00    +0.019 A 
ATOM     13  C   UNL     1      -1.469  -4.538  -2.778  0.00  0.00    +0.039 A 
ATOM     14  C   UNL     1      -1.435  -3.969  -1.513  0.00  0.00    +0.067 A 
ATOM     15  N   UNL     1      -1.384  -4.792  -0.390  0.00  0.00    -0.316 N 
ATOM     16  H   UNL     1      -1.373  -5.756  -0.496  0.00  0.00    +0.169 HD
ATOM     17  C   UNL     1      -1.350  -4.249   0.844  0.00  0.00    +0.314 A 
ATOM     18  O   UNL     1      -1.306  -4.961   1.826  0.00  0.00    -0.262 OA
ATOM     19  C   UNL     1      -1.362  -2.764   0.989  0.00  0.00    +0.316 A 
ATOM     20  O   UNL     1      -1.327  -2.256   2.091  0.00  0.00    -0.262 OA
BRANCH   8  21
ATOM     21  C   UNL     1      -1.433  -0.534   0.013  0.00  0.00    +0.128 C 
BRANCH  21  23
ATOM     22  C   UNL     1      -0.019   1.526   0.010  0.00  0.00    +0.009 C 
ATOM     23  C   UNL     1       0.002  -0.004   0.002  0.00  0.00    +0.003 C 
ATOM     24  C   UNL     1       0.742  -0.511   1.242  0.00  0.00    +0.009 C 
ENDBRANCH  21  23
ENDBRANCH   8  21
ENDBRANCH   1  12
BRANCH   3  25
ATOM     25  C   UNL     1      -3.308  -5.118  -7.958  0.00  0.00    +0.089 A 
ATOM     26  C   UNL     1      -3.675  -4.834  -9.233  0.00  0.00    +0.026 A 
ATOM     27  C   UNL     1      -4.992  -5.289  -9.691  0.00  0.00    +0.018 A 
ATOM     28  C   UNL     1      -5.431  -5.029 -10.993  0.00  0.00    +0.011 A 
ATOM     29  C   UNL     1      -6.664  -5.466 -11.391  0.00  0.00    +0.001 A 
ATOM     30  C   UNL     1      -7.481  -6.164 -10.514  0.00  0.00    +0.004 A 
ATOM     31  C   UNL     1      -7.066  -6.429  -9.226  0.00  0.00    +0.047 A 
ATOM     32  C   UNL     1      -5.817  -5.995  -8.799  0.00  0.00    +0.139 A 
ATOM     33  O   UNL     1      -5.391  -6.245  -7.543  0.00  0.00    -0.422 OA
ATOM     34  C   UNL     1      -4.185  -5.838  -7.118  0.00  0.00    +0.345 A 
ATOM     35  O   UNL     1      -3.841  -6.090  -5.977  0.00  0.00    -0.245 OA
ENDBRANCH   3  25
TORSDOF 4
