REMARK  Name = ZINC02225801
REMARK  10 active torsions:
REMARK  status: ('A' for Active; 'I' for Inactive)
REMARK    1  A    between atoms: C_1  and  C_2
REMARK    2  A    between atoms: N_8  and  C_9
REMARK    3  A    between atoms: C_9  and  C_10
REMARK    4  A    between atoms: C_10  and  C_11
REMARK    5  A    between atoms: C_10  and  C_12
REMARK    6  A    between atoms: C_13  and  C_21
REMARK    7  A    between atoms: C_15  and  C_19
REMARK    8  A    between atoms: C_16  and  N_18
REMARK    9  A    between atoms: C_26  and  O_27
REMARK   10  A    between atoms: O_27  and  C_28
REMARK                            x       y       z     vdW  Elec       q    Type
REMARK                         _______ _______ _______ _____ _____    ______ ____
ROOT
ATOM      1  C   UNL     1       5.863  -1.076  -1.172  0.00  0.00    +0.064 C 
ATOM      2  C   UNL     1       4.613  -0.257  -0.975  0.00  0.00    +0.022 A 
ATOM      3  C   UNL     1       3.458  -0.874  -0.647  0.00  0.00    +0.068 A 
ATOM      4  C   UNL     1       2.285  -0.112  -0.461  0.00  0.00    +0.141 A 
ATOM      5  C   UNL     1       2.346   1.256  -0.619  0.00  0.00    +0.072 A 
ATOM      6  C   UNL     1       3.567   1.853  -0.960  0.00  0.00    +0.259 A 
ATOM      7  O   UNL     1       3.635   3.063  -1.104  0.00  0.00    -0.267 OA
ATOM      8  N   UNL     1       4.665   1.092  -1.129  0.00  0.00    -0.312 N 
ATOM      9  C   UNL     1       1.120   2.107  -0.429  0.00  0.00    +0.107 C 
ATOM     10  C   UNL     1      -0.115   1.251  -0.466  0.00  0.00    +0.098 C 
ATOM     11  C   UNL     1      -0.043  -0.093  -0.319  0.00  0.00    +0.199 C 
ATOM     12  O   UNL     1       1.129  -0.726  -0.133  0.00  0.00    -0.441 OA
ENDROOT
BRANCH   9  13
ATOM     13  C   UNL     1       1.202   2.809   0.902  0.00  0.00    +0.008 A 
ATOM     14  C   UNL     1       1.263   2.072   2.070  0.00  0.00    +0.023 A 
ATOM     15  C   UNL     1       1.343   2.716   3.291  0.00  0.00    +0.018 A 
ATOM     16  C   UNL     1       1.350   4.098   3.348  0.00  0.00    +0.019 A 
ATOM     17  C   UNL     1       1.284   4.838   2.184  0.00  0.00    +0.047 A 
ATOM     18  C   UNL     1       1.209   4.195   0.957  0.00  0.00    +0.124 A 
ATOM     19 BR   UNL     1       1.435   1.705   4.887  0.00  0.00    -0.050 Br
BRANCH  18  20
ATOM     20  O   UNL     1       1.143   4.921  -0.190  0.00  0.00    -0.495 OA
ATOM     21  C   UNL     1       1.155   6.344  -0.058  0.00  0.00    +0.277 C 
ENDBRANCH  18  20
ENDBRANCH   9  13
BRANCH  11  22
ATOM     22  N   UNL     1      -1.199  -0.831  -0.360  0.00  0.00    -0.328 N 
ATOM     23  H   UNL     1      -1.159  -1.924  -0.242  0.00  0.00    +0.145 HD
ATOM     24  H   UNL     1      -2.167  -0.329  -0.511  0.00  0.00    +0.145 HD
ENDBRANCH  11  22
BRANCH  10  25
ATOM     25  C   UNL     1      -1.391   1.868  -0.667  0.00  0.00    +0.101 C 
ATOM     26  N   UNL     1      -2.404   2.357  -0.827  0.00  0.00    -0.191 NA
ENDBRANCH  10  25
BRANCH   8  27
ATOM     27  C   UNL     1       5.935   1.729  -1.486  0.00  0.00    +0.128 C 
BRANCH  27  28
ATOM     28  C   UNL     1       6.756   1.974  -0.218  0.00  0.00    +0.003 C 
ATOM     29  C   UNL     1       8.132   2.524  -0.600  0.00  0.00    +0.009 C 
ATOM     30  C   UNL     1       6.031   2.986   0.671  0.00  0.00    +0.009 C 
ENDBRANCH  27  28
ENDBRANCH   8  27
TORSDOF 6
