REMARK  Name = ZINC36570970
REMARK  10 active torsions:
REMARK  status: ('A' for Active; 'I' for Inactive)
REMARK    1  A    between atoms: C_1  and  C_2
REMARK    2  A    between atoms: C_2  and  C_3
REMARK    3  A    between atoms: C_3  and  N_4
REMARK    4  A    between atoms: N_4  and  C_5
REMARK    5  A    between atoms: C_5  and  C_7
REMARK    6  A    between atoms: C_5  and  C_21
REMARK    7  A    between atoms: N_23  and  C_24
REMARK    8  A    between atoms: C_30  and  C_32
REMARK    9  A    between atoms: C_33  and  O_39
REMARK   10  A    between atoms: C_37  and  O_38
REMARK                            x       y       z     vdW  Elec       q    Type
REMARK                         _______ _______ _______ _____ _____    ______ ____
ROOT
ATOM      1  C   UNL     1      -1.334  -3.312   1.267  0.00  0.00    +0.193 C 
ENDROOT
BRANCH   1   2
ATOM      2  C   UNL     1      -0.602  -2.204   1.982  0.00  0.00    -0.010 A 
ATOM      3  C   UNL     1      -0.807  -0.926   1.602  0.00  0.00    +0.015 A 
ATOM      4  C   UNL     1      -0.145   0.147   2.241  0.00  0.00    -0.017 A 
ATOM      5  C   UNL     1      -0.365   1.473   1.839  0.00  0.00    +0.008 A 
ATOM      6  C   UNL     1       0.287   2.490   2.474  0.00  0.00    +0.001 A 
ATOM      7  C   UNL     1       1.170   2.232   3.515  0.00  0.00    +0.001 A 
ATOM      8  C   UNL     1       1.406   0.952   3.930  0.00  0.00    +0.009 A 
ATOM      9  C   UNL     1       0.753  -0.110   3.301  0.00  0.00    -0.010 A 
ATOM     10  C   UNL     1       0.976  -1.499   3.713  0.00  0.00    -0.010 A 
ATOM     11  C   UNL     1       0.280  -2.527   3.039  0.00  0.00    -0.012 A 
ATOM     12  C   UNL     1       0.482  -3.859   3.429  0.00  0.00    +0.009 A 
ATOM     13  C   UNL     1       1.339  -4.142   4.452  0.00  0.00    +0.001 A 
ATOM     14  C   UNL     1       2.017  -3.127   5.116  0.00  0.00    +0.001 A 
ATOM     15  C   UNL     1       1.851  -1.821   4.752  0.00  0.00    +0.009 A 
ENDBRANCH   1   2
BRANCH   1  16
ATOM     16  C   UNL     1      -2.628  -3.602   1.983  0.00  0.00    +0.238 C 
ATOM     17  O   UNL     1      -3.571  -2.850   1.859  0.00  0.00    -0.273 OA
ATOM     18  N   UNL     1      -2.737  -4.697   2.760  0.00  0.00    -0.311 N 
ATOM     19  H   UNL     1      -1.983  -5.299   2.859  0.00  0.00    +0.149 HD
BRANCH  18  20
ATOM     20  C   UNL     1      -3.995  -4.979   3.456  0.00  0.00    +0.073 C 
ATOM     21  C   UNL     1      -4.028  -4.215   4.781  0.00  0.00    +0.022 C 
ATOM     22  C   UNL     1      -5.342  -4.510   5.507  0.00  0.00    +0.002 C 
ATOM     23  C   UNL     1      -5.447  -6.011   5.781  0.00  0.00    +0.000 C 
ATOM     24  C   UNL     1      -5.415  -6.776   4.456  0.00  0.00    +0.002 C 
ATOM     25  C   UNL     1      -4.101  -6.481   3.730  0.00  0.00    +0.022 C 
ENDBRANCH  18  20
ENDBRANCH   1  16
BRANCH   1  26
ATOM     26  N   UNL     1      -1.618  -2.900  -0.110  0.00  0.00    -0.282 N 
ATOM     27  C   UNL     1      -0.607  -2.725  -0.983  0.00  0.00    +0.255 C 
ATOM     28  O   UNL     1      -0.847  -2.463  -2.147  0.00  0.00    -0.270 OA
BRANCH  27  29
ATOM     29  C   UNL     1       0.788  -2.851  -0.530  0.00  0.00    +0.119 A 
ATOM     30  C   UNL     1       1.353  -4.119  -0.328  0.00  0.00    +0.133 A 
ATOM     31  C   UNL     1       2.667  -4.226   0.099  0.00  0.00    +0.046 A 
ATOM     32  C   UNL     1       3.420  -3.090   0.325  0.00  0.00    +0.007 A 
ATOM     33  C   UNL     1       2.873  -1.835   0.129  0.00  0.00    +0.046 A 
ATOM     34  C   UNL     1       1.563  -1.705  -0.303  0.00  0.00    +0.133 A 
BRANCH  34  35
ATOM     35  O   UNL     1       1.031  -0.473  -0.500  0.00  0.00    -0.506 OA
ATOM     36  H   UNL     1       0.663  -0.071   0.299  0.00  0.00    +0.292 HD
ENDBRANCH  34  35
BRANCH  30  37
ATOM     37  O   UNL     1       0.615  -5.236  -0.548  0.00  0.00    -0.506 OA
ATOM     38  H   UNL     1       0.673  -5.573  -1.453  0.00  0.00    +0.292 HD
ENDBRANCH  30  37
ENDBRANCH  27  29
BRANCH  26  39
ATOM     39  C   UNL     1      -3.002  -2.678  -0.537  0.00  0.00    +0.109 C 
BRANCH  39  41
ATOM     40  C   UNL     1      -4.788  -0.959  -0.848  0.00  0.00    +0.005 C 
ATOM     41  C   UNL     1      -3.369  -1.207  -0.332  0.00  0.00    +0.016 C 
ENDBRANCH  39  41
ENDBRANCH  26  39
ENDBRANCH   1  26
TORSDOF 9
