REMARK  Name = ZINC22523999
REMARK  10 active torsions:
REMARK  status: ('A' for Active; 'I' for Inactive)
REMARK    1  A    between atoms: C_3  and  C_6
REMARK    2  A    between atoms: C_9  and  S_16
REMARK    3  A    between atoms: N_10  and  C_11
REMARK    4  A    between atoms: C_11  and  C_12
REMARK    5  A    between atoms: C_12  and  C_13
REMARK    6  A    between atoms: S_16  and  C_17
REMARK    7  A    between atoms: C_17  and  C_18
REMARK    8  A    between atoms: N_20  and  C_21
REMARK    9  A    between atoms: C_21  and  C_23
REMARK   10  A    between atoms: C_21  and  C_30
REMARK                            x       y       z     vdW  Elec       q    Type
REMARK                         _______ _______ _______ _____ _____    ______ ____
ROOT
ATOM      1  S   UNL     1      -3.856   0.249  -3.285  0.00  0.00    -0.077 S 
ENDROOT
BRANCH   1   5
ATOM      2  C   UNL     1      -5.727   1.568  -6.453  0.00  0.00    +0.200 A 
ATOM      3  N   UNL     1      -4.785   2.468  -6.277  0.00  0.00    -0.125 NA
ATOM      4  N   UNL     1      -4.078   2.166  -5.247  0.00  0.00    -0.122 NA
ATOM      5  C   UNL     1      -4.516   1.051  -4.708  0.00  0.00    +0.192 A 
ATOM      6  N   UNL     1      -5.583   0.632  -5.453  0.00  0.00    -0.299 N 
BRANCH   2   9
ATOM      7  C   UNL     1      -8.081   2.163  -9.188  0.00  0.00    +0.042 A 
ATOM      8  C   UNL     1      -7.070   2.614  -8.318  0.00  0.00    +0.053 A 
ATOM      9  C   UNL     1      -6.743   1.561  -7.518  0.00  0.00    +0.172 A 
ATOM     10  O   UNL     1      -7.517   0.514  -7.867  0.00  0.00    -0.460 OA
ATOM     11  C   UNL     1      -8.326   0.875  -8.876  0.00  0.00    +0.196 A 
ENDBRANCH   2   9
BRANCH   6  12
ATOM     12  C   UNL     1      -6.402  -0.563  -5.233  0.00  0.00    +0.135 C 
BRANCH  12  13
ATOM     13  C   UNL     1      -7.575  -0.215  -4.314  0.00  0.00    +0.117 C 
BRANCH  13  14
ATOM     14  C   UNL     1      -8.417  -1.444  -4.088  0.00  0.00    +0.212 C 
ATOM     15  O   UNL     1      -8.109  -2.495  -4.610  0.00  0.00    -0.276 OA
ATOM     16  N   UNL     1      -9.512  -1.376  -3.306  0.00  0.00    -0.329 N 
ATOM     17  H   UNL     1     -10.127  -2.273  -3.141  0.00  0.00    +0.145 HD
ATOM     18  H   UNL     1      -9.792  -0.423  -2.833  0.00  0.00    +0.145 HD
ENDBRANCH  13  14
ENDBRANCH  12  13
ENDBRANCH   6  12
ENDBRANCH   1   5
BRANCH   1  19
ATOM     19  C   UNL     1      -2.502   1.382  -2.885  0.00  0.00    +0.173 C 
BRANCH  19  20
ATOM     20  C   UNL     1      -1.773   0.883  -1.664  0.00  0.00    +0.224 C 
ATOM     21  O   UNL     1      -2.134  -0.139  -1.118  0.00  0.00    -0.275 OA
ATOM     22  N   UNL     1      -0.721   1.571  -1.179  0.00  0.00    -0.303 N 
ATOM     23  H   UNL     1      -0.395   2.497  -1.674  0.00  0.00    +0.150 HD
BRANCH  22  24
ATOM     24  C   UNL     1      -0.013   1.086   0.008  0.00  0.00    +0.140 C 
BRANCH  24  25
ATOM     25  C   UNL     1       1.401   1.607  -0.003  0.00  0.00    -0.022 A 
ATOM     26  C   UNL     1       1.656   2.903  -0.413  0.00  0.00    +0.008 A 
ATOM     27  C   UNL     1       2.952   3.384  -0.419  0.00  0.00    +0.038 A 
ATOM     28  C   UNL     1       3.996   2.564  -0.023  0.00  0.00    +0.123 A 
ATOM     29  C   UNL     1       3.739   1.266   0.383  0.00  0.00    +0.038 A 
ATOM     30  C   UNL     1       2.442   0.789   0.393  0.00  0.00    +0.008 A 
ATOM     31  F   UNL     1       5.263   3.032  -0.033  0.00  0.00    -0.205 F 
ENDBRANCH  24  25
BRANCH  24  32
ATOM     32  C   UNL     1      -0.718   1.572   1.248  0.00  0.00    +0.014 A 
ATOM     33  C   UNL     1      -0.954   0.914   2.409  0.00  0.00    +0.013 A 
ATOM     34  C   UNL     1      -1.627   1.566   3.425  0.00  0.00    +0.008 A 
ATOM     35  C   UNL     1      -2.033   2.845   3.229  0.00  0.00    +0.045 A 
ATOM     36  S   UNL     1      -1.454   3.166   1.571  0.00  0.00    -0.099 S 
ENDBRANCH  24  32
ENDBRANCH  22  24
ENDBRANCH  19  20
ENDBRANCH   1  19
TORSDOF 10
