REMARK  Name = ZINC36597742
REMARK  13 active torsions:
REMARK  status: ('A' for Active; 'I' for Inactive)
REMARK    1  A    between atoms: C_1  and  C_2
REMARK    2  A    between atoms: C_5  and  C_7
REMARK    3  A    between atoms: C_7  and  N_8
REMARK    4  A    between atoms: N_8  and  C_9
REMARK    5  A    between atoms: C_9  and  C_11
REMARK    6  A    between atoms: C_9  and  C_17
REMARK    7  A    between atoms: N_19  and  C_20
REMARK    8  A    between atoms: C_20  and  C_21
REMARK    9  A    between atoms: C_20  and  C_22
REMARK   10  A    between atoms: C_20  and  C_23
REMARK   11  A    between atoms: C_24  and  C_26
REMARK   12  A    between atoms: C_30  and  O_33
REMARK   13  A    between atoms: C_31  and  O_32
REMARK                            x       y       z     vdW  Elec       q    Type
REMARK                         _______ _______ _______ _____ _____    ______ ____
ROOT
ATOM      1  N   UNL     1       1.757  -3.118  -2.230  0.00  0.00    -0.275 N 
ATOM      2  C   UNL     1       1.626  -3.954  -1.180  0.00  0.00    +0.252 C 
ATOM      3  O   UNL     1       0.610  -4.608  -1.047  0.00  0.00    -0.270 OA
ENDROOT
BRANCH   2   4
ATOM      4  C   UNL     1       2.715  -4.074  -0.193  0.00  0.00    +0.082 A 
ATOM      5  C   UNL     1       3.920  -3.392  -0.388  0.00  0.00    +0.017 A 
ATOM      6  C   UNL     1       4.934  -3.506   0.536  0.00  0.00    +0.005 A 
ATOM      7  C   UNL     1       4.769  -4.296   1.663  0.00  0.00    +0.049 A 
ATOM      8  C   UNL     1       3.583  -4.979   1.870  0.00  0.00    +0.159 A 
ATOM      9  C   UNL     1       2.546  -4.868   0.948  0.00  0.00    +0.171 A 
BRANCH   9  10
ATOM     10  O   UNL     1       1.379  -5.530   1.151  0.00  0.00    -0.503 OA
ATOM     11  H   UNL     1       1.360  -6.420   0.772  0.00  0.00    +0.292 HD
ENDBRANCH   9  10
BRANCH   8  12
ATOM     12  O   UNL     1       3.428  -5.752   2.978  0.00  0.00    -0.503 OA
ATOM     13  H   UNL     1       3.061  -5.281   3.738  0.00  0.00    +0.292 HD
ENDBRANCH   8  12
ENDBRANCH   2   4
BRANCH   1  14
ATOM     14  C   UNL     1       0.785  -3.160  -3.325  0.00  0.00    +0.183 C 
BRANCH  14  19
ATOM     15  C   UNL     1       3.298  -3.223  -7.698  0.00  0.00    +0.086 C 
ATOM     16  C   UNL     1       2.551  -3.693  -6.477  0.00  0.00    +0.102 A 
ATOM     17  C   UNL     1       2.259  -4.971  -6.177  0.00  0.00    +0.045 A 
ATOM     18  C   UNL     1       1.555  -4.954  -4.951  0.00  0.00    +0.046 A 
ATOM     19  C   UNL     1       1.459  -3.666  -4.575  0.00  0.00    +0.122 A 
ATOM     20  O   UNL     1       2.069  -2.907  -5.500  0.00  0.00    -0.463 OA
ENDBRANCH  14  19
ENDBRANCH   1  14
BRANCH   1  21
ATOM     21  C   UNL     1       2.872  -2.168  -2.275  0.00  0.00    +0.193 C 
BRANCH  21  22
ATOM     22  C   UNL     1       4.082  -2.842  -2.869  0.00  0.00    -0.018 A 
ATOM     23  C   UNL     1       3.932  -3.987  -3.629  0.00  0.00    +0.006 A 
ATOM     24  C   UNL     1       5.042  -4.605  -4.174  0.00  0.00    +0.000 A 
ATOM     25  C   UNL     1       6.302  -4.077  -3.960  0.00  0.00    +0.000 A 
ATOM     26  C   UNL     1       6.451  -2.932  -3.201  0.00  0.00    +0.000 A 
ATOM     27  C   UNL     1       5.341  -2.311  -2.659  0.00  0.00    +0.006 A 
ENDBRANCH  21  22
BRANCH  21  28
ATOM     28  C   UNL     1       2.488  -0.984  -3.124  0.00  0.00    +0.239 C 
ATOM     29  O   UNL     1       1.336  -0.836  -3.474  0.00  0.00    -0.273 OA
ATOM     30  N   UNL     1       3.425  -0.089  -3.495  0.00  0.00    -0.309 N 
ATOM     31  H   UNL     1       4.346  -0.208  -3.216  0.00  0.00    +0.149 HD
BRANCH  30  32
ATOM     32  C   UNL     1       3.053   1.062  -4.321  0.00  0.00    +0.026 C 
ATOM     33  C   UNL     1       2.010   1.903  -3.582  0.00  0.00    +0.031 C 
ATOM     34  C   UNL     1       4.293   1.914  -4.598  0.00  0.00    +0.031 C 
ATOM     35  C   UNL     1       2.465   0.571  -5.646  0.00  0.00    +0.031 C 
ENDBRANCH  30  32
ENDBRANCH  21  28
ENDBRANCH   1  21
TORSDOF 9
