REMARK  Name = ZINC65260163
REMARK  9 active torsions:
REMARK  status: ('A' for Active; 'I' for Inactive)
REMARK    1  A    between atoms: C_1  and  C_2
REMARK    2  A    between atoms: C_3  and  S_9
REMARK    3  A    between atoms: C_4  and  C_8
REMARK    4  A    between atoms: N_5  and  C_7
REMARK    5  A    between atoms: S_9  and  N_12
REMARK    6  A    between atoms: N_27  and  C_28
REMARK    7  A    between atoms: C_28  and  C_29
REMARK    8  A    between atoms: C_28  and  C_30
REMARK    9  A    between atoms: C_28  and  C_31
REMARK                            x       y       z     vdW  Elec       q    Type
REMARK                         _______ _______ _______ _____ _____    ______ ____
ROOT
ATOM      1  N   UNL     1       0.692  -0.575  -4.474  0.00  0.00    -0.174 NA
ATOM      2  C   UNL     1       1.218   0.709  -3.988  0.00  0.00    +0.109 C 
ATOM      3  C   UNL     1       2.132   1.307  -5.061  0.00  0.00    +0.020 C 
ATOM      4  C   UNL     1       3.214   0.288  -5.429  0.00  0.00    +0.036 C 
ATOM      5  C   UNL     1       2.561  -0.973  -5.989  0.00  0.00    +0.100 C 
ATOM      6  C   UNL     1       1.642  -1.597  -4.933  0.00  0.00    +0.142 C 
ATOM      7  C   UNL     1       3.631  -1.970  -6.384  0.00  0.00    +0.098 C 
ATOM      8  N   UNL     1       3.212  -3.065  -7.117  0.00  0.00    -0.301 N 
ATOM      9  C   UNL     1       2.213  -2.859  -8.084  0.00  0.00    +0.053 A 
ATOM     10  C   UNL     1       1.935  -3.851  -9.012  0.00  0.00    +0.025 A 
ATOM     11  C   UNL     1       0.948  -3.652  -9.960  0.00  0.00    +0.002 A 
ATOM     12  C   UNL     1       0.238  -2.466  -9.986  0.00  0.00    +0.002 A 
ATOM     13  C   UNL     1       0.511  -1.471  -9.066  0.00  0.00    +0.025 A 
ATOM     14  C   UNL     1       1.502  -1.661  -8.114  0.00  0.00    +0.049 A 
ATOM     15  N   UNL     1       1.789  -0.642  -7.194  0.00  0.00    -0.329 N 
ATOM     16  N   UNL     1       4.870  -1.805  -6.053  0.00  0.00    -0.370 N 
ATOM     17  H   UNL     1       1.484   0.265  -7.351  0.00  0.00    +0.147 HD
ATOM     18  H   UNL     1       5.151  -0.986  -5.615  0.00  0.00    +0.161 HD
ATOM     19  H   UNL     1       3.594  -3.944  -6.969  0.00  0.00    +0.153 HD
ENDROOT
BRANCH  16  20
ATOM     20  C   UNL     1       5.851  -2.855  -6.341  0.00  0.00    +0.031 C 
ATOM     21  C   UNL     1       5.802  -3.204  -7.830  0.00  0.00    +0.033 C 
ATOM     22  C   UNL     1       7.252  -2.357  -5.979  0.00  0.00    +0.033 C 
ATOM     23  C   UNL     1       5.523  -4.099  -5.514  0.00  0.00    +0.033 C 
ENDBRANCH  16  20
BRANCH   1  24
ATOM     24  S   UNL     1      -0.938  -0.865  -4.497  0.00  0.00    +0.064 S 
ATOM     25  O   UNL     1      -1.157  -1.871  -5.477  0.00  0.00    -0.153 OA
ATOM     26  O   UNL     1      -1.576   0.404  -4.551  0.00  0.00    -0.153 OA
BRANCH  24  29
ATOM     27  C   UNL     1      -1.879   0.621  -1.675  0.00  0.00    +0.069 C 
ATOM     28  C   UNL     1      -1.751  -0.876  -1.795  0.00  0.00    +0.086 A 
ATOM     29  C   UNL     1      -1.362  -1.576  -2.942  0.00  0.00    +0.148 A 
ATOM     30  C   UNL     1      -1.371  -2.897  -2.646  0.00  0.00    +0.062 A 
ATOM     31  N   UNL     1      -1.751  -3.027  -1.358  0.00  0.00    -0.269 N 
ATOM     32  N   UNL     1      -1.979  -1.744  -0.843  0.00  0.00    -0.174 NA
ATOM     33  C   UNL     1      -1.895  -4.287  -0.625  0.00  0.00    +0.172 C 
ATOM     34  C   UNL     1      -1.019  -4.020  -3.586  0.00  0.00    +0.067 C 
ENDBRANCH  24  29
ENDBRANCH   1  24
TORSDOF 3
