REMARK  Name = ZINC61954445
REMARK  7 active torsions:
REMARK  status: ('A' for Active; 'I' for Inactive)
REMARK    1  A    between atoms: C_1  and  C_2
REMARK    2  A    between atoms: C_2  and  O_3
REMARK    3  A    between atoms: O_3  and  C_4
REMARK    4  A    between atoms: C_9  and  C_10
REMARK    5  A    between atoms: C_10  and  C_12
REMARK    6  A    between atoms: C_34  and  C_41
REMARK    7  A    between atoms: C_35  and  C_40
REMARK                            x       y       z     vdW  Elec       q    Type
REMARK                         _______ _______ _______ _____ _____    ______ ____
ROOT
ATOM      1  C   UNL     1      -5.349  -2.138   0.042  0.00  0.00    +0.099 C 
ATOM      2  C   UNL     1      -5.825  -2.392   1.493  0.00  0.00    +0.070 C 
ATOM      3  C   UNL     1      -5.478  -3.837   1.892  0.00  0.00    +0.021 C 
ATOM      4  C   UNL     1      -6.700  -4.683   1.486  0.00  0.00    +0.017 C 
ATOM      5  C   UNL     1      -7.682  -3.688   0.838  0.00  0.00    +0.086 C 
ATOM      6  N   UNL     1      -7.316  -2.345   1.389  0.00  0.00    -0.281 NA
ATOM      7  C   UNL     1      -7.613  -1.292   0.402  0.00  0.00    +0.145 C 
ATOM      8  C   UNL     1      -6.386  -1.135  -0.494  0.00  0.00    +0.116 C 
ATOM      9  C   UNL     1      -5.846   0.267  -0.469  0.00  0.00    -0.008 A 
ATOM     10  C   UNL     1      -5.383   1.085   0.537  0.00  0.00    +0.006 A 
ATOM     11  C   UNL     1      -4.937   2.361   0.241  0.00  0.00    +0.000 A 
ATOM     12  C   UNL     1      -4.959   2.812  -1.067  0.00  0.00    +0.002 A 
ATOM     13  C   UNL     1      -5.423   1.995  -2.077  0.00  0.00    +0.023 A 
ATOM     14  C   UNL     1      -5.873   0.709  -1.788  0.00  0.00    +0.038 A 
ATOM     15  N   UNL     1      -6.379  -0.290  -2.622  0.00  0.00    -0.284 N 
ATOM     16  C   UNL     1      -6.703  -1.406  -1.940  0.00  0.00    +0.231 C 
ATOM     17  O   UNL     1      -7.162  -2.429  -2.401  0.00  0.00    -0.274 OA
ATOM     18  C   UNL     1      -8.837  -1.639  -0.404  0.00  0.00    +0.004 A 
ATOM     19  C   UNL     1      -9.150  -2.684  -1.244  0.00  0.00    +0.008 A 
ATOM     20  C   UNL     1     -10.389  -2.731  -1.858  0.00  0.00    +0.004 A 
ATOM     21  C   UNL     1     -11.311  -1.727  -1.625  0.00  0.00    -0.046 A 
ATOM     22  C   UNL     1     -11.002  -0.678  -0.783  0.00  0.00    -0.026 A 
ATOM     23  C   UNL     1      -9.756  -0.623  -0.162  0.00  0.00    +0.042 A 
ATOM     24  N   UNL     1      -9.215   0.319   0.714  0.00  0.00    -0.283 N 
ATOM     25  C   UNL     1      -7.962   0.003   1.091  0.00  0.00    +0.244 C 
ATOM     26  O   UNL     1      -7.250   0.637   1.840  0.00  0.00    -0.273 OA
ATOM     27  C   UNL     1     -12.014   0.410  -0.536  0.00  0.00    +0.046 C 
ATOM     28  C   UNL     1     -12.661  -1.778  -2.294  0.00  0.00    +0.044 C 
ATOM     29  H   UNL     1      -6.485  -0.193  -3.581  0.00  0.00    +0.155 HD
ATOM     30  H   UNL     1      -9.687   1.111   1.017  0.00  0.00    +0.155 HD
ENDROOT
BRANCH   1  31
ATOM     31  C   UNL     1      -3.969  -1.533   0.032  0.00  0.00    +0.173 C 
ATOM     32  O   UNL     1      -3.550  -0.962   1.017  0.00  0.00    -0.292 OA
BRANCH  31  38
ATOM     33  C   UNL     1      -1.844  -1.074  -1.183  0.00  0.00    +0.131 A 
ATOM     34  C   UNL     1      -1.060  -1.183  -2.322  0.00  0.00    +0.046 A 
ATOM     35  C   UNL     1      -1.547  -1.835  -3.438  0.00  0.00    +0.004 A 
ATOM     36  C   UNL     1      -2.819  -2.386  -3.431  0.00  0.00    +0.001 A 
ATOM     37  C   UNL     1      -3.613  -2.289  -2.310  0.00  0.00    +0.015 A 
ATOM     38  C   UNL     1      -3.131  -1.636  -1.169  0.00  0.00    +0.059 A 
BRANCH  33  39
ATOM     39  O   UNL     1      -1.368  -0.434  -0.087  0.00  0.00    -0.492 OA
BRANCH  39  41
ATOM     40  C   UNL     1       0.311   0.791   1.147  0.00  0.00    +0.048 C 
ATOM     41  C   UNL     1      -0.050   0.112  -0.176  0.00  0.00    +0.226 C 
ENDBRANCH  39  41
ENDBRANCH  33  39
ENDBRANCH  31  38
ENDBRANCH   1  31
TORSDOF 4
