REMARK  Name = ZINC21659249
REMARK  6 active torsions:
REMARK  status: ('A' for Active; 'I' for Inactive)
REMARK    1  A    between atoms: C_1  and  N_2
REMARK    2  A    between atoms: C_5  and  C_25
REMARK    3  A    between atoms: C_8  and  C_17
REMARK    4  A    between atoms: C_20  and  O_24
REMARK    5  A    between atoms: C_22  and  O_23
REMARK    6  A    between atoms: N_34  and  C_37
REMARK                            x       y       z     vdW  Elec       q    Type
REMARK                         _______ _______ _______ _____ _____    ______ ____
ROOT
ATOM      1  C   UNL     1       4.055   1.431  -1.023  0.00  0.00    +0.154 C 
ATOM      2  N   UNL     1       4.111   2.252  -2.235  0.00  0.00    -0.294 N 
ATOM      3  C   UNL     1       3.393   3.453  -2.337  0.00  0.00    +0.082 A 
ATOM      4  C   UNL     1       3.494   4.242  -3.591  0.00  0.00    +0.089 A 
ATOM      5  C   UNL     1       2.702   5.351  -3.419  0.00  0.00    +0.071 A 
ATOM      6  N   UNL     1       2.166   5.283  -2.171  0.00  0.00    -0.306 N 
ATOM      7  C   UNL     1       2.578   4.120  -1.534  0.00  0.00    +0.073 A 
ATOM      8  C   UNL     1       2.103   3.768  -0.140  0.00  0.00    +0.154 C 
ATOM      9  N   UNL     1       1.723   5.016   0.538  0.00  0.00    -0.330 N 
ATOM     10  C   UNL     1       1.062   6.026  -0.171  0.00  0.00    +0.052 A 
ATOM     11  C   UNL     1       1.304   6.191  -1.539  0.00  0.00    +0.068 A 
ATOM     12  C   UNL     1       0.678   7.204  -2.240  0.00  0.00    +0.028 A 
ATOM     13  C   UNL     1      -0.205   8.046  -1.587  0.00  0.00    +0.002 A 
ATOM     14  C   UNL     1      -0.461   7.875  -0.239  0.00  0.00    +0.002 A 
ATOM     15  C   UNL     1       0.170   6.870   0.471  0.00  0.00    +0.025 A 
ATOM     16  C   UNL     1       4.334   3.744  -4.684  0.00  0.00    +0.266 A 
ATOM     17  O   UNL     1       4.455   4.345  -5.736  0.00  0.00    -0.267 OA
ATOM     18  N   UNL     1       4.967   2.567  -4.444  0.00  0.00    -0.263 N 
ATOM     19  C   UNL     1       4.855   1.883  -3.301  0.00  0.00    +0.332 A 
ATOM     20  O   UNL     1       5.476   0.842  -3.213  0.00  0.00    -0.246 OA
ATOM     21  C   UNL     1       5.821   2.015  -5.498  0.00  0.00    +0.157 C 
ATOM     22  H   UNL     1       1.958   5.157   1.603  0.00  0.00    +0.147 HD
ENDROOT
BRANCH   5  23
ATOM     23  C   UNL     1       2.473   6.420  -4.409  0.00  0.00    +0.035 A 
ATOM     24  C   UNL     1       3.308   7.541  -4.438  0.00  0.00    +0.013 A 
ATOM     25  C   UNL     1       3.091   8.535  -5.368  0.00  0.00    +0.001 A 
ATOM     26  C   UNL     1       2.044   8.431  -6.268  0.00  0.00    +0.003 A 
ATOM     27  C   UNL     1       1.210   7.328  -6.245  0.00  0.00    +0.039 A 
ATOM     28  C   UNL     1       1.417   6.321  -5.321  0.00  0.00    +0.133 A 
ATOM     29  F   UNL     1       0.601   5.244  -5.298  0.00  0.00    -0.205 F 
ENDBRANCH   5  23
BRANCH   8  30
ATOM     30  C   UNL     1       0.911   2.850  -0.225  0.00  0.00    +0.020 A 
ATOM     31  C   UNL     1       0.234   2.705  -1.421  0.00  0.00    +0.013 A 
ATOM     32  C   UNL     1      -0.859   1.865  -1.502  0.00  0.00    +0.046 A 
ATOM     33  C   UNL     1      -1.278   1.160  -0.382  0.00  0.00    +0.120 A 
ATOM     34  C   UNL     1      -0.605   1.308   0.821  0.00  0.00    +0.091 A 
ATOM     35  C   UNL     1       0.492   2.152   0.899  0.00  0.00    +0.126 A 
BRANCH  35  36
ATOM     36  O   UNL     1       1.157   2.296   2.075  0.00  0.00    -0.506 OA
ATOM     37  H   UNL     1       0.825   1.742   2.966  0.00  0.00    +0.292 HD
ENDBRANCH  35  36
BRANCH  33  38
ATOM     38  O   UNL     1      -2.351   0.329  -0.463  0.00  0.00    -0.507 OA
ATOM     39  H   UNL     1      -2.682  -0.229   0.425  0.00  0.00    +0.292 HD
ENDBRANCH  33  38
ENDBRANCH   8  30
TORSDOF 4
