REMARK  Name = ZINC04003864
REMARK  8 active torsions:
REMARK  status: ('A' for Active; 'I' for Inactive)
REMARK    1  A    between atoms: C_1  and  C_2
REMARK    2  A    between atoms: N_8  and  C_9
REMARK    3  A    between atoms: C_9  and  C_10
REMARK    4  A    between atoms: C_10  and  N_11
REMARK    5  A    between atoms: C_12  and  C_14
REMARK    6  A    between atoms: N_24  and  C_27
REMARK    7  A    between atoms: C_27  and  C_28
REMARK    8  A    between atoms: C_28  and  C_29
REMARK                            x       y       z     vdW  Elec       q    Type
REMARK                         _______ _______ _______ _____ _____    ______ ____
ROOT
ATOM      1  C   UNL     1       6.282   0.602   3.630  0.00  0.00    +0.039 A 
ATOM      2  C   UNL     1       6.728   1.386   2.561  0.00  0.00    +0.014 A 
ATOM      3  C   UNL     1       7.994   1.928   2.578  0.00  0.00    +0.016 A 
ATOM      4  C   UNL     1       8.831   1.692   3.666  0.00  0.00    +0.063 A 
ATOM      5  C   UNL     1       8.389   0.906   4.743  0.00  0.00    +0.056 A 
ATOM      6  C   UNL     1       7.112   0.367   4.723  0.00  0.00    +0.039 A 
ATOM      7  N   UNL     1       9.249   0.692   5.812  0.00  0.00    -0.307 N 
ATOM      8  H   UNL     1       8.957   0.150   6.562  0.00  0.00    +0.170 HD
ATOM      9  C   UNL     1      10.482   1.226   5.817  0.00  0.00    +0.330 A 
ATOM     10  O   UNL     1      11.204   1.014   6.772  0.00  0.00    -0.246 OA
ATOM     11  N   UNL     1      10.951   1.984   4.814  0.00  0.00    -0.260 N 
ATOM     12  C   UNL     1      10.196   2.254   3.727  0.00  0.00    +0.264 A 
ATOM     13  O   UNL     1      10.628   2.941   2.822  0.00  0.00    -0.267 OA
ENDROOT
BRANCH   1  15
ATOM     14  N   UNL     1       4.113   0.250   2.546  0.00  0.00    -0.313 N 
ATOM     15  C   UNL     1       4.919   0.025   3.602  0.00  0.00    +0.244 C 
ATOM     16  O   UNL     1       4.527  -0.652   4.532  0.00  0.00    -0.270 OA
ATOM     17  H   UNL     1       4.426   0.791   1.803  0.00  0.00    +0.149 HD
BRANCH  14  18
ATOM     18  C   UNL     1       2.764  -0.321   2.518  0.00  0.00    +0.086 C 
BRANCH  18  19
ATOM     19  C   UNL     1       2.066   0.083   1.218  0.00  0.00    -0.059 C 
BRANCH  19  26
ATOM     20  C   UNL     1      -0.019   1.526   0.010  0.00  0.00    -0.013 C 
ATOM     21  C   UNL     1       0.002  -0.004   0.002  0.00  0.00    -0.072 C 
ATOM     22  C   UNL     1      -1.434  -0.533   0.011  0.00  0.00    -0.016 C 
ATOM     23  C   UNL     1      -1.408  -2.064   0.003  0.00  0.00    -0.003 C 
ATOM     24  C   UNL     1      -0.600  -2.558   1.206  0.00  0.00    -0.019 C 
ATOM     25  C   UNL     1       0.805  -1.954   1.152  0.00  0.00    -0.078 C 
ATOM     26  N   UNL     1       0.713  -0.490   1.191  0.00  0.00    +0.382 N 
ATOM     27  H   UNL     1       0.213  -0.206   2.020  0.00  0.00    -0.081 HD
ENDBRANCH  19  26
ENDBRANCH  18  19
ENDBRANCH  14  18
ENDBRANCH   1  15
BRANCH  11  28
ATOM     28  C   UNL     1      12.308   2.529   4.898  0.00  0.00    +0.134 C 
BRANCH  28  29
ATOM     29  C   UNL     1      13.295   1.538   4.277  0.00  0.00    +0.057 C 
BRANCH  29  30
ATOM     30  C   UNL     1      14.691   2.098   4.365  0.00  0.00    -0.046 A 
ATOM     31  C   UNL     1      15.186   2.885   3.341  0.00  0.00    +0.004 A 
ATOM     32  C   UNL     1      16.466   3.399   3.421  0.00  0.00    +0.000 A 
ATOM     33  C   UNL     1      17.253   3.127   4.525  0.00  0.00    +0.000 A 
ATOM     34  C   UNL     1      16.758   2.341   5.549  0.00  0.00    +0.000 A 
ATOM     35  C   UNL     1      15.476   1.830   5.471  0.00  0.00    +0.004 A 
ENDBRANCH  29  30
ENDBRANCH  28  29
ENDBRANCH  11  28
TORSDOF 7
