REMARK  Name = ZINC36744992
REMARK  6 active torsions:
REMARK  status: ('A' for Active; 'I' for Inactive)
REMARK    1  A    between atoms: C_13  and  C_15
REMARK    2  A    between atoms: C_15  and  N_16
REMARK    3  A    between atoms: N_19  and  C_22
REMARK    4  A    between atoms: C_22  and  C_23
REMARK    5  A    between atoms: C_26  and  O_29
REMARK    6  A    between atoms: O_29  and  C_30
REMARK                            x       y       z     vdW  Elec       q    Type
REMARK                         _______ _______ _______ _____ _____    ______ ____
ROOT
ATOM      1  N   UNL     1      -0.698  -5.339  -0.022  0.00  0.00    +0.386 N 
ATOM      2  C   UNL     1      -1.030  -4.664   1.240  0.00  0.00    -0.063 C 
ATOM      3  C   UNL     1      -2.516  -4.300   1.249  0.00  0.00    +0.066 C 
ATOM      4  N   UNL     1      -3.318  -5.523   1.103  0.00  0.00    -0.302 NA
ATOM      5  C   UNL     1      -2.979  -6.223  -0.144  0.00  0.00    +0.066 C 
ATOM      6  C   UNL     1      -1.489  -6.571  -0.142  0.00  0.00    -0.063 C 
ATOM      7  H   UNL     1      -0.910  -4.727  -0.796  0.00  0.00    -0.081 HD
ENDROOT
BRANCH   1   8
ATOM      8  C   UNL     1       0.732  -5.672  -0.038  0.00  0.00    -0.003 C 
BRANCH   8  21
ATOM      9  C   UNL     1      -0.017   1.373   0.010  0.00  0.00    +0.001 A 
ATOM     10  C   UNL     1       1.173   2.087   0.002  0.00  0.00    +0.004 A 
ATOM     11  C   UNL     1       2.385   1.433  -0.013  0.00  0.00    +0.047 A 
ATOM     12  C   UNL     1       2.426   0.043  -0.021  0.00  0.00    +0.138 A 
ATOM     13  C   UNL     1       1.221  -0.678  -0.013  0.00  0.00    +0.046 A 
ATOM     14  C   UNL     1       0.002  -0.004   0.002  0.00  0.00    +0.014 A 
ATOM     15  C   UNL     1       1.607  -2.098  -0.025  0.00  0.00    +0.124 A 
ATOM     16  C   UNL     1       2.998  -2.111  -0.039  0.00  0.00    +0.218 A 
ATOM     17  O   UNL     1       3.448  -0.839  -0.037  0.00  0.00    -0.448 OA
ATOM     18  C   UNL     1       3.651  -3.364  -0.053  0.00  0.00    +0.295 A 
ATOM     19  O   UNL     1       4.869  -3.432  -0.066  0.00  0.00    -0.264 OA
ATOM     20  N   UNL     1       2.897  -4.484  -0.052  0.00  0.00    -0.309 N 
ATOM     21  C   UNL     1       1.544  -4.402  -0.038  0.00  0.00    +0.094 A 
ATOM     22  N   UNL     1       0.925  -3.254  -0.025  0.00  0.00    -0.232 NA
ATOM     23  H   UNL     1       3.327  -5.354  -0.061  0.00  0.00    +0.170 HD
ENDBRANCH   8  21
ENDBRANCH   1   8
BRANCH   4  24
ATOM     24  C   UNL     1      -4.754  -5.221   1.164  0.00  0.00    +0.119 C 
BRANCH  24  25
ATOM     25  C   UNL     1      -5.534  -6.508   1.258  0.00  0.00    -0.033 A 
ATOM     26  C   UNL     1      -5.947  -7.150   0.105  0.00  0.00    +0.008 A 
ATOM     27  C   UNL     1      -6.663  -8.329   0.189  0.00  0.00    +0.046 A 
ATOM     28  C   UNL     1      -6.966  -8.868   1.431  0.00  0.00    +0.130 A 
ATOM     29  C   UNL     1      -6.549  -8.222   2.586  0.00  0.00    +0.046 A 
ATOM     30  C   UNL     1      -5.830  -7.046   2.497  0.00  0.00    +0.008 A 
BRANCH  28  31
ATOM     31  O   UNL     1      -7.670 -10.028   1.515  0.00  0.00    -0.406 OA
BRANCH  31  32
ATOM     32  C   UNL     1      -7.945 -10.525   2.826  0.00  0.00    +0.575 C 
ATOM     33  F   UNL     1      -8.692  -9.579   3.537  0.00  0.00    -0.133 F 
ATOM     34  F   UNL     1      -8.672 -11.716   2.730  0.00  0.00    -0.133 F 
ATOM     35  F   UNL     1      -6.741 -10.767   3.496  0.00  0.00    -0.133 F 
ENDBRANCH  31  32
ENDBRANCH  28  31
ENDBRANCH  24  25
ENDBRANCH   4  24
TORSDOF 6
