REMARK  Name = ZINC08928019
REMARK  10 active torsions:
REMARK  status: ('A' for Active; 'I' for Inactive)
REMARK    1  A    between atoms: C_1  and  C_2
REMARK    2  A    between atoms: C_2  and  N_58
REMARK    3  A    between atoms: C_10  and  O_32
REMARK    4  A    between atoms: C_12  and  C_15
REMARK    5  A    between atoms: C_18  and  O_24
REMARK    6  A    between atoms: C_19  and  O_21
REMARK    7  A    between atoms: O_21  and  C_22
REMARK    8  A    between atoms: C_22  and  C_23
REMARK    9  A    between atoms: O_24  and  C_25
REMARK   10  A    between atoms: C_25  and  C_27
REMARK                            x       y       z     vdW  Elec       q    Type
REMARK                         _______ _______ _______ _____ _____    ______ ____
ROOT
ATOM      1  C   UNL     1      -6.241  -5.627   6.558  0.00  0.00    -0.074 C 
ATOM      2  C   UNL     1      -6.335  -6.259   5.167  0.00  0.00    +0.018 C 
ATOM      3  C   UNL     1      -6.745  -5.173   4.178  0.00  0.00    -0.027 A 
ATOM      4  C   UNL     1      -7.296  -4.021   4.629  0.00  0.00    -0.021 A 
ATOM      5  S   UNL     1      -7.612  -3.066   3.170  0.00  0.00    -0.080 S 
ATOM      6  C   UNL     1      -7.032  -4.170   1.999  0.00  0.00    +0.080 A 
ATOM      7  C   UNL     1      -6.588  -5.274   2.739  0.00  0.00    +0.067 A 
ATOM      8  C   UNL     1      -6.011  -6.414   1.981  0.00  0.00    +0.220 C 
ATOM      9  N   UNL     1      -5.769  -6.238   0.713  0.00  0.00    -0.223 NA
ATOM     10  C   UNL     1      -5.928  -4.977   0.000  0.00  0.00    +0.224 C 
ATOM     11  N   UNL     1      -6.955  -4.124   0.628  0.00  0.00    -0.313 N 
ATOM     12  C   UNL     1      -7.568  -3.664   6.056  0.00  0.00    -0.035 C 
ATOM     13  H   UNL     1      -7.544  -3.562   0.101  0.00  0.00    +0.149 HD
ATOM     14  N   UNL     1      -7.497  -4.910   6.857  0.00  0.00    +0.383 N 
ATOM     15  H   UNL     1      -8.292  -5.511   6.611  0.00  0.00    -0.081 HD
ENDROOT
BRANCH  10  16
ATOM     16  C   UNL     1      -4.613  -4.242   0.000  0.00  0.00    -0.002 A 
ATOM     17  C   UNL     1      -4.594  -2.860  -0.046  0.00  0.00    +0.011 A 
ATOM     18  C   UNL     1      -3.390  -2.182  -0.041  0.00  0.00    +0.050 A 
ATOM     19  C   UNL     1      -2.197  -2.886  -0.001  0.00  0.00    +0.173 A 
ATOM     20  C   UNL     1      -2.216  -4.277   0.046  0.00  0.00    +0.163 A 
ATOM     21  C   UNL     1      -3.427  -4.951   0.046  0.00  0.00    +0.056 A 
BRANCH  20  22
ATOM     22  O   UNL     1      -1.049  -4.973   0.091  0.00  0.00    -0.489 OA
BRANCH  22  23
ATOM     23  C   UNL     1      -1.145  -6.398   0.137  0.00  0.00    +0.226 C 
ATOM     24  C   UNL     1       0.260  -7.003   0.183  0.00  0.00    +0.048 C 
ENDBRANCH  22  23
ENDBRANCH  20  22
BRANCH  19  25
ATOM     25  O   UNL     1      -1.012  -2.220  -0.001  0.00  0.00    -0.416 OA
BRANCH  25  26
ATOM     26  C   UNL     1      -0.415  -2.033  -1.196  0.00  0.00    +0.380 C 
ATOM     27  O   UNL     1      -0.891  -2.532  -2.198  0.00  0.00    -0.241 OA
BRANCH  26  28
ATOM     28  C   UNL     1       0.806  -1.229  -1.287  0.00  0.00    +0.212 A 
ATOM     29  C   UNL     1       1.508  -0.961  -2.428  0.00  0.00    +0.056 A 
ATOM     30  C   UNL     1       2.598  -0.162  -2.053  0.00  0.00    +0.042 A 
ATOM     31  C   UNL     1       2.516   0.021  -0.716  0.00  0.00    +0.196 A 
ATOM     32  O   UNL     1       1.435  -0.623  -0.258  0.00  0.00    -0.456 OA
ENDBRANCH  26  28
ENDBRANCH  25  26
ENDBRANCH  19  25
ENDBRANCH  10  16
BRANCH  14  34
ATOM     33  C   UNL     1      -8.960  -4.044   8.619  0.00  0.00    -0.017 C 
ATOM     34  C   UNL     1      -7.566  -4.589   8.299  0.00  0.00    -0.082 C 
ENDBRANCH  14  34
BRANCH   8  35
ATOM     35  O   UNL     1      -5.745  -7.593   2.588  0.00  0.00    -0.492 OA
ATOM     36  H   UNL     1      -5.371  -8.263   1.999  0.00  0.00    +0.294 HD
ENDBRANCH   8  35
TORSDOF 8
