REMARK  Name = ZINC30884185
REMARK  11 active torsions:
REMARK  status: ('A' for Active; 'I' for Inactive)
REMARK    1  A    between atoms: C_1  and  C_2
REMARK    2  A    between atoms: C_2  and  N_3
REMARK    3  A    between atoms: N_6  and  C_7
REMARK    4  A    between atoms: C_11  and  C_39
REMARK    5  A    between atoms: C_14  and  C_24
REMARK    6  A    between atoms: C_16  and  O_23
REMARK    7  A    between atoms: C_20  and  C_22
REMARK    8  A    between atoms: C_24  and  C_26
REMARK    9  A    between atoms: C_24  and  C_27
REMARK   10  A    between atoms: N_29  and  C_30
REMARK   11  A    between atoms: C_30  and  C_31
REMARK                            x       y       z     vdW  Elec       q    Type
REMARK                         _______ _______ _______ _____ _____    ______ ____
ROOT
ATOM      1  C   UNL     1       4.105   0.551   1.882  0.00  0.00    +0.078 C 
ATOM      2  C   UNL     1       3.573   0.878   3.278  0.00  0.00    +0.023 C 
ATOM      3  C   UNL     1       2.044   0.829   3.265  0.00  0.00    +0.009 C 
ATOM      4  C   UNL     1       1.509   1.854   2.263  0.00  0.00    -0.027 C 
ATOM      5  C   UNL     1      -0.020   1.806   2.250  0.00  0.00    +0.007 C 
ATOM      6  C   UNL     1      -0.554   2.830   1.247  0.00  0.00    +0.007 C 
ATOM      7  C   UNL     1      -0.022   2.503  -0.149  0.00  0.00    +0.029 C 
ATOM      8  C   UNL     1       1.507   2.551  -0.136  0.00  0.00    +0.122 C 
ATOM      9  C   UNL     1       2.042   1.527   0.866  0.00  0.00    +0.028 C 
ATOM     10  C   UNL     1       3.571   1.575   0.879  0.00  0.00    +0.012 C 
ATOM     11  C   UNL     1       4.103   1.248  -0.517  0.00  0.00    +0.010 C 
ATOM     12  C   UNL     1       1.972   3.255   2.670  0.00  0.00    +0.011 C 
ENDROOT
BRANCH   1  16
ATOM     13  N   UNL     1       7.622  -0.443   2.287  0.00  0.00    -0.300 N 
ATOM     14  C   UNL     1       6.275  -0.486   2.276  0.00  0.00    +0.300 C 
ATOM     15  O   UNL     1       5.696  -1.502   2.610  0.00  0.00    -0.253 OA
ATOM     16  N   UNL     1       5.569   0.597   1.894  0.00  0.00    -0.296 N 
ATOM     17  H   UNL     1       8.146   0.476   1.985  0.00  0.00    +0.150 HD
ATOM     18  H   UNL     1       6.093   1.516   1.592  0.00  0.00    +0.151 HD
BRANCH  13  20
ATOM     19  C   UNL     1       9.885  -1.308   2.625  0.00  0.00    +0.024 C 
ATOM     20  C   UNL     1       8.389  -1.620   2.702  0.00  0.00    +0.102 C 
ENDBRANCH  13  20
ENDBRANCH   1  16
BRANCH   8  21
ATOM     21  O   UNL     1       2.005   2.246  -1.441  0.00  0.00    -0.391 OA
ATOM     22  H   UNL     1       3.089   2.232  -1.627  0.00  0.00    +0.210 HD
ENDBRANCH   8  21
BRANCH   7  23
ATOM     23  C   UNL     1      -0.556   3.528  -1.152  0.00  0.00    +0.077 C 
ATOM     24  C   UNL     1      -0.220   4.939  -0.667  0.00  0.00    +0.017 C 
BRANCH  23  25
ATOM     25  C   UNL     1      -2.051   3.380  -1.272  0.00  0.00    +0.216 C 
ATOM     26  O   UNL     1      -2.627   2.513  -0.650  0.00  0.00    -0.276 OA
ATOM     27  N   UNL     1      -2.748   4.213  -2.071  0.00  0.00    -0.311 N 
ATOM     28  H   UNL     1      -2.226   4.999  -2.635  0.00  0.00    +0.149 HD
BRANCH  27  29
ATOM     29  C   UNL     1      -4.202   4.069  -2.188  0.00  0.00    +0.139 C 
BRANCH  29  30
ATOM     30  C   UNL     1      -4.735   5.114  -3.135  0.00  0.00    -0.025 A 
ATOM     31  C   UNL     1      -5.132   6.346  -2.651  0.00  0.00    +0.043 A 
ATOM     32  C   UNL     1      -5.617   7.308  -3.521  0.00  0.00    +0.126 A 
ATOM     33  C   UNL     1      -5.714   7.031  -4.874  0.00  0.00    +0.076 A 
ATOM     34  C   UNL     1      -5.320   5.795  -5.356  0.00  0.00    +0.126 A 
ATOM     35  C   UNL     1      -4.831   4.836  -4.485  0.00  0.00    +0.043 A 
ATOM     36  F   UNL     1      -5.414   5.524  -6.676  0.00  0.00    -0.205 F 
ATOM     37  F   UNL     1      -6.000   8.514  -3.049  0.00  0.00    -0.205 F 
ENDBRANCH  29  30
ENDBRANCH  27  29
ENDBRANCH  23  25
ENDBRANCH   7  23
TORSDOF 7
