REMARK  Name = ZINC38569936
REMARK  10 active torsions:
REMARK  status: ('A' for Active; 'I' for Inactive)
REMARK    1  A    between atoms: CB_1  and  CA_2
REMARK    2  A    between atoms: CA_2  and  C_4
REMARK    3  A    between atoms: CA_2  and  N_7
REMARK    4  A    between atoms: C_8  and  CA_10
REMARK    5  A    between atoms: CA_10  and  CB_12
REMARK    6  A    between atoms: CA_10  and  N_15
REMARK    7  A    between atoms: CB_12  and  CG1_13
REMARK    8  A    between atoms: CB_12  and  CG2_14
REMARK    9  A    between atoms: C_16  and  C_18
REMARK   10  A    between atoms: N_26  and  C_27
REMARK                            x       y       z     vdW  Elec       q    Type
REMARK                         _______ _______ _______ _____ _____    ______ ____
ROOT
ATOM      1  N   VAL A   1      -3.985  -1.383  -2.463  0.00  0.00    -0.299 N 
ATOM      2  C   UNK A   0      -5.314  -1.459  -2.671  0.00  0.00    +0.261 C 
ATOM      3  O   UNK A   0      -6.085  -1.288  -1.746  0.00  0.00    -0.269 OA
ATOM      4  H   VAL A   1      -3.372  -1.437  -3.213  0.00  0.00    +0.150 HD
ENDROOT
BRANCH   2   5
ATOM      5  C   UNK A   0      -5.832  -1.750  -4.016  0.00  0.00    +0.105 A 
ATOM      6  C   UNK A   0      -5.075  -2.053  -5.103  0.00  0.00    +0.041 A 
ATOM      7  C   UNK A   0      -5.953  -2.262  -6.194  0.00  0.00    +0.002 A 
ATOM      8  C   UNK A   0      -5.752  -2.595  -7.540  0.00  0.00    +0.030 A 
ATOM      9  C   UNK A   0      -6.824  -2.731  -8.374  0.00  0.00    +0.042 A 
ATOM     10  C   UNK A   0      -8.117  -2.542  -7.899  0.00  0.00    +0.022 A 
ATOM     11  C   UNK A   0      -8.340  -2.215  -6.581  0.00  0.00    +0.028 A 
ATOM     12  C   UNK A   0      -7.262  -2.071  -5.711  0.00  0.00    +0.049 A 
ATOM     13  N   UNK A   0      -7.166  -1.764  -4.374  0.00  0.00    -0.339 N 
ATOM     14  C   UNK A   0      -8.293  -1.493  -3.478  0.00  0.00    +0.149 C 
ATOM     15 CL   UNK A   0      -6.572  -3.142 -10.041  0.00  0.00    -0.084 Cl
ENDBRANCH   2   5
BRANCH   1  16
ATOM     16  CA  VAL A   1      -3.464  -1.217  -1.103  0.00  0.00    +0.162 C 
BRANCH  16  18
ATOM     17  N   VAL A   1      -1.576  -0.015  -0.050  0.00  0.00    -0.301 N 
ATOM     18  C   VAL A   1      -2.108  -0.563  -1.161  0.00  0.00    +0.234 C 
ATOM     19  O   VAL A   1      -1.494  -0.530  -2.206  0.00  0.00    -0.274 OA
ATOM     20  H   VAL A   1      -2.096   0.025   0.768  0.00  0.00    +0.150 HD
BRANCH  17  22
ATOM     21  CB  VAL A   1      -0.239   1.958  -0.597  0.00  0.00    +0.040 C 
ATOM     22  CA  VAL A   1      -0.212   0.519  -0.077  0.00  0.00    +0.183 C 
BRANCH  22  23
ATOM     23  C   VAL A   1       0.363   0.499   1.315  0.00  0.00    +0.376 C 
ATOM     24  O   VAL A   1      -0.372   0.617   2.281  0.00  0.00    -0.244 OA
ATOM     25  OXT VAL A   1       1.564   0.363   1.476  0.00  0.00    -0.244 OA
ENDBRANCH  22  23
ENDBRANCH  17  22
ENDBRANCH  16  18
BRANCH  16  26
ATOM     26  CB  VAL A   1      -3.341  -2.588  -0.434  0.00  0.00    +0.012 C 
ATOM     27  CG1 VAL A   1      -2.911  -2.407   1.023  0.00  0.00    +0.009 C 
ATOM     28  CG2 VAL A   1      -4.694  -3.302  -0.482  0.00  0.00    +0.009 C 
ENDBRANCH  16  26
ENDBRANCH   1  16
TORSDOF 6
