REMARK  Name = ZINC15228724
REMARK  7 active torsions:
REMARK  status: ('A' for Active; 'I' for Inactive)
REMARK    1  A    between atoms: C_1  and  C_2
REMARK    2  A    between atoms: C_2  and  O_3
REMARK    3  A    between atoms: O_3  and  C_4
REMARK    4  A    between atoms: C_4  and  C_6
REMARK    5  A    between atoms: C_10  and  N_11
REMARK    6  A    between atoms: C_12  and  C_14
REMARK    7  A    between atoms: C_31  and  C_34
REMARK                            x       y       z     vdW  Elec       q    Type
REMARK                         _______ _______ _______ _____ _____    ______ ____
ROOT
ATOM      1  C   UNL     1      -1.248   3.141   0.031  0.00  0.00    +0.037 A 
ATOM      2  C   UNL     1      -1.215   1.743   0.017  0.00  0.00    +0.015 A 
ATOM      3  C   UNL     1      -0.013   1.076   0.008  0.00  0.00    +0.024 A 
ATOM      4  C   UNL     1       1.184   1.783   0.000  0.00  0.00    +0.031 A 
ATOM      5  C   UNL     1       1.142   3.194   0.020  0.00  0.00    -0.022 A 
ATOM      6  C   UNL     1      -0.046   3.861   0.029  0.00  0.00    +0.018 A 
ATOM      7  C   UNL     1       2.481   3.838   0.045  0.00  0.00    +0.029 C 
ATOM      8  C   UNL     1       2.638   5.265   0.585  0.00  0.00    -0.003 C 
ATOM      9  C   UNL     1       2.238   5.294   2.086  0.00  0.00    +0.004 C 
ATOM     10  C   UNL     1       3.392   4.617   2.865  0.00  0.00    +0.004 C 
ATOM     11  C   UNL     1       4.274   3.997   1.714  0.00  0.00    -0.005 C 
ATOM     12  C   UNL     1       4.217   5.232   0.732  0.00  0.00    +0.008 C 
ATOM     13  C   UNL     1       3.269   3.021   1.107  0.00  0.00    +0.024 C 
ATOM     14  C   UNL     1       3.641   1.698   0.531  0.00  0.00    +0.105 C 
ATOM     15  N   UNL     1       2.405   1.115  -0.043  0.00  0.00    -0.336 N 
ATOM     16  H   UNL     1       2.447   0.240  -0.461  0.00  0.00    +0.147 HD
ENDROOT
BRANCH  14  17
ATOM     17  C   UNL     1       4.676   1.879  -0.549  0.00  0.00    -0.027 A 
ATOM     18  C   UNL     1       4.290   2.271  -1.818  0.00  0.00    +0.005 A 
ATOM     19  C   UNL     1       5.240   2.442  -2.808  0.00  0.00    +0.000 A 
ATOM     20  C   UNL     1       6.575   2.212  -2.532  0.00  0.00    +0.000 A 
ATOM     21  C   UNL     1       6.960   1.816  -1.265  0.00  0.00    +0.000 A 
ATOM     22  C   UNL     1       6.011   1.649  -0.274  0.00  0.00    +0.005 A 
ENDBRANCH  14  17
BRANCH   1  24
ATOM     23  N   UNL     1      -3.693   3.156   0.043  0.00  0.00    -0.275 N 
ATOM     24  C   UNL     1      -2.540   3.853   0.042  0.00  0.00    +0.249 C 
ATOM     25  O   UNL     1      -2.564   5.069   0.049  0.00  0.00    -0.270 OA
ATOM     26  H   UNL     1      -3.674   2.186   0.037  0.00  0.00    +0.156 HD
BRANCH  23  31
ATOM     27  C   UNL     1      -6.188   3.288   0.051  0.00  0.00    +0.091 A 
ATOM     28  C   UNL     1      -7.304   4.218   0.067  0.00  0.00    -0.021 A 
ATOM     29  C   UNL     1      -6.964   5.525   0.072  0.00  0.00    -0.004 A 
ATOM     30  S   UNL     1      -5.194   5.533   0.064  0.00  0.00    -0.077 S 
ATOM     31  C   UNL     1      -4.906   3.824   0.053  0.00  0.00    +0.087 A 
ATOM     32  C   UNL     1      -7.893   6.700   0.082  0.00  0.00    +0.043 C 
ATOM     33  C   UNL     1      -9.299   6.208  -0.294  0.00  0.00    +0.005 C 
ATOM     34  C   UNL     1      -9.625   4.964   0.538  0.00  0.00    +0.005 C 
ATOM     35  C   UNL     1      -8.766   3.787   0.072  0.00  0.00    +0.037 C 
BRANCH  27  36
ATOM     36  C   UNL     1      -6.405   1.840   0.036  0.00  0.00    +0.342 C 
ATOM     37  O   UNL     1      -6.493   1.228   1.083  0.00  0.00    -0.245 OA
BRANCH  36  38
ATOM     38  O   UNL     1      -6.507   1.185  -1.139  0.00  0.00    -0.461 OA
BRANCH  38  40
ATOM     39  C   UNL     1      -6.812  -0.813  -2.497  0.00  0.00    +0.048 C 
ATOM     40  C   UNL     1      -6.722  -0.249  -1.077  0.00  0.00    +0.229 C 
ENDBRANCH  38  40
ENDBRANCH  36  38
ENDBRANCH  27  36
ENDBRANCH  23  31
ENDBRANCH   1  24
TORSDOF 6
