REMARK  Name = ZINC41006493
REMARK  12 active torsions:
REMARK  status: ('A' for Active; 'I' for Inactive)
REMARK    1  A    between atoms: C_1  and  C_2
REMARK    2  A    between atoms: C_7  and  N_8
REMARK    3  A    between atoms: C_9  and  C_11
REMARK    4  A    between atoms: C_13  and  C_33
REMARK    5  A    between atoms: C_15  and  C_23
REMARK    6  A    between atoms: C_17  and  C_21
REMARK    7  A    between atoms: C_17  and  O_22
REMARK    8  A    between atoms: N_25  and  C_26
REMARK    9  A    between atoms: C_31  and  C_32
REMARK   10  A    between atoms: C_36  and  N_39
REMARK   11  A    between atoms: N_39  and  C_40
REMARK   12  A    between atoms: N_39  and  C_41
REMARK                            x       y       z     vdW  Elec       q    Type
REMARK                         _______ _______ _______ _____ _____    ______ ____
ROOT
ATOM      1  C   UNL     1      -0.455   0.213   4.982  0.00  0.00    +0.149 C 
ATOM      2  C   UNL     1      -0.071  -0.981   5.862  0.00  0.00    +0.053 C 
ATOM      3  C   UNL     1       1.325  -1.470   5.474  0.00  0.00    +0.115 C 
ATOM      4  C   UNL     1       2.356  -0.377   5.758  0.00  0.00    +0.082 C 
ATOM      5  C   UNL     1       2.063   0.840   4.874  0.00  0.00    +0.110 C 
ATOM      6  C   UNL     1       0.625   1.266   5.096  0.00  0.00    +0.148 C 
ATOM      7  O   UNL     1       0.348   2.412   5.359  0.00  0.00    -0.296 OA
ATOM      8  C   UNL     1       2.274   0.031   7.231  0.00  0.00    +0.042 C 
ENDROOT
BRANCH   2   9
ATOM      9  C   UNL     1      -1.068  -2.093   5.662  0.00  0.00    -0.042 A 
ATOM     10  C   UNL     1      -2.309  -2.025   6.270  0.00  0.00    +0.006 A 
ATOM     11  C   UNL     1      -3.225  -3.043   6.088  0.00  0.00    +0.023 A 
ATOM     12  C   UNL     1      -2.898  -4.136   5.296  0.00  0.00    +0.029 A 
ATOM     13  C   UNL     1      -1.651  -4.201   4.687  0.00  0.00    +0.023 A 
ATOM     14  C   UNL     1      -0.742  -3.177   4.868  0.00  0.00    +0.006 A 
BRANCH  12  15
ATOM     15  N   UNL     1      -3.822  -5.167   5.111  0.00  0.00    -0.336 N 
ATOM     16  C   UNL     1      -5.185  -5.032   5.631  0.00  0.00    +0.129 C 
ATOM     17  C   UNL     1      -3.428  -6.384   4.396  0.00  0.00    +0.129 C 
ENDBRANCH  12  15
ENDBRANCH   2   9
BRANCH   1  19
ATOM     18  N   UNL     1      -0.945   0.647   2.596  0.00  0.00    -0.285 N 
ATOM     19  C   UNL     1      -0.576  -0.234   3.548  0.00  0.00    +0.228 C 
ATOM     20  O   UNL     1      -0.342  -1.386   3.250  0.00  0.00    -0.275 OA
ATOM     21  H   UNL     1      -1.069   1.582   2.823  0.00  0.00    +0.155 HD
BRANCH  18  28
ATOM     22  C   UNL     1      -2.957   1.937   1.052  0.00  0.00    +0.045 C 
ATOM     23  C   UNL     1      -2.121   0.814   0.494  0.00  0.00    -0.029 A 
ATOM     24  C   UNL     1      -2.317   0.387  -0.805  0.00  0.00    +0.005 A 
ATOM     25  C   UNL     1      -1.551  -0.643  -1.318  0.00  0.00    +0.000 A 
ATOM     26  C   UNL     1      -0.586  -1.249  -0.534  0.00  0.00    +0.002 A 
ATOM     27  C   UNL     1      -0.385  -0.826   0.765  0.00  0.00    +0.023 A 
ATOM     28  C   UNL     1      -1.150   0.212   1.282  0.00  0.00    +0.036 A 
ENDBRANCH  18  28
ENDBRANCH   1  19
BRANCH   3  29
ATOM     29  C   UNL     1       1.666  -2.699   6.278  0.00  0.00    +0.224 C 
ATOM     30  O   UNL     1       0.870  -3.138   7.081  0.00  0.00    -0.275 OA
ATOM     31  N   UNL     1       2.855  -3.309   6.104  0.00  0.00    -0.285 N 
ATOM     32  H   UNL     1       3.513  -2.927   5.503  0.00  0.00    +0.155 HD
BRANCH  31  33
ATOM     33  C   UNL     1       3.139  -4.495   6.791  0.00  0.00    +0.036 A 
ATOM     34  C   UNL     1       2.536  -4.753   8.015  0.00  0.00    +0.023 A 
ATOM     35  C   UNL     1       2.819  -5.924   8.690  0.00  0.00    +0.002 A 
ATOM     36  C   UNL     1       3.703  -6.839   8.148  0.00  0.00    +0.000 A 
ATOM     37  C   UNL     1       4.306  -6.585   6.930  0.00  0.00    +0.005 A 
ATOM     38  C   UNL     1       4.022  -5.419   6.247  0.00  0.00    -0.029 A 
ATOM     39  C   UNL     1       4.674  -5.146   4.916  0.00  0.00    +0.045 C 
ENDBRANCH  31  33
ENDBRANCH   3  29
BRANCH   4  40
ATOM     40  O   UNL     1       3.666  -0.871   5.472  0.00  0.00    -0.388 OA
ATOM     41  H   UNL     1       4.371  -0.228   5.630  0.00  0.00    +0.210 HD
ENDBRANCH   4  40
TORSDOF 7
