REMARK  Name = ZINC51123803
REMARK  6 active torsions:
REMARK  status: ('A' for Active; 'I' for Inactive)
REMARK    1  A    between atoms: C_1  and  C_2
REMARK    2  A    between atoms: C_2  and  C_3
REMARK    3  A    between atoms: C_9  and  N_11
REMARK    4  A    between atoms: C_12  and  C_14
REMARK    5  A    between atoms: C_17  and  N_20
REMARK    6  A    between atoms: N_20  and  N_21
REMARK                            x       y       z     vdW  Elec       q    Type
REMARK                         _______ _______ _______ _____ _____    ______ ____
ROOT
ATOM      1  N   UNL     1      -0.673  -2.638   1.000  0.00  0.00    -0.308 N 
ATOM      2  C   UNL     1      -0.090  -3.846   0.869  0.00  0.00    +0.244 C 
ATOM      3  O   UNL     1      -0.182  -4.455  -0.179  0.00  0.00    -0.270 OA
ATOM      4  H   UNL     1      -0.600  -2.152   1.837  0.00  0.00    +0.149 HD
ENDROOT
BRANCH   1  10
ATOM      5  C   UNL     1      -1.433  -0.534   0.013  0.00  0.00    +0.009 C 
ATOM      6  C   UNL     1      -2.110  -0.145   1.329  0.00  0.00    +0.005 C 
ATOM      7  C   UNL     1      -3.546  -0.675   1.340  0.00  0.00    +0.000 C 
ATOM      8  C   UNL     1      -3.528  -2.199   1.206  0.00  0.00    +0.002 C 
ATOM      9  C   UNL     1      -2.851  -2.587  -0.110  0.00  0.00    +0.022 C 
ATOM     10  C   UNL     1      -1.416  -2.058  -0.121  0.00  0.00    +0.076 C 
BRANCH   5  12
ATOM     11  C   UNL     1      -0.019   1.526   0.010  0.00  0.00    +0.004 C 
ATOM     12  C   UNL     1       0.002  -0.004   0.002  0.00  0.00    +0.002 C 
ENDBRANCH   5  12
ENDBRANCH   1  10
BRANCH   2  13
ATOM     13  C   UNL     1       0.658  -4.431   1.998  0.00  0.00    +0.037 A 
ATOM     14  C   UNL     1       0.759  -3.735   3.207  0.00  0.00    +0.015 A 
ATOM     15  C   UNL     1       1.458  -4.283   4.258  0.00  0.00    +0.025 A 
ATOM     16  C   UNL     1       2.063  -5.529   4.120  0.00  0.00    +0.041 A 
ATOM     17  C   UNL     1       1.964  -6.224   2.917  0.00  0.00    +0.025 A 
ATOM     18  C   UNL     1       1.262  -5.684   1.864  0.00  0.00    +0.015 A 
BRANCH  16  19
ATOM     19  N   UNL     1       2.768  -6.080   5.184  0.00  0.00    -0.283 N 
ATOM     20  H   UNL     1       2.838  -5.596   6.022  0.00  0.00    +0.166 HD
BRANCH  19  21
ATOM     21  N   UNL     1       3.363  -7.302   5.049  0.00  0.00    -0.257 NA
ATOM     22  H   UNL     1       3.998  -7.311   4.265  0.00  0.00    +0.140 HD
ATOM     23  H   UNL     1       3.835  -7.570   5.900  0.00  0.00    +0.140 HD
ENDBRANCH  19  21
ENDBRANCH  16  19
ENDBRANCH   2  13
TORSDOF 5
