REMARK  Name = ZINC43222655
REMARK  16 active torsions:
REMARK  status: ('A' for Active; 'I' for Inactive)
REMARK    1  A    between atoms: C_1  and  C_2
REMARK    2  A    between atoms: C_2  and  C_4
REMARK    3  A    between atoms: C_2  and  N_10
REMARK    4  A    between atoms: C_4  and  C_5
REMARK    5  A    between atoms: C_5  and  C_6
REMARK    6  A    between atoms: C_6  and  C_7
REMARK    7  A    between atoms: C_7  and  C_8
REMARK    8  A    between atoms: C_7  and  C_9
REMARK    9  A    between atoms: C_11  and  C_13
REMARK   10  A    between atoms: C_18  and  C_20
REMARK   11  A    between atoms: N_22  and  C_23
REMARK   12  A    between atoms: C_23  and  C_24
REMARK   13  A    between atoms: C_28  and  O_32
REMARK   14  A    between atoms: C_29  and  O_30
REMARK   15  A    between atoms: O_30  and  C_31
REMARK   16  A    between atoms: O_32  and  C_33
REMARK                            x       y       z     vdW  Elec       q    Type
REMARK                         _______ _______ _______ _____ _____    ______ ____
ROOT
ATOM      1  C   UNL     1       0.712  -1.094  -3.598  0.00  0.00    +0.068 C 
ATOM      2  C   UNL     1       1.236  -2.531  -3.389  0.00  0.00    -0.069 C 
ATOM      3  N   UNL     1       0.174  -3.403  -3.953  0.00  0.00    +0.380 N 
ATOM      4  C   UNL     1      -0.274  -2.688  -5.176  0.00  0.00    -0.069 C 
ATOM      5  C   UNL     1      -0.281  -1.195  -4.775  0.00  0.00    +0.068 C 
ATOM      6  H   UNL     1       0.550  -4.308  -4.192  0.00  0.00    -0.086 HD
ATOM      7  H   UNL     1      -0.590  -3.497  -3.300  0.00  0.00    -0.086 HD
ENDROOT
BRANCH   1   9
ATOM      8  N   UNL     1       0.688  -0.476  -1.203  0.00  0.00    -0.313 N 
ATOM      9  C   UNL     1       0.006  -0.608  -2.358  0.00  0.00    +0.215 C 
ATOM     10  O   UNL     1      -1.175  -0.336  -2.400  0.00  0.00    -0.276 OA
ATOM     11  H   UNL     1       1.632  -0.695  -1.170  0.00  0.00    +0.149 HD
BRANCH   8  13
ATOM     12  C   UNL     1      -0.019   1.526   0.010  0.00  0.00    +0.028 C 
ATOM     13  C   UNL     1       0.002  -0.004   0.002  0.00  0.00    +0.070 C 
BRANCH  13  14
ATOM     14  C   UNL     1       0.742  -0.511   1.242  0.00  0.00    +0.022 C 
BRANCH  14  15
ATOM     15  C   UNL     1       0.655  -2.037   1.299  0.00  0.00    +0.002 C 
BRANCH  15  16
ATOM     16  C   UNL     1       1.395  -2.544   2.538  0.00  0.00    +0.003 C 
BRANCH  16  17
ATOM     17  C   UNL     1       1.309  -4.071   2.595  0.00  0.00    -0.017 C 
ATOM     18  C   UNL     1       2.152  -4.586   3.763  0.00  0.00    +0.007 C 
ATOM     19  C   UNL     1      -0.149  -4.492   2.794  0.00  0.00    +0.007 C 
ENDBRANCH  16  17
ENDBRANCH  15  16
ENDBRANCH  14  15
ENDBRANCH  13  14
ENDBRANCH   8  13
ENDBRANCH   1   9
BRANCH   5  20
ATOM     20  C   UNL     1       0.183  -0.339  -5.926  0.00  0.00    +0.215 C 
ATOM     21  O   UNL     1       1.210   0.298  -5.832  0.00  0.00    -0.276 OA
ATOM     22  N   UNL     1      -0.544  -0.283  -7.059  0.00  0.00    -0.311 N 
ATOM     23  H   UNL     1      -1.365  -0.794  -7.135  0.00  0.00    +0.149 HD
BRANCH  22  24
ATOM     24  C   UNL     1      -0.093   0.548  -8.178  0.00  0.00    +0.143 C 
BRANCH  24  25
ATOM     25  C   UNL     1      -1.075   0.436  -9.316  0.00  0.00    +0.015 A 
ATOM     26  C   UNL     1      -0.806  -0.403 -10.382  0.00  0.00    +0.009 A 
ATOM     27  C   UNL     1      -1.704  -0.508 -11.426  0.00  0.00    +0.004 A 
ATOM     28  C   UNL     1      -2.877   0.225 -11.410  0.00  0.00    +0.049 A 
ATOM     29  C   UNL     1      -3.153   1.067 -10.345  0.00  0.00    +0.162 A 
ATOM     30  C   UNL     1      -2.251   1.168  -9.290  0.00  0.00    +0.166 A 
BRANCH  30  31
ATOM     31  O   UNL     1      -2.520   1.989  -8.240  0.00  0.00    -0.491 OA
ATOM     32  C   UNL     1      -2.064   3.339  -8.338  0.00  0.00    +0.277 C 
ENDBRANCH  30  31
BRANCH  29  33
ATOM     33  O   UNL     1      -4.306   1.788 -10.328  0.00  0.00    -0.491 OA
ATOM     34  C   UNL     1      -5.187   1.629 -11.441  0.00  0.00    +0.277 C 
ENDBRANCH  29  33
ENDBRANCH  24  25
ENDBRANCH  22  24
ENDBRANCH   5  20
TORSDOF 11
