REMARK  Name = ZINC08882672
REMARK  10 active torsions:
REMARK  status: ('A' for Active; 'I' for Inactive)
REMARK    1  A    between atoms: C_1  and  C_2
REMARK    2  A    between atoms: C_5  and  C_8
REMARK    3  A    between atoms: C_8  and  N_9
REMARK    4  A    between atoms: C_10  and  C_31
REMARK    5  A    between atoms: C_11  and  C_15
REMARK    6  A    between atoms: C_12  and  C_14
REMARK    7  A    between atoms: N_16  and  N_17
REMARK    8  A    between atoms: C_18  and  C_20
REMARK    9  A    between atoms: C_24  and  S_26
REMARK   10  A    between atoms: S_26  and  N_29
REMARK                            x       y       z     vdW  Elec       q    Type
REMARK                         _______ _______ _______ _____ _____    ______ ____
ROOT
ATOM      1  C   UNL     1       1.323   1.717   2.814  0.00  0.00    +0.141 C 
ATOM      2  N   UNL     1       2.157   1.310   1.908  0.00  0.00    -0.187 NA
ENDROOT
BRANCH   1   5
ATOM      3  N   UNL     1      -2.265   2.246   2.661  0.00  0.00    -0.263 N 
ATOM      4  C   UNL     1      -1.106   2.267   3.349  0.00  0.00    +0.045 A 
ATOM      5  C   UNL     1      -0.111   1.849   2.492  0.00  0.00    +0.038 A 
ATOM      6  C   UNL     1      -0.718   1.572   1.248  0.00  0.00    +0.069 A 
ATOM      7  N   UNL     1      -1.996   1.815   1.357  0.00  0.00    -0.175 NA
ATOM      8  C   UNL     1      -0.013   1.086   0.008  0.00  0.00    +0.068 C 
ATOM      9  C   UNL     1      -0.931   2.673   4.789  0.00  0.00    +0.066 C 
BRANCH   3  10
ATOM     10  C   UNL     1      -3.581   2.615   3.188  0.00  0.00    +0.178 C 
BRANCH  10  15
ATOM     11  C   UNL     1      -4.487   8.257   2.328  0.00  0.00    +0.044 C 
ATOM     12  C   UNL     1      -4.251   6.785   2.553  0.00  0.00    -0.050 A 
ATOM     13  C   UNL     1      -4.636   5.870   1.591  0.00  0.00    +0.004 A 
ATOM     14  C   UNL     1      -4.419   4.520   1.797  0.00  0.00    +0.006 A 
ATOM     15  C   UNL     1      -3.818   4.086   2.964  0.00  0.00    -0.026 A 
ATOM     16  C   UNL     1      -3.438   5.002   3.927  0.00  0.00    +0.006 A 
ATOM     17  C   UNL     1      -3.651   6.352   3.720  0.00  0.00    +0.004 A 
ENDBRANCH  10  15
ENDBRANCH   3  10
ENDBRANCH   1   5
BRANCH   2  18
ATOM     18  N   UNL     1       3.518   1.183   2.214  0.00  0.00    -0.203 N 
ATOM     19  C   UNL     1       4.385   0.761   1.272  0.00  0.00    +0.263 C 
ATOM     20  O   UNL     1       3.985   0.489   0.157  0.00  0.00    -0.268 OA
ATOM     21  H   UNL     1       3.837   1.400   3.104  0.00  0.00    +0.178 HD
BRANCH  19  22
ATOM     22  C   UNL     1       5.820   0.628   1.596  0.00  0.00    +0.040 A 
ATOM     23  C   UNL     1       6.283   0.945   2.875  0.00  0.00    +0.014 A 
ATOM     24  C   UNL     1       7.623   0.814   3.172  0.00  0.00    +0.023 A 
ATOM     25  C   UNL     1       8.511   0.379   2.201  0.00  0.00    +0.067 A 
ATOM     26  C   UNL     1       8.059   0.068   0.930  0.00  0.00    +0.124 A 
ATOM     27  C   UNL     1       6.720   0.190   0.622  0.00  0.00    +0.043 A 
ATOM     28 CL   UNL     1      10.198   0.223   2.581  0.00  0.00    -0.082 Cl
BRANCH  26  29
ATOM     29  S   UNL     1       9.196  -0.485  -0.297  0.00  0.00    +0.057 S 
ATOM     30  O   UNL     1       9.973  -1.512   0.303  0.00  0.00    -0.153 OA
ATOM     31  O   UNL     1       8.443  -0.694  -1.484  0.00  0.00    -0.153 OA
BRANCH  29  32
ATOM     32  N   UNL     1      10.230   0.771  -0.608  0.00  0.00    -0.203 NA
ATOM     33  H   UNL     1      10.128   1.612  -0.135  0.00  0.00    +0.144 HD
ATOM     34  H   UNL     1      10.938   0.666  -1.262  0.00  0.00    +0.144 HD
ENDBRANCH  29  32
ENDBRANCH  26  29
ENDBRANCH  19  22
ENDBRANCH   2  18
TORSDOF 7
