REMARK  Name = ZINC39608694
REMARK  10 active torsions:
REMARK  status: ('A' for Active; 'I' for Inactive)
REMARK    1  A    between atoms: C_1  and  C_2
REMARK    2  A    between atoms: C_4  and  C_11
REMARK    3  A    between atoms: N_5  and  C_7
REMARK    4  A    between atoms: C_7  and  C_8
REMARK    5  A    between atoms: C_7  and  C_9
REMARK    6  A    between atoms: C_7  and  C_10
REMARK    7  A    between atoms: C_15  and  C_24
REMARK    8  A    between atoms: N_26  and  C_27
REMARK    9  A    between atoms: N_31  and  C_33
REMARK   10  A    between atoms: C_33  and  C_34
REMARK                            x       y       z     vdW  Elec       q    Type
REMARK                         _______ _______ _______ _____ _____    ______ ____
ROOT
ATOM      1  C   UNL     1      -0.589  -4.092  -1.165  0.00  0.00    +0.265 C 
ATOM      2  O   UNL     1      -0.876  -3.993  -2.343  0.00  0.00    -0.268 OA
ATOM      3  N   UNL     1      -0.711  -5.280  -0.540  0.00  0.00    -0.295 N 
ATOM      4  C   UNL     1      -0.539  -5.569   0.903  0.00  0.00    +0.121 C 
ATOM      5  C   UNL     1      -1.652  -6.589   1.233  0.00  0.00    +0.100 C 
ATOM      6  C   UNL     1      -1.980  -7.259  -0.112  0.00  0.00    -0.004 C 
ATOM      7  C   UNL     1      -1.054  -6.592  -1.140  0.00  0.00    +0.115 C 
ATOM      8  C   UNL     1      -1.697  -8.757  -0.039  0.00  0.00    -0.010 C 
ATOM      9  C   UNL     1      -2.085  -9.410  -1.369  0.00  0.00    -0.082 C 
ATOM     10  N   UNL     1      -3.509  -9.173  -1.635  0.00  0.00    +0.379 N 
ATOM     11  C   UNL     1      -3.756  -7.735  -1.796  0.00  0.00    -0.082 C 
ATOM     12  C   UNL     1      -3.438  -7.011  -0.484  0.00  0.00    -0.010 C 
ATOM     13  H   UNL     1      -3.777  -9.656  -2.480  0.00  0.00    -0.086 HD
ATOM     14  H   UNL     1      -4.057  -9.523  -0.863  0.00  0.00    -0.086 HD
ENDROOT
BRANCH   1  18
ATOM     15  C   UNL     1       1.310  -1.015   2.391  0.00  0.00    +0.067 C 
ATOM     16  C   UNL     1       0.720  -1.561   1.116  0.00  0.00    +0.061 A 
ATOM     17  C   UNL     1       0.403  -2.898   0.863  0.00  0.00    +0.057 A 
ATOM     18  C   UNL     1      -0.106  -2.917  -0.423  0.00  0.00    +0.124 A 
ATOM     19  N   UNL     1      -0.071  -1.625  -0.867  0.00  0.00    -0.254 N 
ATOM     20  N   UNL     1       0.408  -0.866   0.052  0.00  0.00    -0.175 NA
BRANCH  19  21
ATOM     21  C   UNL     1      -0.518  -1.173  -2.187  0.00  0.00    +0.056 C 
ATOM     22  C   UNL     1      -1.966  -1.614  -2.414  0.00  0.00    +0.036 C 
ATOM     23  C   UNL     1      -0.432   0.352  -2.260  0.00  0.00    +0.036 C 
ATOM     24  C   UNL     1       0.377  -1.787  -3.265  0.00  0.00    +0.036 C 
ENDBRANCH  19  21
ENDBRANCH   1  18
BRANCH   5  25
ATOM     25  C   UNL     1      -1.151  -7.610   2.222  0.00  0.00    +0.218 C 
ATOM     26  O   UNL     1       0.033  -7.864   2.284  0.00  0.00    -0.275 OA
ATOM     27  N   UNL     1      -2.020  -8.240   3.038  0.00  0.00    -0.314 N 
ATOM     28  H   UNL     1      -2.973  -8.093   2.937  0.00  0.00    +0.149 HD
BRANCH  27  29
ATOM     29  C   UNL     1      -1.524  -9.146   4.076  0.00  0.00    +0.055 C 
ATOM     30  C   UNL     1      -1.362 -10.575   3.508  0.00  0.00    +0.002 C 
ATOM     31  C   UNL     1      -1.845 -11.470   4.678  0.00  0.00    -0.077 C 
ATOM     32  N   UNL     1      -2.976 -10.697   5.252  0.00  0.00    +0.384 N 
ATOM     33  C   UNL     1      -2.557  -9.277   5.210  0.00  0.00    -0.056 C 
ATOM     34  H   UNL     1      -3.807 -10.832   4.696  0.00  0.00    -0.081 HD
BRANCH  32  35
ATOM     35  C   UNL     1      -3.219 -11.111   6.640  0.00  0.00    -0.043 C 
BRANCH  35  36
ATOM     36  C   UNL     1      -3.709 -12.536   6.660  0.00  0.00    -0.064 A 
ATOM     37  C   UNL     1      -5.063 -12.803   6.581  0.00  0.00    +0.002 A 
ATOM     38  C   UNL     1      -5.513 -14.110   6.600  0.00  0.00    +0.000 A 
ATOM     39  C   UNL     1      -4.608 -15.150   6.697  0.00  0.00    +0.000 A 
ATOM     40  C   UNL     1      -3.254 -14.884   6.775  0.00  0.00    +0.000 A 
ATOM     41  C   UNL     1      -2.804 -13.577   6.752  0.00  0.00    +0.002 A 
ENDBRANCH  35  36
ENDBRANCH  32  35
ENDBRANCH  27  29
ENDBRANCH   5  25
TORSDOF 6
