REMARK  Name = ZINC12635696
REMARK  13 active torsions:
REMARK  status: ('A' for Active; 'I' for Inactive)
REMARK    1  A    between atoms: C_1  and  C_2
REMARK    2  A    between atoms: C_2  and  N_70
REMARK    3  A    between atoms: C_6  and  C_8
REMARK    4  A    between atoms: C_8  and  N_9
REMARK    5  A    between atoms: N_9  and  C_10
REMARK    6  A    between atoms: N_9  and  C_25
REMARK    7  A    between atoms: C_10  and  C_11
REMARK    8  A    between atoms: C_16  and  C_24
REMARK    9  A    between atoms: C_17  and  C_23
REMARK   10  A    between atoms: C_25  and  N_27
REMARK   11  A    between atoms: N_27  and  C_28
REMARK   12  A    between atoms: C_28  and  C_30
REMARK   13  A    between atoms: C_28  and  C_31
REMARK                            x       y       z     vdW  Elec       q    Type
REMARK                         _______ _______ _______ _____ _____    ______ ____
ROOT
ATOM      1  N   UNL     1      -2.646  -3.581  -1.464  0.00  0.00    -0.310 N 
ENDROOT
BRANCH   1   2
ATOM      2  C   UNL     1      -2.071  -4.648  -2.054  0.00  0.00    +0.134 C 
ATOM      3  S   UNL     1      -1.166  -5.759  -1.117  0.00  0.00    -0.019 S 
BRANCH   2   4
ATOM      4  N   UNL     1      -2.208  -4.841  -3.381  0.00  0.00    -0.320 N 
ATOM      5  H   UNL     1      -2.720  -4.211  -3.912  0.00  0.00    +0.148 HD
BRANCH   4   6
ATOM      6  C   UNL     1      -1.583  -6.000  -4.021  0.00  0.00    +0.099 C 
ATOM      7  C   UNL     1      -2.509  -7.212  -3.898  0.00  0.00    +0.033 C 
BRANCH   6   8
ATOM      8  C   UNL     1      -1.340  -5.699  -5.478  0.00  0.00    -0.028 A 
ATOM      9  C   UNL     1      -2.289  -5.011  -6.209  0.00  0.00    +0.005 A 
ATOM     10  C   UNL     1      -2.064  -4.731  -7.544  0.00  0.00    +0.000 A 
ATOM     11  C   UNL     1      -0.894  -5.148  -8.150  0.00  0.00    +0.000 A 
ATOM     12  C   UNL     1       0.053  -5.841  -7.420  0.00  0.00    +0.000 A 
ATOM     13  C   UNL     1      -0.170  -6.117  -6.084  0.00  0.00    +0.005 A 
ENDBRANCH   6   8
ENDBRANCH   4   6
ENDBRANCH   2   4
ENDBRANCH   1   2
BRANCH   1  14
ATOM     14  C   UNL     1      -3.502  -2.686  -2.246  0.00  0.00    +0.092 C 
BRANCH  14  18
ATOM     15  C   UNL     1      -1.792   0.514  -2.548  0.00  0.00    -0.078 C 
ATOM     16  C   UNL     1      -3.197   0.722  -3.168  0.00  0.00    -0.020 C 
ATOM     17  C   UNL     1      -3.528  -0.672  -3.750  0.00  0.00    -0.016 C 
ATOM     18  C   UNL     1      -2.634  -1.655  -2.971  0.00  0.00    -0.051 C 
ATOM     19  N   UNL     1      -1.887  -0.852  -2.004  0.00  0.00    +0.382 N 
ATOM     20  H   UNL     1      -2.389  -0.834  -1.108  0.00  0.00    -0.081 HD
BRANCH  19  22
ATOM     21  C   UNL     1       0.273  -0.531  -0.840  0.00  0.00    -0.017 C 
ATOM     22  C   UNL     1      -0.523  -1.427  -1.791  0.00  0.00    -0.082 C 
ENDBRANCH  19  22
ENDBRANCH  14  18
ENDBRANCH   1  14
BRANCH   1  23
ATOM     23  C   UNL     1      -2.415  -3.317  -0.042  0.00  0.00    +0.147 C 
BRANCH  23  24
ATOM     24  C   UNL     1      -3.478  -4.005   0.775  0.00  0.00    +0.035 A 
ATOM     25  C   UNL     1      -3.228  -5.218   1.326  0.00  0.00    +0.020 A 
ATOM     26  C   UNL     1      -4.281  -5.859   2.115  0.00  0.00    -0.001 A 
ATOM     27  C   UNL     1      -4.082  -7.110   2.708  0.00  0.00    +0.010 A 
ATOM     28  C   UNL     1      -5.085  -7.681   3.438  0.00  0.00    +0.004 A 
ATOM     29  C   UNL     1      -6.302  -7.031   3.596  0.00  0.00    -0.046 A 
ATOM     30  C   UNL     1      -6.520  -5.798   3.022  0.00  0.00    -0.024 A 
ATOM     31  C   UNL     1      -5.513  -5.197   2.274  0.00  0.00    +0.052 A 
ATOM     32  N   UNL     1      -5.705  -3.964   1.688  0.00  0.00    -0.322 N 
ATOM     33  H   UNL     1      -6.554  -3.509   1.798  0.00  0.00    +0.169 HD
ATOM     34  C   UNL     1      -4.731  -3.383   0.965  0.00  0.00    +0.254 A 
ATOM     35  O   UNL     1      -4.935  -2.292   0.461  0.00  0.00    -0.268 OA
ATOM     36  C   UNL     1      -7.845  -5.103   3.203  0.00  0.00    +0.046 C 
ATOM     37  C   UNL     1      -7.394  -7.681   4.406  0.00  0.00    +0.044 C 
ENDBRANCH  23  24
ENDBRANCH   1  23
TORSDOF 9
