REMARK  Name = ZINC43400614
REMARK  6 active torsions:
REMARK  status: ('A' for Active; 'I' for Inactive)
REMARK    1  A    between atoms: C_1  and  C_2
REMARK    2  A    between atoms: C_5  and  C_18
REMARK    3  A    between atoms: C_6  and  O_8
REMARK    4  A    between atoms: O_8  and  C_9
REMARK    5  A    between atoms: C_14  and  C_17
REMARK    6  A    between atoms: N_19  and  O_20
REMARK                            x       y       z     vdW  Elec       q    Type
REMARK                         _______ _______ _______ _____ _____    ______ ____
ROOT
ATOM      1  C   UNL     1      -0.018   1.503   0.010  0.00  0.00    +0.066 C 
ATOM      2  C   UNL     1       0.002  -0.004   0.002  0.00  0.00    +0.042 A 
ATOM      3  C   UNL     1       0.005  -0.677  -1.206  0.00  0.00    +0.024 A 
ATOM      4  C   UNL     1       0.025  -2.061  -1.214  0.00  0.00    +0.018 A 
ATOM      5  C   UNL     1       0.040  -2.732   0.013  0.00  0.00    +0.079 A 
ATOM      6  C   UNL     1       0.035  -1.979   1.195  0.00  0.00    +0.226 A 
ATOM      7  N   UNL     1       0.022  -0.658   1.147  0.00  0.00    -0.218 NA
ENDROOT
BRANCH   5   8
ATOM      8  C   UNL     1       0.060  -4.210   0.062  0.00  0.00    +0.168 C 
ATOM      9  N   UNL     1       0.075  -4.822   1.210  0.00  0.00    -0.071 NA
ATOM     10  N   UNL     1       0.064  -4.941  -1.114  0.00  0.00    -0.340 N 
ATOM     11  H   UNL     1       0.054  -4.485  -1.970  0.00  0.00    +0.144 HD
ATOM     12  H   UNL     1       0.078  -5.911  -1.082  0.00  0.00    +0.144 HD
BRANCH   9  13
ATOM     13  O   UNL     1       0.094  -6.238   1.257  0.00  0.00    -0.408 OA
ATOM     14  H   UNL     1       0.104  -6.601   2.152  0.00  0.00    +0.328 HD
ENDBRANCH   9  13
ENDBRANCH   5   8
BRANCH   6  15
ATOM     15  O   UNL     1       0.050  -2.610   2.394  0.00  0.00    -0.473 OA
BRANCH  15  16
ATOM     16  C   UNL     1       0.044  -1.785   3.561  0.00  0.00    +0.175 C 
ATOM     17  C   UNL     1      -1.400  -1.511   3.985  0.00  0.00    +0.044 C 
ATOM     18  C   UNL     1      -2.102  -2.835   4.293  0.00  0.00    +0.004 C 
ATOM     19  C   UNL     1      -1.365  -3.550   5.427  0.00  0.00    +0.003 C 
ATOM     20  C   UNL     1       0.080  -3.825   5.003  0.00  0.00    -0.011 C 
ATOM     21  C   UNL     1       0.781  -2.500   4.695  0.00  0.00    +0.048 C 
ATOM     22  C   UNL     1       0.817  -4.540   6.138  0.00  0.00    +0.007 C 
ENDBRANCH  15  16
ENDBRANCH   6  15
TORSDOF 4
