REMARK  Name = ZINC10001987
REMARK  13 active torsions:
REMARK  status: ('A' for Active; 'I' for Inactive)
REMARK    1  A    between atoms: C_1  and  C_2
REMARK    2  A    between atoms: C_2  and  C_3
REMARK    3  A    between atoms: C_2  and  C_4
REMARK    4  A    between atoms: C_4  and  C_5
REMARK    5  A    between atoms: C_5  and  C_7
REMARK    6  A    between atoms: C_5  and  N_23
REMARK    7  A    between atoms: N_9  and  N_10
REMARK    8  A    between atoms: C_11  and  C_12
REMARK    9  A    between atoms: C_17  and  O_18
REMARK   10  A    between atoms: O_18  and  C_19
REMARK   11  A    between atoms: C_19  and  C_20
REMARK   12  A    between atoms: C_19  and  C_21
REMARK   13  A    between atoms: C_24  and  C_26
REMARK                            x       y       z     vdW  Elec       q    Type
REMARK                         _______ _______ _______ _____ _____    ______ ____
ROOT
ATOM      1  C   UNL     1      -1.163   1.683  -0.662  0.00  0.00    +0.253 C 
ATOM      2  O   UNL     1      -1.186   2.879  -0.465  0.00  0.00    -0.272 OA
ATOM      3  N   UNL     1       0.013   1.024  -0.670  0.00  0.00    -0.205 N 
ATOM      4  H   UNL     1       0.032   0.067  -0.828  0.00  0.00    +0.177 HD
ENDROOT
BRANCH   3   5
ATOM      5  N   UNL     1       1.209   1.722  -0.456  0.00  0.00    -0.188 NA
ATOM      6  C   UNL     1       2.341   1.088  -0.469  0.00  0.00    +0.142 C 
BRANCH   6   7
ATOM      7  C   UNL     1       3.599   1.822  -0.243  0.00  0.00    +0.037 A 
ATOM      8  C   UNL     1       4.820   1.143  -0.251  0.00  0.00    +0.028 A 
ATOM      9  C   UNL     1       5.994   1.837  -0.044  0.00  0.00    +0.019 A 
ATOM     10  C   UNL     1       5.967   3.204   0.182  0.00  0.00    +0.019 A 
ATOM     11  C   UNL     1       4.765   3.886   0.196  0.00  0.00    +0.047 A 
ATOM     12  C   UNL     1       3.577   3.205  -0.015  0.00  0.00    +0.130 A 
ATOM     13 BR   UNL     1       7.647   0.919  -0.062  0.00  0.00    -0.050 Br
BRANCH  12  14
ATOM     14  O   UNL     1       2.395   3.874   0.000  0.00  0.00    -0.489 OA
BRANCH  14  15
ATOM     15  C   UNL     1       2.457   5.297   0.118  0.00  0.00    +0.167 C 
ATOM     16  C   UNL     1       1.194   5.914  -0.486  0.00  0.00    +0.051 C 
ATOM     17  C   UNL     1       2.556   5.682   1.596  0.00  0.00    +0.051 C 
ENDBRANCH  14  15
ENDBRANCH  12  14
ENDBRANCH   6   7
ENDBRANCH   3   5
BRANCH   1  18
ATOM     18  C   UNL     1      -2.448   0.933  -0.899  0.00  0.00    +0.161 C 
BRANCH  18  19
ATOM     19  N   UNL     1      -3.576   1.866  -0.841  0.00  0.00    -0.300 N 
ATOM     20  C   UNL     1      -4.722   1.580  -1.490  0.00  0.00    +0.245 C 
ATOM     21  O   UNL     1      -4.820   0.547  -2.123  0.00  0.00    -0.270 OA
ATOM     22  H   UNL     1      -3.498   2.691  -0.336  0.00  0.00    +0.150 HD
BRANCH  20  23
ATOM     23  C   UNL     1      -5.859   2.522  -1.432  0.00  0.00    +0.037 A 
ATOM     24  C   UNL     1      -5.752   3.706  -0.700  0.00  0.00    +0.014 A 
ATOM     25  C   UNL     1      -6.814   4.584  -0.655  0.00  0.00    +0.021 A 
ATOM     26  C   UNL     1      -7.990   4.287  -1.323  0.00  0.00    +0.041 A 
ATOM     27  C   UNL     1      -8.105   3.111  -2.045  0.00  0.00    +0.021 A 
ATOM     28  C   UNL     1      -7.047   2.228  -2.103  0.00  0.00    +0.014 A 
ATOM     29 CL   UNL     1      -9.326   5.394  -1.255  0.00  0.00    -0.084 Cl
ENDBRANCH  20  23
ENDBRANCH  18  19
BRANCH  18  30
ATOM     30  C   UNL     1      -2.619  -0.140   0.179  0.00  0.00    +0.034 C 
BRANCH  30  32
ATOM     31  C   UNL     1      -3.639  -1.750  -1.437  0.00  0.00    +0.007 C 
ATOM     32  C   UNL     1      -3.858  -0.982  -0.132  0.00  0.00    -0.015 C 
ATOM     33  C   UNL     1      -4.100  -1.973   1.009  0.00  0.00    +0.007 C 
ENDBRANCH  30  32
ENDBRANCH  18  30
ENDBRANCH   1  18
TORSDOF 9
