REMARK  Name = ZINC09949537
REMARK  9 active torsions:
REMARK  status: ('A' for Active; 'I' for Inactive)
REMARK    1  A    between atoms: C_1  and  C_2
REMARK    2  A    between atoms: C_2  and  C_3
REMARK    3  A    between atoms: C_3  and  C_4
REMARK    4  A    between atoms: C_4  and  N_5
REMARK    5  A    between atoms: C_6  and  N_34
REMARK    6  A    between atoms: C_7  and  N_14
REMARK    7  A    between atoms: N_14  and  C_15
REMARK    8  A    between atoms: C_20  and  C_22
REMARK    9  A    between atoms: C_22  and  N_71
REMARK                            x       y       z     vdW  Elec       q    Type
REMARK                         _______ _______ _______ _____ _____    ______ ____
ROOT
ATOM      1  N   UNL     1       1.192   2.089   0.004  0.00  0.00    -0.263 N 
ATOM      2  C   UNL     1       0.065   1.347   0.010  0.00  0.00    +0.204 C 
ATOM      3  O   UNL     1       0.135   0.136   0.032  0.00  0.00    -0.277 OA
ENDROOT
BRANCH   1   6
ATOM      4  N   UNL     1       0.574   5.463   1.319  0.00  0.00    -0.280 N 
ATOM      5  C   UNL     1       0.639   4.091   1.253  0.00  0.00    +0.127 A 
ATOM      6  C   UNL     1       1.113   3.494   0.103  0.00  0.00    +0.140 A 
ATOM      7  C   UNL     1       1.520   4.311  -0.968  0.00  0.00    +0.277 A 
ATOM      8  O   UNL     1       1.947   3.810  -1.995  0.00  0.00    -0.266 OA
ATOM      9  N   UNL     1       1.431   5.651  -0.854  0.00  0.00    -0.273 N 
ATOM     10  H   UNL     1       1.714   6.232  -1.617  0.00  0.00    +0.173 HD
ATOM     11  C   UNL     1       0.967   6.215   0.275  0.00  0.00    +0.331 A 
ATOM     12  O   UNL     1       0.901   7.427   0.353  0.00  0.00    -0.246 OA
BRANCH   5  13
ATOM     13  N   UNL     1       0.237   3.324   2.320  0.00  0.00    -0.343 N 
ATOM     14  H   UNL     1       0.354   2.361   2.296  0.00  0.00    +0.144 HD
ATOM     15  H   UNL     1      -0.162   3.745   3.097  0.00  0.00    +0.144 HD
ENDBRANCH   5  13
BRANCH   4  16
ATOM     16  C   UNL     1       0.073   6.111   2.534  0.00  0.00    +0.128 C 
BRANCH  16  17
ATOM     17  C   UNL     1       1.238   6.374   3.490  0.00  0.00    +0.021 C 
BRANCH  17  19
ATOM     18  C   UNL     1       1.881   7.313   5.714  0.00  0.00    +0.004 C 
ATOM     19  C   UNL     1       0.715   7.050   4.759  0.00  0.00    -0.002 C 
ENDBRANCH  17  19
ENDBRANCH  16  17
ENDBRANCH   4  16
ENDBRANCH   1   6
BRANCH   1  20
ATOM     20  C   UNL     1       2.498   1.435  -0.104  0.00  0.00    +0.082 C 
ATOM     21  C   UNL     1       2.520   0.498  -1.330  0.00  0.00    +0.023 C 
ATOM     22  C   UNL     1       3.357  -0.719  -0.862  0.00  0.00    +0.002 C 
ATOM     23  C   UNL     1       2.915  -0.893   0.613  0.00  0.00    +0.002 C 
ATOM     24  C   UNL     1       2.749   0.551   1.130  0.00  0.00    +0.023 C 
ENDBRANCH   1  20
BRANCH   2  25
ATOM     25  C   UNL     1      -1.282   2.023  -0.006  0.00  0.00    +0.020 C 
BRANCH  25  35
ATOM     26  C   UNL     1      -2.469   0.252   1.140  0.00  0.00    -0.078 C 
ATOM     27  C   UNL     1      -3.475  -0.886   0.950  0.00  0.00    -0.018 C 
ATOM     28  C   UNL     1      -4.830  -0.301   0.540  0.00  0.00    +0.000 C 
ATOM     29  C   UNL     1      -4.654   0.519  -0.741  0.00  0.00    -0.025 C 
ATOM     30  C   UNL     1      -3.617   1.618  -0.498  0.00  0.00    -0.065 C 
ATOM     31  C   UNL     1      -3.433   2.435  -1.778  0.00  0.00    -0.015 C 
ATOM     32  C   UNL     1      -4.768   3.072  -2.170  0.00  0.00    -0.002 C 
ATOM     33  C   UNL     1      -5.808   1.976  -2.409  0.00  0.00    +0.000 C 
ATOM     34  C   UNL     1      -5.989   1.156  -1.130  0.00  0.00    +0.002 C 
ATOM     35  N   UNL     1      -2.330   0.990  -0.133  0.00  0.00    +0.387 N 
ATOM     36  H   UNL     1      -2.060   0.330  -0.873  0.00  0.00    -0.081 HD
ENDBRANCH  25  35
ENDBRANCH   2  25
TORSDOF 8
