REMARK  Name = ZINC10708149
REMARK  16 active torsions:
REMARK  status: ('A' for Active; 'I' for Inactive)
REMARK    1  A    between atoms: C_1  and  C_2
REMARK    2  A    between atoms: C_6  and  C_11
REMARK    3  A    between atoms: C_7  and  N_8
REMARK    4  A    between atoms: N_13  and  C_14
REMARK    5  A    between atoms: N_13  and  C_15
REMARK    6  A    between atoms: C_15  and  C_16
REMARK    7  A    between atoms: N_18  and  C_19
REMARK    8  A    between atoms: N_18  and  C_23
REMARK    9  A    between atoms: C_19  and  C_20
REMARK   10  A    between atoms: C_20  and  C_21
REMARK   11  A    between atoms: C_20  and  C_22
REMARK   12  A    between atoms: C_24  and  N_36
REMARK   13  A    between atoms: N_25  and  C_32
REMARK   14  A    between atoms: C_32  and  C_33
REMARK   15  A    between atoms: C_33  and  C_34
REMARK   16  A    between atoms: C_33  and  C_35
REMARK                            x       y       z     vdW  Elec       q    Type
REMARK                         _______ _______ _______ _____ _____    ______ ____
ROOT
ATOM      1  C   UNL     1      -0.053   6.184  -1.646  0.00  0.00    +0.237 C 
ATOM      2  O   UNL     1      -0.040   5.174  -2.319  0.00  0.00    -0.274 OA
ATOM      3  N   UNL     1      -0.134   7.391  -2.243  0.00  0.00    -0.263 N 
ENDROOT
BRANCH   3   4
ATOM      4  C   UNL     1      -0.301   7.478  -3.641  0.00  0.00    +0.140 A 
ATOM      5  C   UNL     1       0.649   8.101  -4.424  0.00  0.00    +0.127 A 
ATOM      6  N   UNL     1       0.458   8.169  -5.785  0.00  0.00    -0.280 N 
ATOM      7  C   UNL     1      -0.642   7.635  -6.345  0.00  0.00    +0.331 A 
ATOM      8  O   UNL     1      -0.793   7.706  -7.550  0.00  0.00    -0.246 OA
ATOM      9  N   UNL     1      -1.579   7.023  -5.598  0.00  0.00    -0.273 N 
ATOM     10  H   UNL     1      -2.389   6.638  -6.039  0.00  0.00    +0.173 HD
ATOM     11  C   UNL     1      -1.437   6.924  -4.262  0.00  0.00    +0.277 A 
ATOM     12  O   UNL     1      -2.289   6.363  -3.594  0.00  0.00    -0.266 OA
BRANCH   5  13
ATOM     13  N   UNL     1       1.772   8.648  -3.852  0.00  0.00    -0.343 N 
ATOM     14  H   UNL     1       1.946   8.519  -2.906  0.00  0.00    +0.144 HD
ATOM     15  H   UNL     1       2.391   9.162  -4.393  0.00  0.00    +0.144 HD
ENDBRANCH   5  13
BRANCH   6  16
ATOM     16  C   UNL     1       1.458   8.828  -6.629  0.00  0.00    +0.131 C 
BRANCH  16  17
ATOM     17  C   UNL     1       2.498   7.801  -7.083  0.00  0.00    +0.003 C 
ATOM     18  C   UNL     1       1.828   6.762  -7.984  0.00  0.00    +0.009 C 
ATOM     19  C   UNL     1       3.609   8.510  -7.859  0.00  0.00    +0.009 C 
ENDBRANCH  16  17
ENDBRANCH   6  16
ENDBRANCH   3   4
BRANCH   1  20
ATOM     20  C   UNL     1       0.020   6.089  -0.144  0.00  0.00    +0.204 C 
BRANCH  20  23
ATOM     21  C   UNL     1       1.159   4.001   0.384  0.00  0.00    +0.249 C 
ATOM     22  O   UNL     1       2.221   4.576   0.243  0.00  0.00    -0.270 OA
ATOM     23  N   UNL     1       0.002   4.680   0.258  0.00  0.00    -0.292 N 
ATOM     24  C   UNL     1      -1.273   4.010   0.523  0.00  0.00    +0.133 C 
BRANCH  21  30
ATOM     25  C   UNL     1       2.724  -0.642  -0.565  0.00  0.00    +0.046 C 
ATOM     26  C   UNL     1       1.888   0.319   0.241  0.00  0.00    -0.020 A 
ATOM     27  C   UNL     1       1.098  -0.152   1.275  0.00  0.00    +0.005 A 
ATOM     28  C   UNL     1       0.328   0.723   2.019  0.00  0.00    +0.001 A 
ATOM     29  C   UNL     1       0.343   2.074   1.735  0.00  0.00    +0.015 A 
ATOM     30  C   UNL     1       1.138   2.555   0.694  0.00  0.00    +0.067 A 
ATOM     31  C   UNL     1       1.913   1.667  -0.053  0.00  0.00    +0.141 A 
BRANCH  31  32
ATOM     32  N   UNL     1       2.759   2.169  -1.159  0.00  0.00    +0.057 N 
ATOM     33  O   UNL     1       2.305   2.243  -2.287  0.00  0.00    -0.126 OA
ATOM     34  O   UNL     1       3.908   2.508  -0.941  0.00  0.00    -0.126 OA
ENDBRANCH  31  32
ENDBRANCH  21  30
ENDBRANCH  20  23
ENDBRANCH   1  20
BRANCH   3  35
ATOM     35  C   UNL     1      -0.047   8.613  -1.439  0.00  0.00    +0.117 C 
BRANCH  35  36
ATOM     36  C   UNL     1      -1.432   8.961  -0.889  0.00  0.00    +0.001 C 
ATOM     37  C   UNL     1      -1.314  10.132   0.088  0.00  0.00    +0.009 C 
ATOM     38  C   UNL     1      -2.356   9.351  -2.044  0.00  0.00    +0.009 C 
ENDBRANCH  35  36
ENDBRANCH   3  35
TORSDOF 10
