REMARK  Name = ZINC03663391
REMARK  8 active torsions:
REMARK  status: ('A' for Active; 'I' for Inactive)
REMARK    1  A    between atoms: C_1  and  N_2
REMARK    2  A    between atoms: N_2  and  C_3
REMARK    3  A    between atoms: C_12  and  C_13
REMARK    4  A    between atoms: C_12  and  N_59
REMARK    5  A    between atoms: C_16  and  C_18
REMARK    6  A    between atoms: C_21  and  N_25
REMARK    7  A    between atoms: N_28  and  C_29
REMARK    8  A    between atoms: C_29  and  C_30
REMARK                            x       y       z     vdW  Elec       q    Type
REMARK                         _______ _______ _______ _____ _____    ______ ____
ROOT
ATOM      1  C   UNL     1       6.771  -2.420  -5.185  0.00  0.00    +0.132 C 
ATOM      2  N   UNL     1       5.641  -1.788  -4.499  0.00  0.00    -0.306 N 
ATOM      3  C   UNL     1       4.558  -1.182  -5.278  0.00  0.00    +0.132 C 
ATOM      4  C   UNL     1       5.597  -1.763  -3.120  0.00  0.00    +0.223 A 
ATOM      5  N   UNL     1       4.569  -1.194  -2.498  0.00  0.00    -0.181 NA
ATOM      6  C   UNL     1       4.530  -1.165  -1.170  0.00  0.00    +0.221 A 
ATOM      7  N   UNL     1       5.513  -1.715  -0.464  0.00  0.00    -0.181 NA
ATOM      8  C   UNL     1       6.538  -2.288  -1.085  0.00  0.00    +0.226 A 
ATOM      9  N   UNL     1       6.580  -2.312  -2.413  0.00  0.00    -0.181 NA
ATOM     10  N   UNL     1       7.561  -2.861  -0.350  0.00  0.00    -0.276 N 
ATOM     11  C   UNL     1       7.517  -2.837   1.023  0.00  0.00    +0.158 C 
ATOM     12  N   UNL     1       3.465  -0.570  -0.524  0.00  0.00    -0.309 N 
ATOM     13  H   UNL     1       8.309  -3.279  -0.804  0.00  0.00    +0.156 HD
ATOM     14  H   UNL     1       2.748  -0.169  -1.039  0.00  0.00    +0.149 HD
ATOM     15  N   UNL     1       6.469  -2.251   1.589  0.00  0.00    -0.372 N 
ATOM     16  H   UNL     1       5.733  -1.839   1.003  0.00  0.00    +0.161 HD
ENDROOT
BRANCH  15  17
ATOM     17  C   UNL     1       6.359  -2.189   3.087  0.00  0.00    +0.188 C 
BRANCH  17  18
ATOM     18  C   UNL     1       6.414  -0.745   3.512  0.00  0.00    +0.125 A 
ATOM     19  C   UNL     1       5.358   0.087   3.606  0.00  0.00    +0.047 A 
ATOM     20  C   UNL     1       5.852   1.334   4.038  0.00  0.00    +0.050 A 
ATOM     21  C   UNL     1       7.197   1.196   4.176  0.00  0.00    +0.137 A 
ATOM     22  O   UNL     1       7.524  -0.070   3.854  0.00  0.00    -0.458 OA
BRANCH  21  23
ATOM     23  C   UNL     1       8.138   2.251   4.606  0.00  0.00    +0.036 A 
ATOM     24  C   UNL     1       8.115   3.504   3.990  0.00  0.00    +0.015 A 
ATOM     25  C   UNL     1       8.992   4.487   4.399  0.00  0.00    +0.033 A 
ATOM     26  C   UNL     1       9.902   4.230   5.411  0.00  0.00    +0.128 A 
ATOM     27  C   UNL     1       9.934   2.990   6.022  0.00  0.00    +0.053 A 
ATOM     28  C   UNL     1       9.058   1.999   5.626  0.00  0.00    +0.054 A 
ATOM     29 CL   UNL     1       9.101   0.442   6.393  0.00  0.00    -0.083 Cl
BRANCH  26  30
ATOM     30  N   UNL     1      10.844   5.288   5.840  0.00  0.00    +0.056 N 
ATOM     31  O   UNL     1      11.646   5.065   6.729  0.00  0.00    -0.126 OA
ATOM     32  O   UNL     1      10.818   6.381   5.303  0.00  0.00    -0.126 OA
ENDBRANCH  26  30
ENDBRANCH  21  23
ENDBRANCH  17  18
ENDBRANCH  15  17
BRANCH  12  33
ATOM     33  C   UNL     1       3.419  -0.544   0.940  0.00  0.00    +0.139 C 
BRANCH  33  34
ATOM     34  C   UNL     1       2.164   0.158   1.391  0.00  0.00    -0.030 A 
ATOM     35  C   UNL     1       1.004  -0.565   1.597  0.00  0.00    +0.005 A 
ATOM     36  C   UNL     1      -0.148   0.079   2.010  0.00  0.00    +0.000 A 
ATOM     37  C   UNL     1      -0.139   1.446   2.217  0.00  0.00    +0.000 A 
ATOM     38  C   UNL     1       1.021   2.169   2.010  0.00  0.00    +0.000 A 
ATOM     39  C   UNL     1       2.172   1.525   1.597  0.00  0.00    +0.005 A 
ENDBRANCH  33  34
ENDBRANCH  12  33
TORSDOF 6
