REMARK  Name = ZINC11174298
REMARK  6 active torsions:
REMARK  status: ('A' for Active; 'I' for Inactive)
REMARK    1  A    between atoms: C_1  and  C_2
REMARK    2  A    between atoms: N_5  and  S_8
REMARK    3  A    between atoms: S_8  and  C_11
REMARK    4  A    between atoms: C_14  and  N_20
REMARK    5  A    between atoms: C_15  and  N_17
REMARK    6  A    between atoms: C_23  and  C_26
REMARK                            x       y       z     vdW  Elec       q    Type
REMARK                         _______ _______ _______ _____ _____    ______ ____
ROOT
ATOM      1  C   UNL     1       1.906   4.292  -3.454  0.00  0.00    +0.108 A 
ATOM      2  C   UNL     1       3.246   3.957  -3.384  0.00  0.00    +0.030 A 
ATOM      3  C   UNL     1       3.837   3.248  -4.411  0.00  0.00    +0.027 A 
ATOM      4  C   UNL     1       3.087   2.883  -5.522  0.00  0.00    +0.060 A 
ATOM      5  C   UNL     1       1.743   3.227  -5.592  0.00  0.00    +0.149 A 
ATOM      6  C   UNL     1       1.157   3.930  -4.558  0.00  0.00    +0.063 A 
ENDROOT
BRANCH   4   7
ATOM      7  N   UNL     1       3.682   2.171  -6.566  0.00  0.00    -0.331 N 
ATOM      8  C   UNL     1       4.732   2.969  -7.215  0.00  0.00    +0.086 C 
ATOM      9  C   UNL     1       5.304   2.187  -8.400  0.00  0.00    -0.062 C 
ATOM     10  C   UNL     1       4.790   0.106  -7.274  0.00  0.00    +0.033 C 
ATOM     11  C   UNL     1       4.219   0.889  -6.090  0.00  0.00    +0.098 C 
ATOM     12  N   UNL     1       5.849   0.901  -7.925  0.00  0.00    +0.389 N 
ATOM     13  H   UNL     1       6.601   1.081  -7.250  0.00  0.00    -0.085 HD
ATOM     14  H   UNL     1       6.225   0.376  -8.724  0.00  0.00    -0.085 HD
BRANCH  10  15
ATOM     15  C   UNL     1       5.377  -1.192  -6.784  0.00  0.00    +0.198 C 
ATOM     16  O   UNL     1       6.575  -1.293  -6.620  0.00  0.00    -0.278 OA
ATOM     17  N   UNL     1       4.571  -2.241  -6.526  0.00  0.00    -0.331 N 
ATOM     18  H   UNL     1       3.613  -2.160  -6.657  0.00  0.00    +0.145 HD
ATOM     19  H   UNL     1       4.949  -3.077  -6.210  0.00  0.00    +0.145 HD
ENDBRANCH  10  15
ENDBRANCH   4   7
BRANCH   1  20
ATOM     20  S   UNL     1       1.154   5.190  -2.137  0.00  0.00    +0.061 S 
ATOM     21  O   UNL     1       0.030   5.859  -2.692  0.00  0.00    -0.153 OA
ATOM     22  O   UNL     1       2.200   5.882  -1.468  0.00  0.00    -0.153 OA
BRANCH  20  27
ATOM     23  C   UNL     1       0.002  -0.004   0.002  0.00  0.00    +0.007 C 
ATOM     24  C   UNL     1      -0.019   1.526   0.010  0.00  0.00    -0.012 C 
ATOM     25  C   UNL     1      -0.760   2.032  -1.229  0.00  0.00    +0.020 C 
ATOM     26  C   UNL     1      -0.809   3.563  -1.199  0.00  0.00    +0.110 C 
ATOM     27  N   UNL     1       0.560   4.078  -1.063  0.00  0.00    -0.177 NA
ATOM     28  C   UNL     1       1.393   3.586   0.043  0.00  0.00    +0.110 C 
ATOM     29  C   UNL     1       1.417   2.055  -0.000  0.00  0.00    +0.020 C 
ENDBRANCH  20  27
ENDBRANCH   1  20
BRANCH   5  30
ATOM     30  N   UNL     1       0.940   2.839  -6.773  0.00  0.00    +0.058 N 
ATOM     31  O   UNL     1      -0.239   3.141  -6.834  0.00  0.00    -0.126 OA
ATOM     32  O   UNL     1       1.457   2.219  -7.685  0.00  0.00    -0.126 OA
ENDBRANCH   5  30
TORSDOF 5
