REMARK  Name = ZINC51096246
REMARK  6 active torsions:
REMARK  status: ('A' for Active; 'I' for Inactive)
REMARK    1  A    between atoms: C_1  and  C_2
REMARK    2  A    between atoms: C_7  and  N_12
REMARK    3  A    between atoms: C_9  and  C_11
REMARK    4  A    between atoms: C_13  and  C_15
REMARK    5  A    between atoms: C_19  and  N_21
REMARK    6  A    between atoms: N_21  and  N_22
REMARK                            x       y       z     vdW  Elec       q    Type
REMARK                         _______ _______ _______ _____ _____    ______ ____
ROOT
ATOM      1  N   UNL     1       0.735  -0.503   3.687  0.00  0.00    -0.307 N 
ATOM      2  C   UNL     1       0.634   0.166   4.853  0.00  0.00    +0.264 C 
ATOM      3  O   UNL     1      -0.045   1.172   4.919  0.00  0.00    -0.268 OA
ATOM      4  H   UNL     1       1.276  -1.306   3.634  0.00  0.00    +0.149 HD
ENDROOT
BRANCH   1  10
ATOM      5  C   UNL     1      -0.019   1.526   0.010  0.00  0.00    +0.008 C 
ATOM      6  C   UNL     1       0.002  -0.004   0.002  0.00  0.00    -0.009 C 
ATOM      7  C   UNL     1      -1.433  -0.534   0.013  0.00  0.00    +0.003 C 
ATOM      8  C   UNL     1      -2.149  -0.040   1.272  0.00  0.00    +0.002 C 
ATOM      9  C   UNL     1      -1.409  -0.547   2.511  0.00  0.00    +0.022 C 
ATOM     10  C   UNL     1       0.026  -0.018   2.500  0.00  0.00    +0.076 C 
ATOM     11  C   UNL     1       0.742  -0.511   1.242  0.00  0.00    +0.009 C 
ATOM     12  C   UNL     1       2.178   0.019   1.231  0.00  0.00    +0.009 C 
ENDBRANCH   1  10
BRANCH   2  13
ATOM     13  C   UNL     1       1.350  -0.324   6.052  0.00  0.00    +0.146 A 
ATOM     14  C   UNL     1       1.236   0.369   7.255  0.00  0.00    +0.072 A 
ATOM     15  C   UNL     1       1.913  -0.101   8.374  0.00  0.00    +0.026 A 
ATOM     16  C   UNL     1       2.678  -1.246   8.252  0.00  0.00    +0.046 A 
ATOM     17  C   UNL     1       2.748  -1.892   7.018  0.00  0.00    +0.133 A 
ATOM     18  N   UNL     1       2.090  -1.425   5.973  0.00  0.00    -0.225 NA
ATOM     19 CL   UNL     1       0.263   1.803   7.354  0.00  0.00    -0.081 Cl
BRANCH  17  20
ATOM     20  N   UNL     1       3.516  -3.044   6.888  0.00  0.00    -0.268 N 
ATOM     21  H   UNL     1       3.998  -3.394   7.653  0.00  0.00    +0.167 HD
BRANCH  20  22
ATOM     22  N   UNL     1       3.590  -3.683   5.683  0.00  0.00    -0.255 NA
ATOM     23  H   UNL     1       4.181  -4.498   5.742  0.00  0.00    +0.140 HD
ATOM     24  H   UNL     1       2.671  -3.925   5.345  0.00  0.00    +0.140 HD
ENDBRANCH  20  22
ENDBRANCH  17  20
ENDBRANCH   2  13
TORSDOF 4
