REMARK  Name = ZINC60207780
REMARK  12 active torsions:
REMARK  status: ('A' for Active; 'I' for Inactive)
REMARK    1  A    between atoms: C_1  and  C_2
REMARK    2  A    between atoms: C_2  and  C_3
REMARK    3  A    between atoms: C_2  and  C_4
REMARK    4  A    between atoms: C_4  and  C_5
REMARK    5  A    between atoms: C_5  and  C_7
REMARK    6  A    between atoms: C_5  and  N_21
REMARK    7  A    between atoms: N_9  and  C_10
REMARK    8  A    between atoms: C_10  and  C_11
REMARK    9  A    between atoms: N_16  and  C_18
REMARK   10  A    between atoms: C_18  and  C_19
REMARK   11  A    between atoms: C_18  and  C_20
REMARK   12  A    between atoms: C_22  and  C_24
REMARK                            x       y       z     vdW  Elec       q    Type
REMARK                         _______ _______ _______ _____ _____    ______ ____
ROOT
ATOM      1  C   UNL     1      -2.120  -0.006  -1.136  0.00  0.00    +0.159 C 
ENDROOT
BRANCH   1   2
ATOM      2  C   UNL     1      -3.597  -0.293  -1.050  0.00  0.00    +0.233 C 
ATOM      3  O   UNL     1      -4.387   0.619  -0.932  0.00  0.00    -0.274 OA
ATOM      4  N   UNL     1      -4.040  -1.565  -1.105  0.00  0.00    -0.314 N 
ATOM      5  H   UNL     1      -3.406  -2.299  -1.128  0.00  0.00    +0.149 HD
BRANCH   4   6
ATOM      6  C   UNL     1      -5.479  -1.839  -1.129  0.00  0.00    +0.106 C 
BRANCH   6   7
ATOM      7  C   UNL     1      -5.710  -3.350  -1.191  0.00  0.00    -0.011 C 
ATOM      8  C   UNL     1      -5.173  -3.895  -2.518  0.00  0.00    +0.001 C 
ATOM      9  C   UNL     1      -5.479  -5.394  -2.604  0.00  0.00    -0.018 C 
ATOM     10  C   UNL     1      -6.986  -5.611  -2.455  0.00  0.00    -0.078 C 
ATOM     11  N   UNL     1      -7.432  -5.093  -1.156  0.00  0.00    +0.381 N 
ATOM     12  C   UNL     1      -7.208  -3.643  -1.093  0.00  0.00    -0.074 C 
ATOM     13  H   UNL     1      -6.913  -5.544  -0.418  0.00  0.00    -0.081 HD
BRANCH  11  14
ATOM     14  C   UNL     1      -8.864  -5.373  -0.984  0.00  0.00    -0.075 C 
ATOM     15  C   UNL     1      -9.098  -6.884  -1.039  0.00  0.00    -0.014 C 
ATOM     16  C   UNL     1      -9.331  -4.834   0.369  0.00  0.00    -0.014 C 
ENDBRANCH  11  14
ENDBRANCH   6   7
ENDBRANCH   4   6
ENDBRANCH   1   2
BRANCH   1  17
ATOM     17  N   UNL     1      -1.917   1.395  -1.512  0.00  0.00    -0.300 N 
ATOM     18  C   UNL     1      -0.811   1.756  -2.193  0.00  0.00    +0.245 C 
ATOM     19  O   UNL     1      -0.029   0.908  -2.575  0.00  0.00    -0.270 OA
ATOM     20  H   UNL     1      -2.578   2.063  -1.272  0.00  0.00    +0.150 HD
BRANCH  18  21
ATOM     21  C   UNL     1      -0.551   3.183  -2.476  0.00  0.00    +0.037 A 
ATOM     22  C   UNL     1      -1.445   4.160  -2.034  0.00  0.00    +0.014 A 
ATOM     23  C   UNL     1      -1.197   5.490  -2.301  0.00  0.00    +0.021 A 
ATOM     24  C   UNL     1      -0.062   5.858  -3.006  0.00  0.00    +0.041 A 
ATOM     25  C   UNL     1       0.829   4.893  -3.446  0.00  0.00    +0.021 A 
ATOM     26  C   UNL     1       0.594   3.561  -3.181  0.00  0.00    +0.014 A 
ATOM     27 CL   UNL     1       0.243   7.534  -3.338  0.00  0.00    -0.084 Cl
ENDBRANCH  18  21
ENDBRANCH   1  17
BRANCH   1  28
ATOM     28  C   UNL     1      -1.470  -0.268   0.224  0.00  0.00    +0.034 C 
BRANCH  28  30
ATOM     29  C   UNL     1      -0.707  -2.557  -0.424  0.00  0.00    +0.007 C 
ATOM     30  C   UNL     1      -1.567  -1.758   0.557  0.00  0.00    -0.015 C 
ATOM     31  C   UNL     1      -1.068  -1.996   1.984  0.00  0.00    +0.007 C 
ENDBRANCH  28  30
ENDBRANCH   1  28
TORSDOF 8
