REMARK  Name = ZINC59271727
REMARK  6 active torsions:
REMARK  status: ('A' for Active; 'I' for Inactive)
REMARK    1  A    between atoms: C_3  and  O_29
REMARK    2  A    between atoms: C_6  and  C_7
REMARK    3  A    between atoms: C_10  and  S_12
REMARK    4  A    between atoms: S_12  and  C_13
REMARK    5  A    between atoms: C_13  and  C_14
REMARK    6  A    between atoms: C_19  and  C_22
REMARK                            x       y       z     vdW  Elec       q    Type
REMARK                         _______ _______ _______ _____ _____    ______ ____
ROOT
ATOM      1  C   UNL     1      -6.024  -4.888   0.043  0.00  0.00    +0.229 C 
ATOM      2  O   UNL     1      -5.434  -5.947   0.038  0.00  0.00    -0.275 OA
ATOM      3  N   UNL     1      -7.372  -4.867   0.052  0.00  0.00    -0.264 N 
ATOM      4  C   UNL     1      -8.085  -6.059   0.057  0.00  0.00    +0.165 A 
ATOM      5  N   UNL     1      -9.391  -6.252   0.061  0.00  0.00    -0.225 NA
ATOM      6  C   UNL     1      -9.906  -7.471   0.064  0.00  0.00    +0.080 A 
ATOM      7  C   UNL     1      -9.070  -8.553   0.064  0.00  0.00    +0.076 A 
ATOM      8  S   UNL     1      -7.478  -7.740   0.051  0.00  0.00    -0.060 S 
ATOM      9  H   UNL     1      -7.844  -4.019   0.056  0.00  0.00    +0.157 HD
ENDROOT
BRANCH   6  10
ATOM     10  C   UNL     1     -11.377  -7.662   0.069  0.00  0.00    +0.001 A 
ATOM     11  C   UNL     1     -11.915  -8.948   0.079  0.00  0.00    +0.011 A 
ATOM     12  C   UNL     1     -13.285  -9.120   0.084  0.00  0.00    +0.016 A 
ATOM     13  C   UNL     1     -14.123  -8.019   0.078  0.00  0.00    +0.018 A 
ATOM     14  C   UNL     1     -13.594  -6.740   0.068  0.00  0.00    +0.016 A 
ATOM     15  C   UNL     1     -12.226  -6.557   0.069  0.00  0.00    +0.011 A 
ATOM     16 BR   UNL     1     -15.998  -8.263   0.084  0.00  0.00    -0.050 Br
ENDBRANCH   6  10
BRANCH   1  17
ATOM     17  C   UNL     1      -5.251  -3.594   0.037  0.00  0.00    +0.175 C 
BRANCH  17  18
ATOM     18  S   UNL     1      -3.473  -3.953   0.025  0.00  0.00    -0.056 S 
BRANCH  18  22
ATOM     19  C   UNL     1      -1.266  -0.762   0.011  0.00  0.00    +0.249 A 
ATOM     20  N   UNL     1      -2.474  -0.254   0.020  0.00  0.00    -0.106 NA
ATOM     21  N   UNL     1      -3.339  -1.206   0.025  0.00  0.00    -0.101 NA
ATOM     22  C   UNL     1      -2.716  -2.361   0.020  0.00  0.00    +0.278 A 
ATOM     23  O   UNL     1      -1.394  -2.107   0.005  0.00  0.00    -0.411 OA
BRANCH  19  29
ATOM     24  C   UNL     1      -0.017   1.392   0.010  0.00  0.00    +0.017 A 
ATOM     25  C   UNL     1       1.169   2.096   0.002  0.00  0.00    +0.046 A 
ATOM     26  C   UNL     1       2.380   1.418  -0.013  0.00  0.00    +0.117 A 
ATOM     27  C   UNL     1       2.404   0.029  -0.021  0.00  0.00    +0.046 A 
ATOM     28  C   UNL     1       1.223  -0.682  -0.013  0.00  0.00    +0.017 A 
ATOM     29  C   UNL     1       0.002  -0.004   0.002  0.00  0.00    +0.039 A 
BRANCH  26  30
ATOM     30  O   UNL     1       3.546   2.115  -0.022  0.00  0.00    -0.507 OA
ATOM     31  H   UNL     1       3.893   2.312   0.859  0.00  0.00    +0.292 HD
ENDBRANCH  26  30
ENDBRANCH  19  29
ENDBRANCH  18  22
ENDBRANCH  17  18
ENDBRANCH   1  17
TORSDOF 6
