REMARK  Name = ZINC09057648
REMARK  6 active torsions:
REMARK  status: ('A' for Active; 'I' for Inactive)
REMARK    1  A    between atoms: C_1  and  C_2
REMARK    2  A    between atoms: C_2  and  N_44
REMARK    3  A    between atoms: C_9  and  C_21
REMARK    4  A    between atoms: C_11  and  C_17
REMARK    5  A    between atoms: C_11  and  C_19
REMARK    6  A    between atoms: C_13  and  C_14
REMARK                            x       y       z     vdW  Elec       q    Type
REMARK                         _______ _______ _______ _____ _____    ______ ____
ROOT
ATOM      1  C   UNL     1      -2.200   0.753  -3.384  0.00  0.00    -0.051 C 
ATOM      2  C   UNL     1      -2.870   0.598  -2.042  0.00  0.00    -0.044 C 
ATOM      3  C   UNL     1      -2.221   0.037  -1.038  0.00  0.00    -0.051 C 
ATOM      4  C   UNL     1      -0.833  -0.521  -1.171  0.00  0.00    +0.010 C 
ATOM      5  C   UNL     1      -0.180  -0.224  -2.502  0.00  0.00    -0.070 C 
ATOM      6  C   UNL     1       0.002  -0.003   0.002  0.00  0.00    +0.067 C 
ATOM      7  C   UNL     1      -0.592  -0.531   1.308  0.00  0.00    +0.188 C 
ATOM      8  C   UNL     1      -2.068  -0.267   1.391  0.00  0.00    +0.065 C 
ATOM      9  C   UNL     1      -2.845  -0.012   0.308  0.00  0.00    +0.163 C 
ATOM     10  N   UNL     1      -2.659  -0.284   2.623  0.00  0.00    -0.304 NA
ATOM     11  H   UNL     1      -3.611  -0.115   2.706  0.00  0.00    +0.186 HD
ATOM     12  N   UNL     1      -0.759   0.975  -3.128  0.00  0.00    +0.382 N 
ATOM     13  H   UNL     1      -0.651   1.773  -2.490  0.00  0.00    -0.081 HD
ENDROOT
BRANCH   6  14
ATOM     14  C   UNL     1      -0.020   1.504   0.010  0.00  0.00    -0.005 A 
ATOM     15  C   UNL     1      -1.099   2.177   0.550  0.00  0.00    +0.022 A 
ATOM     16  C   UNL     1      -1.117   3.560   0.563  0.00  0.00    +0.018 A 
ATOM     17  C   UNL     1      -0.059   4.271   0.023  0.00  0.00    +0.018 A 
ATOM     18  C   UNL     1       1.018   3.599  -0.522  0.00  0.00    +0.040 A 
ATOM     19  C   UNL     1       1.039   2.214  -0.530  0.00  0.00    +0.127 A 
ATOM     20  F   UNL     1       2.092   1.557  -1.063  0.00  0.00    -0.205 F 
ATOM     21 BR   UNL     1      -2.590   4.480   1.310  0.00  0.00    -0.050 Br
ENDBRANCH   6  14
BRANCH  12  23
ATOM     22  C   UNL     1      -0.537   2.630  -4.921  0.00  0.00    -0.017 C 
ATOM     23  C   UNL     1      -0.059   1.275  -4.396  0.00  0.00    -0.082 C 
ENDBRANCH  12  23
BRANCH   9  24
ATOM     24  C   UNL     1      -4.252   0.206   0.462  0.00  0.00    +0.076 C 
ATOM     25  N   UNL     1      -5.368   0.379   0.584  0.00  0.00    -0.196 NA
ENDBRANCH   9  24
BRANCH   7  26
ATOM     26  C   UNL     1       0.081   0.125   2.441  0.00  0.00    +0.091 C 
ATOM     27  N   UNL     1       0.600   0.632   3.315  0.00  0.00    -0.195 NA
ENDBRANCH   7  26
BRANCH   7  28
ATOM     28  C   UNL     1      -0.360  -1.982   1.390  0.00  0.00    +0.091 C 
ATOM     29  N   UNL     1      -0.180  -3.102   1.453  0.00  0.00    -0.195 NA
ENDBRANCH   7  28
TORSDOF 5
