REMARK  Name = ZINC08997338
REMARK  6 active torsions:
REMARK  status: ('A' for Active; 'I' for Inactive)
REMARK    1  A    between atoms: C_1  and  O_2
REMARK    2  A    between atoms: O_2  and  C_3
REMARK    3  A    between atoms: C_8  and  C_9
REMARK    4  A    between atoms: N_13  and  C_14
REMARK    5  A    between atoms: C_17  and  S_20
REMARK    6  A    between atoms: S_20  and  N_23
REMARK                            x       y       z     vdW  Elec       q    Type
REMARK                         _______ _______ _______ _____ _____    ______ ____
ROOT
ATOM      1  C   UNL     1      -2.592   3.210   6.101  0.00  0.00    +0.173 A 
ATOM      2  N   UNL     1      -3.629   3.445   6.872  0.00  0.00    -0.128 NA
ATOM      3  N   UNL     1      -4.691   3.561   6.157  0.00  0.00    -0.121 NA
ATOM      4  C   UNL     1      -4.398   3.413   4.885  0.00  0.00    +0.207 A 
ATOM      5  N   UNL     1      -3.052   3.178   4.803  0.00  0.00    -0.270 N 
ATOM      6  S   UNL     1      -5.529   3.496   3.536  0.00  0.00    -0.009 SA
ENDROOT
BRANCH   1  12
ATOM      7  C   UNL     1      -0.619   3.900   7.463  0.00  0.00    +0.131 A 
ATOM      8  C   UNL     1       0.691   3.710   7.872  0.00  0.00    +0.048 A 
ATOM      9  C   UNL     1       1.426   2.651   7.373  0.00  0.00    +0.023 A 
ATOM     10  C   UNL     1       0.860   1.775   6.462  0.00  0.00    +0.042 A 
ATOM     11  C   UNL     1      -0.446   1.947   6.050  0.00  0.00    +0.035 A 
ATOM     12  C   UNL     1      -1.195   3.016   6.543  0.00  0.00    +0.063 A 
ATOM     13 CL   UNL     1       1.795   0.450   5.842  0.00  0.00    -0.084 Cl
BRANCH   7  15
ATOM     14  C   UNL     1      -0.689   5.801   8.889  0.00  0.00    +0.277 C 
ATOM     15  O   UNL     1      -1.342   4.940   7.954  0.00  0.00    -0.494 OA
ENDBRANCH   7  15
ENDBRANCH   1  12
BRANCH   5  16
ATOM     16  C   UNL     1      -2.299   2.957   3.642  0.00  0.00    +0.051 A 
ATOM     17  C   UNL     1      -2.498   1.806   2.892  0.00  0.00    +0.028 A 
ATOM     18  C   UNL     1      -1.754   1.591   1.748  0.00  0.00    +0.030 A 
ATOM     19  C   UNL     1      -0.812   2.521   1.350  0.00  0.00    +0.105 A 
ATOM     20  C   UNL     1      -0.608   3.666   2.097  0.00  0.00    +0.030 A 
ATOM     21  C   UNL     1      -1.352   3.889   3.239  0.00  0.00    +0.028 A 
BRANCH  19  22
ATOM     22  S   UNL     1       0.135   2.243  -0.110  0.00  0.00    +0.056 S 
ATOM     23  O   UNL     1       0.143   0.839  -0.328  0.00  0.00    -0.153 OA
ATOM     24  O   UNL     1       1.331   2.998   0.032  0.00  0.00    -0.153 OA
BRANCH  22  25
ATOM     25  N   UNL     1      -0.701   2.913  -1.372  0.00  0.00    -0.204 NA
ATOM     26  H   UNL     1      -0.141   2.760  -2.306  0.00  0.00    +0.144 HD
ATOM     27  H   UNL     1      -0.832   3.991  -1.194  0.00  0.00    +0.144 HD
ENDBRANCH  22  25
ENDBRANCH  19  22
ENDBRANCH   5  16
TORSDOF 5
