REMARK  Name = ZINC22507527
REMARK  11 active torsions:
REMARK  status: ('A' for Active; 'I' for Inactive)
REMARK    1  A    between atoms: C_1  and  C_2
REMARK    2  A    between atoms: C_4  and  C_33
REMARK    3  A    between atoms: C_6  and  C_29
REMARK    4  A    between atoms: C_10  and  C_11
REMARK    5  A    between atoms: N_13  and  N_14
REMARK    6  A    between atoms: C_15  and  C_17
REMARK    7  A    between atoms: C_18  and  C_28
REMARK    8  A    between atoms: C_20  and  C_22
REMARK    9  A    between atoms: C_29  and  C_30
REMARK   10  A    between atoms: C_29  and  C_31
REMARK   11  A    between atoms: C_29  and  C_32
REMARK                            x       y       z     vdW  Elec       q    Type
REMARK                         _______ _______ _______ _____ _____    ______ ____
ROOT
ATOM      1  C   UNL     1       1.304  -2.046   1.097  0.00  0.00    +0.267 C 
ATOM      2  O   UNL     1       0.264  -2.669   1.189  0.00  0.00    -0.268 OA
ATOM      3  N   UNL     1       1.312  -0.714   1.300  0.00  0.00    -0.230 N 
ATOM      4  H   UNL     1       2.253  -0.150   1.216  0.00  0.00    +0.173 HD
ENDROOT
BRANCH   1  14
ATOM      5  C   UNL     1       1.581  -5.027   0.605  0.00  0.00    +0.046 C 
ATOM      6  C   UNL     1       2.744  -4.072   0.534  0.00  0.00    -0.020 A 
ATOM      7  C   UNL     1       4.028  -4.550   0.224  0.00  0.00    +0.032 A 
ATOM      8  C   UNL     1       4.451  -5.873  -0.054  0.00  0.00    +0.050 A 
ATOM      9  N   UNL     1       5.719  -6.103  -0.316  0.00  0.00    -0.236 NA
ATOM     10  C   UNL     1       6.625  -5.141  -0.332  0.00  0.00    +0.136 A 
ATOM     11  N   UNL     1       6.300  -3.887  -0.082  0.00  0.00    -0.224 NA
ATOM     12  C   UNL     1       5.053  -3.568   0.191  0.00  0.00    +0.113 A 
ATOM     13  S   UNL     1       4.192  -2.066   0.575  0.00  0.00    -0.064 S 
ATOM     14  C   UNL     1       2.553  -2.747   0.765  0.00  0.00    +0.081 A 
ATOM     15  C   UNL     1       3.458  -7.007  -0.048  0.00  0.00    +0.066 C 
BRANCH  10  16
ATOM     16  C   UNL     1       8.060  -5.483  -0.641  0.00  0.00    +0.022 C 
ATOM     17  C   UNL     1       8.909  -4.210  -0.598  0.00  0.00    +0.019 C 
ATOM     18  C   UNL     1       8.582  -6.479   0.397  0.00  0.00    +0.019 C 
ATOM     19  C   UNL     1       8.146  -6.107  -2.035  0.00  0.00    +0.019 C 
ENDBRANCH  10  16
ENDBRANCH   1  14
BRANCH   3  20
ATOM     20  N   UNL     1       0.122  -0.046   1.616  0.00  0.00    -0.230 N 
ATOM     21  C   UNL     1       0.130   1.286   1.818  0.00  0.00    +0.269 C 
ATOM     22  O   UNL     1       1.171   1.910   1.726  0.00  0.00    -0.268 OA
ATOM     23  H   UNL     1      -0.819  -0.610   1.699  0.00  0.00    +0.173 HD
BRANCH  21  24
ATOM     24  C   UNL     1      -1.117   1.986   2.143  0.00  0.00    +0.098 A 
ATOM     25  C   UNL     1      -1.340   3.334   2.389  0.00  0.00    +0.058 A 
ATOM     26  N   UNL     1      -2.561   3.710   2.659  0.00  0.00    -0.243 NA
ATOM     27  C   UNL     1      -3.562   2.842   2.700  0.00  0.00    +0.109 A 
ATOM     28  S   UNL     1      -2.774   1.341   2.326  0.00  0.00    -0.062 S 
ATOM     29  C   UNL     1      -0.210   4.331   2.345  0.00  0.00    +0.067 C 
BRANCH  27  30
ATOM     30  C   UNL     1      -4.990   3.091   2.988  0.00  0.00    +0.007 A 
ATOM     31  C   UNL     1      -5.434   4.384   3.269  0.00  0.00    +0.010 A 
ATOM     32  C   UNL     1      -6.769   4.610   3.531  0.00  0.00    +0.001 A 
ATOM     33  C   UNL     1      -7.666   3.556   3.526  0.00  0.00    +0.000 A 
ATOM     34  C   UNL     1      -7.232   2.271   3.253  0.00  0.00    +0.001 A 
ATOM     35  C   UNL     1      -5.900   2.032   2.984  0.00  0.00    +0.010 A 
ENDBRANCH  27  30
ENDBRANCH  21  24
ENDBRANCH   3  20
TORSDOF 5
