REMARK  Name = ZINC22680348
REMARK  11 active torsions:
REMARK  status: ('A' for Active; 'I' for Inactive)
REMARK    1  A    between atoms: C_1  and  C_2
REMARK    2  A    between atoms: C_7  and  C_9
REMARK    3  A    between atoms: C_7  and  C_10
REMARK    4  A    between atoms: N_13  and  C_17
REMARK    5  A    between atoms: C_17  and  C_18
REMARK    6  A    between atoms: C_18  and  O_20
REMARK    7  A    between atoms: O_20  and  C_21
REMARK    8  A    between atoms: C_21  and  C_22
REMARK    9  A    between atoms: N_24  and  C_25
REMARK   10  A    between atoms: C_25  and  C_27
REMARK   11  A    between atoms: C_25  and  C_28
REMARK                            x       y       z     vdW  Elec       q    Type
REMARK                         _______ _______ _______ _____ _____    ______ ____
ROOT
ATOM      1  C   UNL     1      -2.611  -5.799  -3.004  0.00  0.00    +0.326 C 
ATOM      2  O   UNL     1      -2.346  -6.026  -1.847  0.00  0.00    -0.249 OA
ENDROOT
BRANCH   1   3
ATOM      3  C   UNL     1      -3.379  -4.556  -3.372  0.00  0.00    +0.238 C 
BRANCH   3  15
ATOM      4  C   UNL     1      -2.710   1.318  -0.134  0.00  0.00    +0.007 C 
ATOM      5  C   UNL     1      -2.444  -0.191  -0.126  0.00  0.00    -0.011 C 
ATOM      6  C   UNL     1      -3.769  -0.938  -0.288  0.00  0.00    +0.038 C 
ATOM      7  C   UNL     1      -3.510  -2.438  -0.331  0.00  0.00    +0.113 C 
ATOM      8  C   UNL     1      -2.716  -2.933   0.862  0.00  0.00    +0.041 C 
ATOM      9  C   UNL     1      -1.520  -2.081   1.251  0.00  0.00    -0.032 C 
ATOM     10  C   UNL     1      -1.823  -0.588   1.212  0.00  0.00    +0.009 C 
ATOM     11  C   UNL     1      -1.127  -2.443   2.700  0.00  0.00    +0.011 C 
ATOM     12  C   UNL     1      -0.316  -2.396   0.359  0.00  0.00    +0.011 C 
ATOM     13  C   UNL     1      -2.880  -2.839  -1.642  0.00  0.00    +0.247 C 
ATOM     14  O   UNL     1      -1.876  -2.395  -2.159  0.00  0.00    -0.273 OA
ATOM     15  N   UNL     1      -3.683  -3.794  -2.159  0.00  0.00    -0.213 N 
ATOM     16  C   UNL     1      -4.789  -3.954  -1.424  0.00  0.00    +0.310 C 
ATOM     17  O   UNL     1      -5.672  -4.745  -1.694  0.00  0.00    -0.252 OA
ATOM     18  N   UNL     1      -4.812  -3.143  -0.352  0.00  0.00    -0.285 N 
ATOM     19  H   UNL     1      -5.529  -3.031   0.287  0.00  0.00    +0.151 HD
ENDBRANCH   3  15
ENDBRANCH   1   3
BRANCH   1  20
ATOM     20  O   UNL     1      -2.222  -6.656  -3.962  0.00  0.00    -0.454 OA
BRANCH  20  21
ATOM     21  C   UNL     1      -1.498  -7.814  -3.541  0.00  0.00    +0.327 C 
BRANCH  21  22
ATOM     22  C   UNL     1      -1.149  -8.652  -4.744  0.00  0.00    +0.251 C 
ATOM     23  O   UNL     1      -1.486  -8.292  -5.852  0.00  0.00    -0.272 OA
ATOM     24  N   UNL     1      -0.461  -9.800  -4.588  0.00  0.00    -0.306 N 
ATOM     25  H   UNL     1      -0.191 -10.088  -3.702  0.00  0.00    +0.149 HD
BRANCH  24  26
ATOM     26  C   UNL     1      -0.121 -10.615  -5.758  0.00  0.00    +0.102 C 
ATOM     27  C   UNL     1       1.205 -10.130  -6.349  0.00  0.00    +0.033 C 
BRANCH  26  28
ATOM     28  C   UNL     1       0.011 -12.058  -5.344  0.00  0.00    -0.009 A 
ATOM     29  C   UNL     1       0.373 -12.374  -4.048  0.00  0.00    +0.008 A 
ATOM     30  C   UNL     1       0.494 -13.698  -3.667  0.00  0.00    +0.020 A 
ATOM     31  C   UNL     1       0.253 -14.706  -4.583  0.00  0.00    +0.042 A 
ATOM     32  C   UNL     1      -0.110 -14.390  -5.880  0.00  0.00    +0.040 A 
ATOM     33  C   UNL     1      -0.236 -13.065  -6.259  0.00  0.00    +0.047 A 
ATOM     34 CL   UNL     1      -0.697 -12.667  -7.885  0.00  0.00    -0.083 Cl
ATOM     35 CL   UNL     1       0.406 -16.368  -4.106  0.00  0.00    -0.083 Cl
ENDBRANCH  26  28
ENDBRANCH  24  26
ENDBRANCH  21  22
ENDBRANCH  20  21
ENDBRANCH   1  20
TORSDOF 7
