REMARK  Name = ZINC11502550
REMARK  12 active torsions:
REMARK  status: ('A' for Active; 'I' for Inactive)
REMARK    1  A    between atoms: C_1  and  C_2
REMARK    2  A    between atoms: C_2  and  C_3
REMARK    3  A    between atoms: C_3  and  C_5
REMARK    4  A    between atoms: C_3  and  N_6
REMARK    5  A    between atoms: C_15  and  S_16
REMARK    6  A    between atoms: S_16  and  C_17
REMARK    7  A    between atoms: C_17  and  C_19
REMARK    8  A    between atoms: C_17  and  C_20
REMARK    9  A    between atoms: N_22  and  C_23
REMARK   10  A    between atoms: C_24  and  C_30
REMARK   11  A    between atoms: N_26  and  C_29
REMARK   12  A    between atoms: C_27  and  C_28
REMARK                            x       y       z     vdW  Elec       q    Type
REMARK                         _______ _______ _______ _____ _____    ______ ____
ROOT
ATOM      1  N   UNL     1       0.373   3.511   3.438  0.00  0.00    -0.284 N 
ATOM      2  C   UNL     1      -0.221   2.941   2.374  0.00  0.00    +0.263 A 
ATOM      3  O   UNL     1       0.151   3.205   1.243  0.00  0.00    -0.267 OA
ATOM      4  C   UNL     1      -1.295   2.020   2.589  0.00  0.00    +0.076 A 
ATOM      5  C   UNL     1      -2.076   1.287   1.581  0.00  0.00    -0.023 A 
ATOM      6  C   UNL     1      -3.053   0.484   2.041  0.00  0.00    -0.004 A 
ATOM      7  S   UNL     1      -2.980   0.625   3.808  0.00  0.00    -0.073 S 
ATOM      8  C   UNL     1      -1.643   1.786   3.928  0.00  0.00    +0.117 A 
ATOM      9  N   UNL     1      -1.015   2.380   4.936  0.00  0.00    -0.216 NA
ATOM     10  C   UNL     1      -0.029   3.225   4.711  0.00  0.00    +0.174 A 
ATOM     11  C   UNL     1      -4.004  -0.351   1.241  0.00  0.00    +0.043 C 
ATOM     12  C   UNL     1      -3.217  -1.162   0.202  0.00  0.00    +0.005 C 
ATOM     13  C   UNL     1      -3.111  -0.331  -1.073  0.00  0.00    +0.001 C 
ATOM     14  C   UNL     1      -3.029   1.154  -0.724  0.00  0.00    +0.005 C 
ATOM     15  C   UNL     1      -1.776   1.441   0.093  0.00  0.00    +0.037 C 
ENDROOT
BRANCH   1  16
ATOM     16  C   UNL     1       1.472   4.457   3.227  0.00  0.00    +0.089 C 
ATOM     17  C   UNL     1       0.974   5.639   2.393  0.00  0.00    +0.031 C 
BRANCH  16  19
ATOM     18  C   UNL     1       3.193   2.651   3.374  0.00  0.00    +0.006 C 
ATOM     19  C   UNL     1       2.613   3.755   2.488  0.00  0.00    +0.021 C 
ENDBRANCH  16  19
ENDBRANCH   1  16
BRANCH  10  20
ATOM     20  S   UNL     1       0.782   3.996   6.072  0.00  0.00    -0.075 S 
BRANCH  20  21
ATOM     21  C   UNL     1      -0.141   3.261   7.445  0.00  0.00    +0.137 C 
ATOM     22  C   UNL     1       0.115   1.753   7.483  0.00  0.00    +0.029 C 
BRANCH  21  23
ATOM     23  C   UNL     1       0.310   3.881   8.742  0.00  0.00    +0.230 C 
ATOM     24  O   UNL     1       1.383   4.444   8.805  0.00  0.00    -0.274 OA
ATOM     25  N   UNL     1      -0.477   3.809   9.834  0.00  0.00    -0.282 N 
ATOM     26  H   UNL     1      -1.364   3.421   9.767  0.00  0.00    +0.155 HD
BRANCH  25  27
ATOM     27  C   UNL     1      -0.013   4.295  11.070  0.00  0.00    +0.077 A 
ATOM     28  C   UNL     1       1.127   3.852  11.757  0.00  0.00    +0.081 A 
ATOM     29  N   UNL     1       1.233   4.540  12.865  0.00  0.00    -0.175 NA
ATOM     30  N   UNL     1       0.167   5.446  12.926  0.00  0.00    -0.270 N 
ATOM     31  C   UNL     1      -0.585   5.282  11.807  0.00  0.00    +0.057 A 
ATOM     32  C   UNL     1      -1.831   6.051  11.450  0.00  0.00    +0.067 C 
ATOM     33  C   UNL     1      -0.088   6.406  14.003  0.00  0.00    +0.172 C 
ATOM     34  C   UNL     1       2.068   2.769  11.298  0.00  0.00    +0.069 C 
ENDBRANCH  25  27
ENDBRANCH  21  23
ENDBRANCH  20  21
ENDBRANCH  10  20
TORSDOF 6
