REMARK  Name = ZINC44657263
REMARK  7 active torsions:
REMARK  status: ('A' for Active; 'I' for Inactive)
REMARK    1  A    between atoms: C_7  and  C_10
REMARK    2  A    between atoms: C_13  and  S_23
REMARK    3  A    between atoms: N_15  and  C_16
REMARK    4  A    between atoms: C_16  and  C_17
REMARK    5  A    between atoms: S_23  and  C_24
REMARK    6  A    between atoms: C_24  and  C_25
REMARK    7  A    between atoms: N_30  and  C_31
REMARK                            x       y       z     vdW  Elec       q    Type
REMARK                         _______ _______ _______ _____ _____    ______ ____
ROOT
ATOM      1  C   UNL     1       0.675  -3.130  -0.022  0.00  0.00    +0.147 C 
ATOM      2  N   UNL     1      -0.627  -3.017  -0.015  0.00  0.00    -0.169 NA
ATOM      3  N   UNL     1      -1.246  -4.273  -0.014  0.00  0.00    -0.237 N 
ATOM      4  C   UNL     1      -0.165  -5.272  -0.022  0.00  0.00    +0.237 C 
ATOM      5  N   UNL     1       1.069  -4.471  -0.033  0.00  0.00    -0.283 N 
ATOM      6  H   UNL     1      -2.200  -4.449  -0.010  0.00  0.00    +0.171 HD
ENDROOT
BRANCH   1  13
ATOM      7  C   UNL     1      -0.016   1.354   0.009  0.00  0.00    +0.001 A 
ATOM      8  C   UNL     1       1.163   2.101   0.002  0.00  0.00    +0.002 A 
ATOM      9  C   UNL     1       2.384   1.511  -0.013  0.00  0.00    +0.026 A 
ATOM     10  C   UNL     1       2.483   0.096  -0.021  0.00  0.00    +0.043 A 
ATOM     11  N   UNL     1       3.531  -0.705  -0.035  0.00  0.00    -0.380 N 
ATOM     12  C   UNL     1       3.075  -2.099  -0.039  0.00  0.00    +0.152 C 
ATOM     13  C   UNL     1       1.563  -2.044  -0.024  0.00  0.00    +0.022 C 
ATOM     14  C   UNL     1       1.237  -0.687  -0.013  0.00  0.00    +0.006 A 
ATOM     15  C   UNL     1       0.002  -0.004   0.002  0.00  0.00    +0.010 A 
ATOM     16  H   UNL     1       4.457  -0.418  -0.043  0.00  0.00    +0.160 HD
ENDBRANCH   1  13
BRANCH   5  17
ATOM     17  C   UNL     1       2.443  -4.979  -0.049  0.00  0.00    +0.140 C 
BRANCH  17  18
ATOM     18  C   UNL     1       2.936  -5.164   1.388  0.00  0.00    +0.136 C 
ATOM     19  C   UNL     1       4.421  -5.584   1.383  0.00  0.00    +0.035 C 
ATOM     20  C   UNL     1       4.472  -6.631   2.529  0.00  0.00    +0.031 C 
ATOM     21  C   UNL     1       3.073  -7.283   2.393  0.00  0.00    +0.160 C 
ATOM     22  O   UNL     1       2.191  -6.208   2.026  0.00  0.00    -0.375 OA
ENDBRANCH  17  18
ENDBRANCH   5  17
BRANCH   4  23
ATOM     23  S   UNL     1      -0.263  -6.301  -1.513  0.00  0.00    -0.109 S 
BRANCH  23  24
ATOM     24  C   UNL     1      -0.136  -5.112  -2.876  0.00  0.00    +0.168 C 
BRANCH  24  25
ATOM     25  C   UNL     1      -0.205  -5.845  -4.191  0.00  0.00    +0.230 C 
ATOM     26  O   UNL     1      -0.328  -7.051  -4.206  0.00  0.00    -0.274 OA
ATOM     27  N   UNL     1      -0.130  -5.161  -5.349  0.00  0.00    -0.240 N 
ATOM     28  C   UNL     1      -0.192  -5.817  -6.525  0.00  0.00    +0.306 C 
ATOM     29  O   UNL     1      -0.314  -7.026  -6.540  0.00  0.00    -0.252 OA
ATOM     30  N   UNL     1      -0.117  -5.132  -7.684  0.00  0.00    -0.296 N 
ATOM     31  H   UNL     1      -0.032  -4.196  -5.337  0.00  0.00    +0.159 HD
ATOM     32  H   UNL     1      -0.018  -4.167  -7.671  0.00  0.00    +0.151 HD
BRANCH  30  33
ATOM     33  C   UNL     1      -0.183  -5.845  -8.961  0.00  0.00    +0.075 C 
ATOM     34  C   UNL     1       0.805  -5.432 -10.054  0.00  0.00    +0.024 C 
ATOM     35  C   UNL     1      -0.675  -5.064 -10.182  0.00  0.00    +0.024 C 
ENDBRANCH  30  33
ENDBRANCH  24  25
ENDBRANCH  23  24
ENDBRANCH   4  23
TORSDOF 7
