REMARK  Name = ZINC59599187
REMARK  8 active torsions:
REMARK  status: ('A' for Active; 'I' for Inactive)
REMARK    1  A    between atoms: C_1  and  N_2
REMARK    2  A    between atoms: C_3  and  N_31
REMARK    3  A    between atoms: C_4  and  O_11
REMARK    4  A    between atoms: N_7  and  C_10
REMARK    5  A    between atoms: O_11  and  C_12
REMARK    6  A    between atoms: C_15  and  C_18
REMARK    7  A    between atoms: N_19  and  N_20
REMARK    8  A    between atoms: C_21  and  C_23
REMARK                            x       y       z     vdW  Elec       q    Type
REMARK                         _______ _______ _______ _____ _____    ______ ____
ROOT
ATOM      1  C   UNL     1      -3.469  -2.052  -0.015  0.00  0.00    +0.129 A 
ATOM      2  C   UNL     1      -3.433  -0.677  -0.212  0.00  0.00    +0.047 A 
ATOM      3  C   UNL     1      -4.607   0.042  -0.276  0.00  0.00    +0.013 A 
ATOM      4  C   UNL     1      -5.834  -0.613  -0.141  0.00  0.00    -0.005 A 
ATOM      5  C   UNL     1      -5.865  -1.997   0.057  0.00  0.00    +0.013 A 
ATOM      6  C   UNL     1      -4.686  -2.709   0.113  0.00  0.00    +0.047 A 
ENDROOT
BRANCH   4   7
ATOM      7  C   UNL     1      -7.092   0.152  -0.208  0.00  0.00    +0.138 C 
ATOM      8  N   UNL     1      -8.230  -0.459  -0.083  0.00  0.00    -0.187 NA
BRANCH   8   9
ATOM      9  N   UNL     1      -9.426   0.269  -0.147  0.00  0.00    -0.203 N 
ATOM     10  C   UNL     1     -10.608  -0.365  -0.017  0.00  0.00    +0.263 C 
ATOM     11  O   UNL     1     -10.637  -1.569   0.155  0.00  0.00    -0.268 OA
ATOM     12  H   UNL     1      -9.403   1.228  -0.284  0.00  0.00    +0.178 HD
BRANCH  10  13
ATOM     13  C   UNL     1     -11.869   0.402  -0.084  0.00  0.00    +0.040 A 
ATOM     14  C   UNL     1     -11.839   1.783  -0.287  0.00  0.00    +0.014 A 
ATOM     15  C   UNL     1     -13.019   2.494  -0.350  0.00  0.00    +0.022 A 
ATOM     16  C   UNL     1     -14.233   1.841  -0.210  0.00  0.00    +0.059 A 
ATOM     17  C   UNL     1     -14.270   0.470  -0.008  0.00  0.00    +0.060 A 
ATOM     18  C   UNL     1     -13.095  -0.253   0.050  0.00  0.00    +0.034 A 
ATOM     19 CL   UNL     1     -15.795  -0.339   0.167  0.00  0.00    -0.082 Cl
ATOM     20 CL   UNL     1     -15.714   2.744  -0.289  0.00  0.00    -0.082 Cl
ENDBRANCH  10  13
ENDBRANCH   8   9
ENDBRANCH   4   7
BRANCH   1  21
ATOM     21  O   UNL     1      -2.310  -2.757   0.047  0.00  0.00    -0.447 OA
BRANCH  21  25
ATOM     22  C   UNL     1       1.816  -1.552  -2.156  0.00  0.00    +0.155 C 
ATOM     23  N   UNL     1       0.895  -1.452  -1.022  0.00  0.00    -0.282 N 
ATOM     24  C   UNL     1      -0.283  -2.163  -1.032  0.00  0.00    +0.149 A 
ATOM     25  C   UNL     1      -1.137  -2.062   0.033  0.00  0.00    +0.230 A 
ATOM     26  C   UNL     1      -0.786  -1.232   1.112  0.00  0.00    +0.301 A 
ATOM     27  O   UNL     1      -1.530  -1.127   2.072  0.00  0.00    -0.263 OA
ATOM     28  N   UNL     1       0.378  -0.554   1.079  0.00  0.00    -0.261 N 
ATOM     29  C   UNL     1       1.208  -0.668   0.026  0.00  0.00    +0.333 A 
ATOM     30  O   UNL     1       2.255  -0.050   0.020  0.00  0.00    -0.246 OA
ATOM     31  C   UNL     1       0.745   0.313   2.202  0.00  0.00    +0.157 C 
BRANCH  24  32
ATOM     32  N   UNL     1      -0.599  -2.967  -2.101  0.00  0.00    -0.341 N 
ATOM     33  H   UNL     1      -0.028  -2.978  -2.885  0.00  0.00    +0.144 HD
ATOM     34  H   UNL     1      -1.394  -3.523  -2.072  0.00  0.00    +0.144 HD
ENDBRANCH  24  32
ENDBRANCH  21  25
ENDBRANCH   1  21
TORSDOF 6
