REMARK  Name = ZINC59170738
REMARK  8 active torsions:
REMARK  status: ('A' for Active; 'I' for Inactive)
REMARK    1  A    between atoms: C_1  and  C_2
REMARK    2  A    between atoms: C_5  and  S_8
REMARK    3  A    between atoms: S_8  and  N_11
REMARK    4  A    between atoms: N_11  and  N_12
REMARK    5  A    between atoms: C_14  and  C_24
REMARK    6  A    between atoms: N_26  and  C_27
REMARK    7  A    between atoms: C_32  and  O_33
REMARK    8  A    between atoms: O_33  and  C_34
REMARK                            x       y       z     vdW  Elec       q    Type
REMARK                         _______ _______ _______ _____ _____    ______ ____
ROOT
ATOM      1  N   UNL     1       2.917  -4.163   0.612  0.00  0.00    -0.260 N 
ATOM      2  C   UNL     1       4.059  -4.765   0.787  0.00  0.00    +0.225 A 
ATOM      3  C   UNL     1       4.735  -4.753   2.106  0.00  0.00    +0.099 A 
ATOM      4  C   UNL     1       5.577  -5.801   2.391  0.00  0.00    +0.030 A 
ATOM      5  C   UNL     1       5.735  -6.843   1.369  0.00  0.00    +0.020 A 
ATOM      6  C   UNL     1       6.351  -8.059   1.681  0.00  0.00    +0.031 A 
ATOM      7  C   UNL     1       6.486  -9.025   0.705  0.00  0.00    +0.042 A 
ATOM      8  C   UNL     1       6.014  -8.794  -0.579  0.00  0.00    +0.023 A 
ATOM      9  C   UNL     1       5.405  -7.595  -0.900  0.00  0.00    +0.048 A 
ATOM     10  C   UNL     1       5.261  -6.613   0.066  0.00  0.00    +0.138 A 
ATOM     11  O   UNL     1       4.668  -5.433  -0.236  0.00  0.00    -0.437 OA
ATOM     12 CL   UNL     1       7.250 -10.537   1.085  0.00  0.00    -0.084 Cl
ATOM     13  H   UNL     1       2.518  -3.659   1.338  0.00  0.00    +0.189 HD
ENDROOT
BRANCH   3  14
ATOM     14  C   UNL     1       4.515  -3.662   3.070  0.00  0.00    +0.253 C 
ATOM     15  O   UNL     1       3.721  -2.776   2.815  0.00  0.00    -0.270 OA
ATOM     16  N   UNL     1       5.193  -3.645   4.234  0.00  0.00    -0.278 N 
ATOM     17  H   UNL     1       5.874  -4.313   4.409  0.00  0.00    +0.155 HD
BRANCH  16  18
ATOM     18  C   UNL     1       4.914  -2.662   5.193  0.00  0.00    +0.076 A 
ATOM     19  C   UNL     1       3.710  -1.974   5.154  0.00  0.00    +0.027 A 
ATOM     20  C   UNL     1       3.437  -1.005   6.101  0.00  0.00    +0.002 A 
ATOM     21  C   UNL     1       4.362  -0.719   7.088  0.00  0.00    +0.004 A 
ATOM     22  C   UNL     1       5.564  -1.400   7.133  0.00  0.00    +0.047 A 
ATOM     23  C   UNL     1       5.843  -2.377   6.191  0.00  0.00    +0.141 A 
BRANCH  23  24
ATOM     24  O   UNL     1       7.022  -3.052   6.238  0.00  0.00    -0.493 OA
ATOM     25  C   UNL     1       7.880  -2.784   7.349  0.00  0.00    +0.277 C 
ENDBRANCH  23  24
ENDBRANCH  16  18
ENDBRANCH   3  14
BRANCH   1  26
ATOM     26  N   UNL     1       2.266  -4.244  -0.626  0.00  0.00    -0.157 N 
ATOM     27  H   UNL     1       2.698  -4.685  -1.373  0.00  0.00    +0.194 HD
BRANCH  26  28
ATOM     28  S   UNL     1       0.758  -3.585  -0.812  0.00  0.00    +0.085 S 
ATOM     29  O   UNL     1      -0.047  -4.109   0.235  0.00  0.00    -0.149 OA
ATOM     30  O   UNL     1       0.416  -3.735  -2.183  0.00  0.00    -0.149 OA
BRANCH  28  35
ATOM     31  C   UNL     1       1.259   2.342   0.201  0.00  0.00    +0.044 C 
ATOM     32  C   UNL     1       1.134   0.862  -0.052  0.00  0.00    -0.050 A 
ATOM     33  C   UNL     1       1.210   0.372  -1.343  0.00  0.00    +0.005 A 
ATOM     34  C   UNL     1       1.096  -0.986  -1.575  0.00  0.00    +0.029 A 
ATOM     35  C   UNL     1       0.905  -1.854  -0.516  0.00  0.00    +0.110 A 
ATOM     36  C   UNL     1       0.829  -1.365   0.774  0.00  0.00    +0.029 A 
ATOM     37  C   UNL     1       0.948  -0.007   1.007  0.00  0.00    +0.005 A 
ENDBRANCH  28  35
ENDBRANCH  26  28
ENDBRANCH   1  26
TORSDOF 6
