REMARK  Name = ZINC15787269
REMARK  6 active torsions:
REMARK  status: ('A' for Active; 'I' for Inactive)
REMARK    1  A    between atoms: C_1  and  C_2
REMARK    2  A    between atoms: C_5  and  C_8
REMARK    3  A    between atoms: C_8  and  N_60
REMARK    4  A    between atoms: C_11  and  C_14
REMARK    5  A    between atoms: C_14  and  N_15
REMARK    6  A    between atoms: N_18  and  C_19
REMARK                            x       y       z     vdW  Elec       q    Type
REMARK                         _______ _______ _______ _____ _____    ______ ____
ROOT
ATOM      1  C   UNL     1      -8.417   3.544   1.479  0.00  0.00    +0.109 C 
ENDROOT
BRANCH   1   4
ATOM      2  C   UNL     1     -12.064   4.763   1.305  0.00  0.00    -0.078 C 
ATOM      3  C   UNL     1     -10.879   3.898   1.738  0.00  0.00    -0.014 C 
ATOM      4  C   UNL     1      -9.618   4.365   1.005  0.00  0.00    +0.003 C 
ATOM      5  C   UNL     1      -9.378   5.846   1.312  0.00  0.00    -0.014 C 
ATOM      6  C   UNL     1     -10.608   6.655   0.891  0.00  0.00    -0.078 C 
ATOM      7  N   UNL     1     -11.781   6.173   1.650  0.00  0.00    +0.382 N 
ATOM      8  H   UNL     1     -11.578   6.235   2.654  0.00  0.00    -0.081 HD
BRANCH   7   9
ATOM      9  C   UNL     1     -12.959   7.012   1.345  0.00  0.00    -0.043 C 
BRANCH   9  14
ATOM     10  C   UNL     1     -11.459  12.581   1.721  0.00  0.00    +0.044 C 
ATOM     11  C   UNL     1     -11.851  11.129   1.623  0.00  0.00    -0.050 A 
ATOM     12  C   UNL     1     -11.753  10.466   0.413  0.00  0.00    +0.003 A 
ATOM     13  C   UNL     1     -12.112   9.135   0.323  0.00  0.00    +0.002 A 
ATOM     14  C   UNL     1     -12.567   8.464   1.443  0.00  0.00    -0.064 A 
ATOM     15  C   UNL     1     -12.669   9.128   2.652  0.00  0.00    +0.002 A 
ATOM     16  C   UNL     1     -12.306  10.459   2.743  0.00  0.00    +0.003 A 
ENDBRANCH   9  14
ENDBRANCH   7   9
ENDBRANCH   1   4
BRANCH   1  17
ATOM     17  N   UNL     1      -7.235   3.909   0.694  0.00  0.00    -0.299 N 
ATOM     18  C   UNL     1      -6.053   3.310   0.938  0.00  0.00    +0.300 C 
ATOM     19  O   UNL     1      -5.967   2.466   1.809  0.00  0.00    -0.253 OA
ATOM     20  N   UNL     1      -4.966   3.646   0.215  0.00  0.00    -0.293 N 
ATOM     21  H   UNL     1      -7.304   4.582  -0.001  0.00  0.00    +0.150 HD
ATOM     22  H   UNL     1      -5.034   4.319  -0.480  0.00  0.00    +0.151 HD
BRANCH  20  23
ATOM     23  C   UNL     1      -3.680   2.994   0.480  0.00  0.00    +0.116 C 
ATOM     24  C   UNL     1      -2.537   3.909   0.035  0.00  0.00    +0.064 C 
ATOM     25  C   UNL     1      -1.242   3.136   0.027  0.00  0.00    -0.004 A 
ATOM     26  C   UNL     1      -0.048   3.838   0.020  0.00  0.00    +0.007 A 
ATOM     27  C   UNL     1       1.157   3.162   0.008  0.00  0.00    +0.000 A 
ATOM     28  C   UNL     1       1.174   1.780   0.000  0.00  0.00    +0.004 A 
ATOM     29  C   UNL     1      -0.013   1.076   0.008  0.00  0.00    +0.046 A 
ATOM     30  C   UNL     1      -1.228   1.753   0.017  0.00  0.00    +0.124 A 
ATOM     31  O   UNL     1      -2.375   1.025   0.040  0.00  0.00    -0.490 OA
ATOM     32  C   UNL     1      -3.590   1.686  -0.317  0.00  0.00    +0.251 C 
ENDBRANCH  20  23
ENDBRANCH   1  17
TORSDOF 5
