REMARK  Name = ZINC23303981
REMARK  13 active torsions:
REMARK  status: ('A' for Active; 'I' for Inactive)
REMARK    1  A    between atoms: C_1  and  C_2
REMARK    2  A    between atoms: C_5  and  O_8
REMARK    3  A    between atoms: O_8  and  C_9
REMARK    4  A    between atoms: C_9  and  C_10
REMARK    5  A    between atoms: C_17  and  C_19
REMARK    6  A    between atoms: C_22  and  N_25
REMARK    7  A    between atoms: N_25  and  C_26
REMARK    8  A    between atoms: C_26  and  C_27
REMARK    9  A    between atoms: C_34  and  O_36
REMARK   10  A    between atoms: O_36  and  C_37
REMARK   11  A    between atoms: C_37  and  C_38
REMARK   12  A    between atoms: C_37  and  C_39
REMARK   13  A    between atoms: C_37  and  C_40
REMARK                            x       y       z     vdW  Elec       q    Type
REMARK                         _______ _______ _______ _____ _____    ______ ____
ROOT
ATOM      1  C   UNL     1      -0.196   3.636  -1.262  0.00  0.00    +0.075 C 
ATOM      2  C   UNL     1       1.013   3.453  -0.342  0.00  0.00    +0.014 C 
ATOM      3  C   UNL     1       1.456   1.989  -0.368  0.00  0.00    +0.023 C 
ATOM      4  C   UNL     1       0.309   1.100   0.114  0.00  0.00    +0.080 C 
ATOM      5  C   UNL     1      -0.900   1.283  -0.806  0.00  0.00    +0.023 C 
ATOM      6  C   UNL     1      -1.343   2.747  -0.780  0.00  0.00    +0.014 C 
ENDROOT
BRANCH   1  13
ATOM      7  C   UNL     1      -0.664   7.930  -3.351  0.00  0.00    +0.173 C 
ATOM      8  C   UNL     1      -0.357   7.412  -1.946  0.00  0.00    +0.142 C 
ATOM      9  N   UNL     1      -0.028   5.980  -2.034  0.00  0.00    -0.296 N 
ATOM     10  C   UNL     1       0.978   5.562  -3.024  0.00  0.00    +0.136 C 
ATOM     11  C   UNL     1       0.602   6.169  -4.381  0.00  0.00    +0.179 C 
ATOM     12  O   UNL     1       0.409   7.578  -4.229  0.00  0.00    -0.370 OA
ATOM     13  C   UNL     1      -0.633   5.078  -1.236  0.00  0.00    +0.219 C 
ATOM     14  O   UNL     1      -1.529   5.427  -0.497  0.00  0.00    -0.275 OA
BRANCH   7  15
ATOM     15  C   UNL     1      -0.817   9.451  -3.316  0.00  0.00    +0.262 C 
BRANCH  15  16
ATOM     16  O   UNL     1      -1.215   9.920  -4.606  0.00  0.00    -0.489 OA
BRANCH  16  21
ATOM     17  C   UNL     1      -1.965  15.472  -5.191  0.00  0.00    +0.044 C 
ATOM     18  C   UNL     1      -1.764  13.986  -5.034  0.00  0.00    -0.050 A 
ATOM     19  C   UNL     1      -1.966  13.145  -6.113  0.00  0.00    +0.007 A 
ATOM     20  C   UNL     1      -1.782  11.783  -5.972  0.00  0.00    +0.046 A 
ATOM     21  C   UNL     1      -1.396  11.260  -4.747  0.00  0.00    +0.121 A 
ATOM     22  C   UNL     1      -1.200  12.105  -3.665  0.00  0.00    +0.046 A 
ATOM     23  C   UNL     1      -1.380  13.467  -3.812  0.00  0.00    +0.007 A 
ENDBRANCH  16  21
ENDBRANCH  15  16
ENDBRANCH   7  15
ENDBRANCH   1  13
BRANCH   4  24
ATOM     24  N   UNL     1      -0.058   1.475   1.482  0.00  0.00    -0.260 N 
ATOM     25  C   UNL     1       0.749   2.281   2.199  0.00  0.00    +0.404 C 
ATOM     26  O   UNL     1       0.397   2.677   3.293  0.00  0.00    -0.226 OA
BRANCH  24  27
ATOM     27  C   UNL     1      -1.302   0.972   2.071  0.00  0.00    +0.146 C 
BRANCH  27  28
ATOM     28  C   UNL     1      -1.034  -0.336   2.770  0.00  0.00    -0.030 A 
ATOM     29  C   UNL     1      -1.158  -1.526   2.078  0.00  0.00    +0.008 A 
ATOM     30  C   UNL     1      -0.909  -2.726   2.717  0.00  0.00    +0.038 A 
ATOM     31  C   UNL     1      -0.545  -2.736   4.053  0.00  0.00    +0.123 A 
ATOM     32  C   UNL     1      -0.426  -1.543   4.746  0.00  0.00    +0.038 A 
ATOM     33  C   UNL     1      -0.671  -0.344   4.104  0.00  0.00    +0.008 A 
ATOM     34  F   UNL     1      -0.305  -3.909   4.679  0.00  0.00    -0.205 F 
ENDBRANCH  27  28
ENDBRANCH  24  27
BRANCH  25  35
ATOM     35  O   UNL     1       1.946   2.650   1.703  0.00  0.00    -0.445 OA
BRANCH  35  36
ATOM     36  C   UNL     1       2.816   3.412   2.580  0.00  0.00    +0.107 C 
ATOM     37  C   UNL     1       3.073   2.616   3.861  0.00  0.00    +0.055 C 
ATOM     38  C   UNL     1       4.145   3.681   1.872  0.00  0.00    +0.055 C 
ATOM     39  C   UNL     1       2.148   4.742   2.932  0.00  0.00    +0.055 C 
ENDBRANCH  35  36
ENDBRANCH  25  35
ENDBRANCH   4  24
TORSDOF 9
