REMARK  Name = ZINC21258632
REMARK  13 active torsions:
REMARK  status: ('A' for Active; 'I' for Inactive)
REMARK    1  A    between atoms: C_1  and  C_2
REMARK    2  A    between atoms: C_2  and  N_3
REMARK    3  A    between atoms: N_3  and  C_4
REMARK    4  A    between atoms: N_3  and  C_6
REMARK    5  A    between atoms: C_4  and  C_5
REMARK    6  A    between atoms: C_9  and  C_12
REMARK    7  A    between atoms: C_17  and  C_22
REMARK    8  A    between atoms: C_25  and  O_30
REMARK    9  A    between atoms: C_26  and  O_28
REMARK   10  A    between atoms: O_28  and  C_29
REMARK   11  A    between atoms: O_30  and  C_31
REMARK   12  A    between atoms: C_31  and  C_32
REMARK   13  A    between atoms: C_31  and  C_33
REMARK                            x       y       z     vdW  Elec       q    Type
REMARK                         _______ _______ _______ _____ _____    ______ ____
ROOT
ATOM      1  C   UNL     1      -1.886   0.566  -0.346  0.00  0.00    +0.136 C 
ATOM      2  C   UNL     1      -2.073   1.231  -1.689  0.00  0.00    +0.036 C 
ATOM      3  C   UNL     1      -1.705   2.482  -2.007  0.00  0.00    +0.017 C 
ATOM      4  C   UNL     1      -1.920   3.011  -3.416  0.00  0.00    +0.059 C 
ATOM      5  C   UNL     1      -3.186   2.399  -4.014  0.00  0.00    +0.032 C 
ATOM      6  C   UNL     1      -2.999   0.877  -4.042  0.00  0.00    +0.088 C 
ATOM      7  C   UNL     1      -2.702   0.405  -2.651  0.00  0.00    +0.163 C 
ATOM      8  O   UNL     1      -3.013  -0.727  -2.337  0.00  0.00    -0.292 OA
ATOM      9  N   UNL     1      -1.118   3.360  -1.156  0.00  0.00    -0.316 N 
ATOM     10  C   UNL     1      -0.049   3.058  -0.318  0.00  0.00    +0.052 A 
ATOM     11  C   UNL     1       1.175   3.695  -0.426  0.00  0.00    +0.025 A 
ATOM     12  C   UNL     1       2.163   3.426   0.507  0.00  0.00    +0.002 A 
ATOM     13  C   UNL     1       1.928   2.531   1.534  0.00  0.00    +0.002 A 
ATOM     14  C   UNL     1       0.711   1.879   1.630  0.00  0.00    +0.025 A 
ATOM     15  C   UNL     1      -0.274   2.132   0.689  0.00  0.00    +0.049 A 
ATOM     16  N   UNL     1      -1.498   1.467   0.719  0.00  0.00    -0.331 N 
ATOM     17  H   UNL     1      -1.485   4.396  -1.094  0.00  0.00    +0.152 HD
ATOM     18  H   UNL     1      -2.174   1.636   1.570  0.00  0.00    +0.147 HD
ENDROOT
BRANCH   1  22
ATOM     19  C   UNL     1       1.115  -2.451  -0.743  0.00  0.00    +0.030 A 
ATOM     20  C   UNL     1      -0.198  -2.808  -0.465  0.00  0.00    +0.023 A 
ATOM     21  C   UNL     1      -1.165  -1.830  -0.336  0.00  0.00    +0.007 A 
ATOM     22  C   UNL     1      -0.827  -0.497  -0.482  0.00  0.00    -0.023 A 
ATOM     23  C   UNL     1       0.479  -0.139  -0.758  0.00  0.00    +0.007 A 
ATOM     24  C   UNL     1       1.451  -1.111  -0.889  0.00  0.00    +0.023 A 
BRANCH  19  25
ATOM     25  N   UNL     1       2.096  -3.437  -0.874  0.00  0.00    -0.330 N 
BRANCH  25  27
ATOM     26  C   UNL     1       4.238  -2.841   0.145  0.00  0.00    +0.024 C 
ATOM     27  C   UNL     1       3.480  -3.058  -1.166  0.00  0.00    +0.102 C 
ENDBRANCH  25  27
BRANCH  25  28
ATOM     28  C   UNL     1       1.739  -4.849  -0.719  0.00  0.00    +0.102 C 
ATOM     29  C   UNL     1       1.340  -5.427  -2.079  0.00  0.00    +0.024 C 
ENDBRANCH  25  28
ENDBRANCH  19  25
ENDBRANCH   1  22
BRANCH   5  30
ATOM     30  C   UNL     1      -3.390   2.915  -5.415  0.00  0.00    -0.040 A 
ATOM     31  C   UNL     1      -2.426   2.689  -6.380  0.00  0.00    +0.008 A 
ATOM     32  C   UNL     1      -2.609   3.160  -7.667  0.00  0.00    +0.050 A 
ATOM     33  C   UNL     1      -3.760   3.860  -7.992  0.00  0.00    +0.162 A 
ATOM     34  C   UNL     1      -4.730   4.087  -7.020  0.00  0.00    +0.162 A 
ATOM     35  C   UNL     1      -4.543   3.607  -5.733  0.00  0.00    +0.053 A 
BRANCH  34  36
ATOM     36  O   UNL     1      -5.862   4.773  -7.334  0.00  0.00    -0.491 OA
ATOM     37  C   UNL     1      -6.814   4.968  -6.286  0.00  0.00    +0.277 C 
ENDBRANCH  34  36
BRANCH  33  38
ATOM     38  O   UNL     1      -3.942   4.324  -9.257  0.00  0.00    -0.486 OA
BRANCH  38  39
ATOM     39  C   UNL     1      -2.854   4.162 -10.170  0.00  0.00    +0.167 C 
ATOM     40  C   UNL     1      -2.927   2.773 -10.808  0.00  0.00    +0.051 C 
ATOM     41  C   UNL     1      -2.941   5.230 -11.261  0.00  0.00    +0.051 C 
ENDBRANCH  38  39
ENDBRANCH  33  38
ENDBRANCH   5  30
TORSDOF 8
