REMARK  Name = ZINC56154635
REMARK  8 active torsions:
REMARK  status: ('A' for Active; 'I' for Inactive)
REMARK    1  A    between atoms: C_1  and  C_2
REMARK    2  A    between atoms: N_8  and  C_9
REMARK    3  A    between atoms: C_9  and  C_10
REMARK    4  A    between atoms: C_13  and  C_16
REMARK    5  A    between atoms: C_16  and  N_17
REMARK    6  A    between atoms: N_17  and  C_18
REMARK    7  A    between atoms: C_18  and  C_20
REMARK    8  A    between atoms: C_18  and  C_26
REMARK                            x       y       z     vdW  Elec       q    Type
REMARK                         _______ _______ _______ _____ _____    ______ ____
ROOT
ATOM      1  C   UNL     1       0.865  -0.347   3.613  0.00  0.00    -0.064 A 
ATOM      2  C   UNL     1       0.585  -1.532   4.268  0.00  0.00    +0.002 A 
ATOM      3  C   UNL     1       1.316  -1.895   5.383  0.00  0.00    +0.005 A 
ATOM      4  C   UNL     1       2.329  -1.075   5.843  0.00  0.00    -0.034 A 
ATOM      5  C   UNL     1       2.610   0.110   5.187  0.00  0.00    +0.005 A 
ATOM      6  C   UNL     1       1.881   0.471   4.070  0.00  0.00    +0.002 A 
ENDROOT
BRANCH   1   7
ATOM      7  C   UNL     1       0.067   0.050   2.397  0.00  0.00    -0.043 C 
BRANCH   7  14
ATOM      8  C   UNL     1      -0.019   1.526   0.010  0.00  0.00    -0.013 C 
ATOM      9  C   UNL     1       0.002  -0.004   0.002  0.00  0.00    -0.071 C 
ATOM     10  C   UNL     1       0.717  -0.497  -1.258  0.00  0.00    -0.016 C 
ATOM     11  C   UNL     1       0.735  -2.028  -1.262  0.00  0.00    -0.003 C 
ATOM     12  C   UNL     1       1.410  -2.524   0.020  0.00  0.00    -0.019 C 
ATOM     13  C   UNL     1       0.669  -1.956   1.232  0.00  0.00    -0.078 C 
ATOM     14  N   UNL     1       0.711  -0.490   1.192  0.00  0.00    +0.384 N 
ATOM     15  H   UNL     1       1.671  -0.182   1.159  0.00  0.00    -0.081 HD
ENDBRANCH   7  14
ENDBRANCH   1   7
BRANCH   4  16
ATOM     16  C   UNL     1       3.126  -1.471   7.059  0.00  0.00    +0.117 C 
BRANCH  16  17
ATOM     17  N   UNL     1       4.291  -2.263   6.644  0.00  0.00    -0.298 NA
ATOM     18  H   UNL     1       4.008  -3.066   6.102  0.00  0.00    +0.123 HD
BRANCH  17  19
ATOM     19  C   UNL     1       5.094  -2.668   7.806  0.00  0.00    +0.171 C 
BRANCH  19  20
ATOM     20  C   UNL     1       5.867  -3.917   7.471  0.00  0.00    -0.022 A 
ATOM     21  C   UNL     1       6.447  -4.058   6.224  0.00  0.00    +0.005 A 
ATOM     22  C   UNL     1       7.157  -5.204   5.918  0.00  0.00    +0.000 A 
ATOM     23  C   UNL     1       7.287  -6.209   6.858  0.00  0.00    +0.000 A 
ATOM     24  C   UNL     1       6.708  -6.068   8.105  0.00  0.00    +0.000 A 
ATOM     25  C   UNL     1       6.002  -4.920   8.413  0.00  0.00    +0.005 A 
ENDBRANCH  19  20
BRANCH  19  26
ATOM     26  C   UNL     1       6.054  -1.563   8.162  0.00  0.00    +0.232 C 
ATOM     27  O   UNL     1       6.069  -0.539   7.513  0.00  0.00    -0.274 OA
ATOM     28  N   UNL     1       6.897  -1.712   9.204  0.00  0.00    -0.328 N 
ATOM     29  H   UNL     1       6.885  -2.531   9.723  0.00  0.00    +0.145 HD
ATOM     30  H   UNL     1       7.515  -1.001   9.433  0.00  0.00    +0.145 HD
ENDBRANCH  19  26
ENDBRANCH  17  19
ENDBRANCH  16  17
ENDBRANCH   4  16
TORSDOF 7
