REMARK  Name = ZINC24841038
REMARK  6 active torsions:
REMARK  status: ('A' for Active; 'I' for Inactive)
REMARK    1  A    between atoms: C_1  and  C_2
REMARK    2  A    between atoms: C_9  and  C_16
REMARK    3  A    between atoms: C_11  and  O_12
REMARK    4  A    between atoms: C_16  and  O_17
REMARK    5  A    between atoms: O_17  and  C_18
REMARK    6  A    between atoms: C_18  and  C_20
REMARK                            x       y       z     vdW  Elec       q    Type
REMARK                         _______ _______ _______ _____ _____    ______ ____
ROOT
ATOM      1  C   UNL     1      -2.193   1.470   0.609  0.00  0.00    +0.109 C 
ATOM      2  C   UNL     1      -2.168  -0.036   0.609  0.00  0.00    +0.214 C 
ATOM      3  O   UNL     1      -3.058  -0.658   1.150  0.00  0.00    -0.276 OA
ATOM      4  N   UNL     1      -1.156  -0.694   0.009  0.00  0.00    -0.286 N 
ATOM      5  C   UNL     1      -1.081  -2.085   0.091  0.00  0.00    +0.037 A 
ATOM      6  C   UNL     1       0.164  -2.708   0.166  0.00  0.00    +0.024 A 
ATOM      7  C   UNL     1       0.253  -4.066   0.253  0.00  0.00    +0.014 A 
ATOM      8  C   UNL     1      -0.913  -4.841   0.254  0.00  0.00    +0.024 A 
ATOM      9  C   UNL     1      -0.848  -6.301   0.341  0.00  0.00    +0.007 A 
ATOM     10  C   UNL     1      -2.014  -6.998   0.339  0.00  0.00    +0.095 A 
ATOM     11  C   UNL     1      -3.242  -6.309   0.254  0.00  0.00    +0.285 A 
ATOM     12  O   UNL     1      -3.295  -4.971   0.176  0.00  0.00    -0.425 OA
ATOM     13  C   UNL     1      -2.173  -4.219   0.173  0.00  0.00    +0.141 A 
ATOM     14  C   UNL     1      -2.246  -2.837   0.092  0.00  0.00    +0.070 A 
ATOM     15  H   UNL     1      -0.388  -0.134  -0.545  0.00  0.00    +0.155 HD
ENDROOT
BRANCH  11  16
ATOM     16  O   UNL     1      -4.280  -6.946   0.253  0.00  0.00    -0.480 OA
ATOM     17  H   UNL     1      -5.246  -6.423   0.188  0.00  0.00    +0.295 HD
ENDBRANCH  11  16
BRANCH   9  18
ATOM     18  C   UNL     1       0.478  -7.013   0.430  0.00  0.00    +0.269 C 
BRANCH  18  19
ATOM     19  O   UNL     1       0.258  -8.423   0.504  0.00  0.00    -0.456 OA
BRANCH  19  20
ATOM     20  C   UNL     1       1.351  -9.209   0.590  0.00  0.00    +0.346 C 
ATOM     21  O   UNL     1       2.461  -8.710   0.601  0.00  0.00    -0.244 OA
BRANCH  20  22
ATOM     22  C   UNL     1       1.202 -10.662   0.668  0.00  0.00    +0.097 A 
ATOM     23  C   UNL     1       2.188 -11.636   0.761  0.00  0.00    +0.030 A 
ATOM     24  C   UNL     1       1.830 -12.957   0.823  0.00  0.00    +0.005 A 
ATOM     25  C   UNL     1       0.454 -13.227   0.792  0.00  0.00    +0.030 A 
ATOM     26  S   UNL     1      -0.296 -11.638   0.678  0.00  0.00    -0.081 S 
ATOM     27  C   UNL     1      -0.076 -14.583   0.858  0.00  0.00    +0.031 A 
ATOM     28  C   UNL     1      -1.390 -14.920   0.569  0.00  0.00    +0.012 A 
ATOM     29  C   UNL     1      -1.789 -16.241   0.645  0.00  0.00    +0.001 A 
ATOM     30  C   UNL     1      -0.882 -17.222   1.007  0.00  0.00    +0.004 A 
ATOM     31  C   UNL     1       0.428 -16.896   1.303  0.00  0.00    +0.046 A 
ATOM     32  C   UNL     1       0.848 -15.580   1.242  0.00  0.00    +0.129 A 
ATOM     33  O   UNL     1       2.113 -15.228   1.569  0.00  0.00    -0.487 OA
ATOM     34  C   UNL     1       2.777 -14.148   0.916  0.00  0.00    +0.265 C 
ENDBRANCH  20  22
ENDBRANCH  19  20
ENDBRANCH  18  19
ENDBRANCH   9  18
TORSDOF 5
