REMARK  Name = ZINC02447840
REMARK  7 active torsions:
REMARK  status: ('A' for Active; 'I' for Inactive)
REMARK    1  A    between atoms: C_1  and  N_43
REMARK    2  A    between atoms: C_2  and  N_43
REMARK    3  A    between atoms: C_3  and  C_4
REMARK    4  A    between atoms: C_3  and  N_43
REMARK    5  A    between atoms: C_5  and  C_15
REMARK    6  A    between atoms: N_17  and  N_18
REMARK    7  A    between atoms: C_19  and  C_20
REMARK                            x       y       z     vdW  Elec       q    Type
REMARK                         _______ _______ _______ _____ _____    ______ ____
ROOT
ATOM      1  C   UNL     1      -8.550   4.033   0.104  0.00  0.00    +0.063 A 
ATOM      2  C   UNL     1      -7.309   4.604   0.095  0.00  0.00    +0.170 A 
ATOM      3  N   UNL     1      -7.455   5.941   0.108  0.00  0.00    -0.124 NA
ATOM      4  N   UNL     1      -8.708   6.238   0.116  0.00  0.00    -0.058 NA
ATOM      5  N   UNL     1      -9.445   5.045   0.117  0.00  0.00    -0.194 N 
ATOM      6  C   UNL     1     -10.840   4.926   0.130  0.00  0.00    +0.240 A 
ATOM      7  C   UNL     1     -11.796   6.037   0.144  0.00  0.00    +0.206 A 
ATOM      8  N   UNL     1     -13.002   5.540   0.153  0.00  0.00    -0.032 NA
ATOM      9  O   UNL     1     -12.890   4.128   0.145  0.00  0.00    -0.239 OA
ATOM     10  N   UNL     1     -11.510   3.809   0.125  0.00  0.00    -0.027 NA
ATOM     11  N   UNL     1     -11.472   7.389   0.147  0.00  0.00    -0.337 N 
ATOM     12  H   UNL     1     -10.542   7.665   0.140  0.00  0.00    +0.144 HD
ATOM     13  H   UNL     1     -12.176   8.056   0.157  0.00  0.00    +0.144 HD
ENDROOT
BRANCH   2  14
ATOM     14  C   UNL     1      -6.026   3.877   0.079  0.00  0.00    +0.285 C 
ATOM     15  O   UNL     1      -6.016   2.661   0.073  0.00  0.00    -0.267 OA
ATOM     16  N   UNL     1      -4.864   4.561   0.071  0.00  0.00    -0.202 N 
ATOM     17  H   UNL     1      -4.872   5.531   0.076  0.00  0.00    +0.178 HD
BRANCH  16  18
ATOM     18  N   UNL     1      -3.645   3.871   0.057  0.00  0.00    -0.187 NA
ATOM     19  C   UNL     1      -2.527   4.529   0.049  0.00  0.00    +0.139 C 
BRANCH  19  20
ATOM     20  C   UNL     1      -1.244   3.803   0.033  0.00  0.00    +0.014 A 
ATOM     21  C   UNL     1      -0.038   4.508   0.025  0.00  0.00    +0.011 A 
ATOM     22  C   UNL     1       1.159   3.823   0.011  0.00  0.00    +0.002 A 
ATOM     23  C   UNL     1       1.169   2.439   0.004  0.00  0.00    +0.021 A 
ATOM     24  C   UNL     1      -0.021   1.732   0.012  0.00  0.00    +0.060 A 
ATOM     25  C   UNL     1      -1.228   2.405   0.021  0.00  0.00    +0.068 A 
ATOM     26 CL   UNL     1      -2.720   1.518   0.024  0.00  0.00    -0.081 Cl
ATOM     27 CL   UNL     1       0.002  -0.004   0.002  0.00  0.00    -0.082 Cl
ENDBRANCH  19  20
ENDBRANCH  16  18
ENDBRANCH   2  14
BRANCH   1  28
ATOM     28  C   UNL     1      -8.861   2.558   0.101  0.00  0.00    -0.021 C 
BRANCH  28  31
ATOM     29  C   UNL     1      -7.683   2.171  -1.979  0.00  0.00    -0.096 C 
ATOM     30  C   UNL     1      -9.507   0.716  -1.332  0.00  0.00    -0.096 C 
ATOM     31  N   UNL     1      -8.993   2.102  -1.299  0.00  0.00    +0.380 N 
ATOM     32  H   UNL     1      -9.656   2.715  -1.788  0.00  0.00    -0.082 HD
ENDBRANCH  28  31
ENDBRANCH   1  28
TORSDOF 5
