REMARK  Name = ZINC13469523
REMARK  6 active torsions:
REMARK  status: ('A' for Active; 'I' for Inactive)
REMARK    1  A    between atoms: C_3  and  O_22
REMARK    2  A    between atoms: C_6  and  C_7
REMARK    3  A    between atoms: N_9  and  N_10
REMARK    4  A    between atoms: C_11  and  C_13
REMARK    5  A    between atoms: C_13  and  C_14
REMARK    6  A    between atoms: C_14  and  C_20
REMARK                            x       y       z     vdW  Elec       q    Type
REMARK                         _______ _______ _______ _____ _____    ______ ____
ROOT
ATOM      1  N   UNL     1       2.442  -4.220  -0.061  0.00  0.00    -0.234 N 
ATOM      2  C   UNL     1       3.622  -4.872  -0.075  0.00  0.00    +0.230 C 
ATOM      3  O   UNL     1       4.660  -4.245  -0.095  0.00  0.00    -0.274 OA
ATOM      4  H   UNL     1       1.612  -4.721  -0.045  0.00  0.00    +0.173 HD
ENDROOT
BRANCH   1   7
ATOM      5  C   UNL     1       1.235  -2.168  -0.055  0.00  0.00    +0.260 C 
ATOM      6  O   UNL     1       0.195  -2.796  -0.035  0.00  0.00    -0.269 OA
ATOM      7  N   UNL     1       2.415  -2.820  -0.069  0.00  0.00    -0.230 N 
ATOM      8  H   UNL     1       3.246  -2.319  -0.085  0.00  0.00    +0.173 HD
BRANCH   5  14
ATOM      9  C   UNL     1      -0.015  -0.015  -0.048  0.00  0.00    +0.016 A 
ATOM     10  C   UNL     1      -0.037   1.361  -0.055  0.00  0.00    +0.046 A 
ATOM     11  C   UNL     1       1.154   2.078  -0.077  0.00  0.00    +0.117 A 
ATOM     12  C   UNL     1       2.371   1.408  -0.092  0.00  0.00    +0.046 A 
ATOM     13  C   UNL     1       2.402   0.031  -0.085  0.00  0.00    +0.016 A 
ATOM     14  C   UNL     1       1.207  -0.693  -0.063  0.00  0.00    +0.038 A 
BRANCH  11  15
ATOM     15  O   UNL     1       1.127   3.434  -0.085  0.00  0.00    -0.507 OA
ATOM     16  H   UNL     1       1.133   3.833   0.796  0.00  0.00    +0.292 HD
ENDBRANCH  11  15
ENDBRANCH   5  14
ENDBRANCH   1   7
BRANCH   2  17
ATOM     17  C   UNL     1       3.651  -6.378  -0.067  0.00  0.00    +0.115 C 
BRANCH  17  18
ATOM     18  C   UNL     1       5.096  -6.862  -0.208  0.00  0.00    +0.080 C 
ATOM     19  C   UNL     1       5.114  -8.386  -0.340  0.00  0.00    +0.019 C 
ATOM     20  C   UNL     1       4.485  -9.013   0.906  0.00  0.00    +0.001 C 
ATOM     21  C   UNL     1       5.284  -8.599   2.144  0.00  0.00    +0.000 C 
ATOM     22  C   UNL     1       5.266  -7.075   2.276  0.00  0.00    +0.001 C 
ATOM     23  C   UNL     1       5.895  -6.447   1.030  0.00  0.00    +0.019 C 
BRANCH  18  24
ATOM     24  C   UNL     1       5.715  -6.244  -1.435  0.00  0.00    +0.362 C 
ATOM     25  O   UNL     1       6.746  -5.621  -1.343  0.00  0.00    -0.246 OA
ATOM     26  O   UNL     1       5.121  -6.386  -2.630  0.00  0.00    -0.246 OA
ENDBRANCH  18  24
ENDBRANCH  17  18
ENDBRANCH   2  17
TORSDOF 6
