REMARK  Name = ZINC25242919
REMARK  13 active torsions:
REMARK  status: ('A' for Active; 'I' for Inactive)
REMARK    1  A    between atoms: C_1  and  C_2
REMARK    2  A    between atoms: C_4  and  C_31
REMARK    3  A    between atoms: C_6  and  C_27
REMARK    4  A    between atoms: C_10  and  C_11
REMARK    5  A    between atoms: N_13  and  C_14
REMARK    6  A    between atoms: C_14  and  C_15
REMARK    7  A    between atoms: C_18  and  C_21
REMARK    8  A    between atoms: C_21  and  S_22
REMARK    9  A    between atoms: S_22  and  N_25
REMARK   10  A    between atoms: N_25  and  C_26
REMARK   11  A    between atoms: C_27  and  C_28
REMARK   12  A    between atoms: C_27  and  C_29
REMARK   13  A    between atoms: C_27  and  C_30
REMARK                            x       y       z     vdW  Elec       q    Type
REMARK                         _______ _______ _______ _____ _____    ______ ____
ROOT
ATOM      1  C   UNL     1      -0.853   9.514   4.176  0.00  0.00    +0.251 C 
ATOM      2  O   UNL     1      -0.419  10.386   3.446  0.00  0.00    -0.270 OA
ATOM      3  N   UNL     1      -0.520   8.226   3.961  0.00  0.00    -0.307 N 
ATOM      4  H   UNL     1      -0.912   7.439   4.621  0.00  0.00    +0.149 HD
ENDROOT
BRANCH   1  14
ATOM      5  C   UNL     1      -1.755  12.320   4.899  0.00  0.00    +0.046 C 
ATOM      6  C   UNL     1      -2.181  11.097   5.670  0.00  0.00    -0.020 A 
ATOM      7  C   UNL     1      -3.037  11.225   6.776  0.00  0.00    +0.032 A 
ATOM      8  C   UNL     1      -3.612  12.392   7.335  0.00  0.00    +0.050 A 
ATOM      9  N   UNL     1      -4.391  12.286   8.390  0.00  0.00    -0.236 NA
ATOM     10  C   UNL     1      -4.662  11.122   8.955  0.00  0.00    +0.136 A 
ATOM     11  N   UNL     1      -4.159   9.996   8.486  0.00  0.00    -0.224 NA
ATOM     12  C   UNL     1      -3.370  10.012   7.434  0.00  0.00    +0.113 A 
ATOM     13  S   UNL     1      -2.500   8.785   6.493  0.00  0.00    -0.064 S 
ATOM     14  C   UNL     1      -1.741   9.867   5.293  0.00  0.00    +0.079 A 
ATOM     15  C   UNL     1      -3.335  13.743   6.728  0.00  0.00    +0.066 C 
BRANCH  10  16
ATOM     16  C   UNL     1      -5.564  11.080  10.162  0.00  0.00    +0.022 C 
ATOM     17  C   UNL     1      -5.724   9.632  10.630  0.00  0.00    +0.019 C 
ATOM     18  C   UNL     1      -4.949  11.915  11.287  0.00  0.00    +0.019 C 
ATOM     19  C   UNL     1      -6.935  11.651   9.794  0.00  0.00    +0.019 C 
ENDBRANCH  10  16
ENDBRANCH   1  14
BRANCH   3  20
ATOM     20  C   UNL     1       0.365   7.875   2.847  0.00  0.00    +0.139 C 
BRANCH  20  21
ATOM     21  C   UNL     1       0.579   6.384   2.826  0.00  0.00    -0.030 A 
ATOM     22  C   UNL     1      -0.274   5.573   2.101  0.00  0.00    +0.005 A 
ATOM     23  C   UNL     1      -0.077   4.205   2.082  0.00  0.00    +0.005 A 
ATOM     24  C   UNL     1       0.972   3.648   2.788  0.00  0.00    -0.025 A 
ATOM     25  C   UNL     1       1.822   4.458   3.517  0.00  0.00    +0.005 A 
ATOM     26  C   UNL     1       1.629   5.826   3.532  0.00  0.00    +0.005 A 
BRANCH  24  27
ATOM     27  C   UNL     1       1.186   2.156   2.767  0.00  0.00    +0.220 C 
BRANCH  27  28
ATOM     28  S   UNL     1       2.281   1.721   1.387  0.00  0.00    +0.033 S 
ATOM     29  O   UNL     1       3.590   2.222   1.624  0.00  0.00    -0.158 OA
ATOM     30  O   UNL     1       1.627   1.961   0.149  0.00  0.00    -0.158 OA
BRANCH  28  31
ATOM     31  N   UNL     1       2.437   0.075   1.470  0.00  0.00    -0.197 NA
ATOM     32  C   UNL     1       1.271  -0.784   1.249  0.00  0.00    +0.127 C 
ATOM     33  H   UNL     1       3.374  -0.357   1.851  0.00  0.00    +0.147 HD
ENDBRANCH  28  31
ENDBRANCH  27  28
ENDBRANCH  24  27
ENDBRANCH  20  21
ENDBRANCH   3  20
TORSDOF 7
