REMARK  Name = ZINC09442054
REMARK  9 active torsions:
REMARK  status: ('A' for Active; 'I' for Inactive)
REMARK    1  A    between atoms: C_4  and  C_7
REMARK    2  A    between atoms: C_7  and  S_8
REMARK    3  A    between atoms: S_8  and  N_11
REMARK    4  A    between atoms: C_16  and  C_18
REMARK    5  A    between atoms: C_16  and  C_29
REMARK    6  A    between atoms: C_16  and  N_63
REMARK    7  A    between atoms: C_18  and  N_19
REMARK    8  A    between atoms: N_19  and  S_20
REMARK    9  A    between atoms: S_20  and  C_23
REMARK                            x       y       z     vdW  Elec       q    Type
REMARK                         _______ _______ _______ _____ _____    ______ ____
ROOT
ATOM      1  C   UNL     1      -1.472   3.606  -2.377  0.00  0.00    -0.022 C 
ENDROOT
BRANCH   1   7
ATOM      2  N   UNL     1       0.206   0.477  -0.134  0.00  0.00    -0.184 NA
ATOM      3  C   UNL     1       0.792   0.743  -1.457  0.00  0.00    +0.090 C 
ATOM      4  C   UNL     1      -0.219   1.536  -2.292  0.00  0.00    -0.061 C 
ATOM      5  C   UNL     1      -1.329   2.367  -0.302  0.00  0.00    -0.061 C 
ATOM      6  C   UNL     1      -0.363   1.608   0.615  0.00  0.00    +0.090 C 
ATOM      7  N   UNL     1      -0.611   2.747  -1.538  0.00  0.00    +0.387 N 
ATOM      8  H   UNL     1       0.235   3.269  -1.284  0.00  0.00    -0.081 HD
BRANCH   2   9
ATOM      9  S   UNL     1       0.181  -1.056   0.491  0.00  0.00    +0.036 S 
ATOM     10  O   UNL     1      -0.923  -1.066   1.385  0.00  0.00    -0.158 OA
ATOM     11  O   UNL     1       0.202  -1.911  -0.643  0.00  0.00    -0.158 OA
BRANCH   9  12
ATOM     12  C   UNL     1       1.735  -1.207   1.416  0.00  0.00    +0.220 C 
BRANCH  12  16
ATOM     13  C   UNL     1       1.976  -5.094   3.171  0.00  0.00    +0.000 A 
ATOM     14  C   UNL     1       2.483  -4.875   1.903  0.00  0.00    +0.000 A 
ATOM     15  C   UNL     1       2.404  -3.618   1.335  0.00  0.00    +0.005 A 
ATOM     16  C   UNL     1       1.820  -2.579   2.035  0.00  0.00    -0.025 A 
ATOM     17  C   UNL     1       1.318  -2.796   3.305  0.00  0.00    +0.005 A 
ATOM     18  C   UNL     1       1.392  -4.055   3.870  0.00  0.00    +0.000 A 
ENDBRANCH  12  16
ENDBRANCH   9  12
ENDBRANCH   2   9
ENDBRANCH   1   7
BRANCH   1  19
ATOM     19  C   UNL     1      -2.768   2.907  -2.698  0.00  0.00    -0.060 A 
ATOM     20  C   UNL     1      -3.699   2.686  -1.701  0.00  0.00    +0.002 A 
ATOM     21  C   UNL     1      -4.889   2.048  -1.996  0.00  0.00    +0.000 A 
ATOM     22  C   UNL     1      -5.144   1.623  -3.287  0.00  0.00    +0.000 A 
ATOM     23  C   UNL     1      -4.211   1.841  -4.283  0.00  0.00    +0.000 A 
ATOM     24  C   UNL     1      -3.022   2.482  -3.989  0.00  0.00    +0.002 A 
ENDBRANCH   1  19
BRANCH   1  25
ATOM     25  C   UNL     1      -1.766   4.902  -1.619  0.00  0.00    +0.095 C 
BRANCH  25  26
ATOM     26  N   UNL     1      -0.505   5.521  -1.202  0.00  0.00    -0.191 NA
ATOM     27  H   UNL     1       0.318   5.007  -1.223  0.00  0.00    +0.148 HD
BRANCH  26  28
ATOM     28  S   UNL     1      -0.484   7.098  -0.697  0.00  0.00    +0.058 S 
ATOM     29  O   UNL     1       0.860   7.392  -0.341  0.00  0.00    -0.153 OA
ATOM     30  O   UNL     1      -1.195   7.847  -1.673  0.00  0.00    -0.153 OA
BRANCH  28  31
ATOM     31  C   UNL     1      -1.428   7.181   0.788  0.00  0.00    +0.105 A 
ATOM     32  C   UNL     1      -2.785   7.438   0.731  0.00  0.00    +0.028 A 
ATOM     33  C   UNL     1      -3.527   7.498   1.896  0.00  0.00    +0.002 A 
ATOM     34  C   UNL     1      -2.910   7.312   3.119  0.00  0.00    +0.000 A 
ATOM     35  C   UNL     1      -1.552   7.061   3.177  0.00  0.00    +0.002 A 
ATOM     36  C   UNL     1      -0.811   6.995   2.011  0.00  0.00    +0.028 A 
ENDBRANCH  28  31
ENDBRANCH  26  28
ENDBRANCH  25  26
ENDBRANCH   1  25
TORSDOF 9
