REMARK  Name = ZINC01445197
REMARK  8 active torsions:
REMARK  status: ('A' for Active; 'I' for Inactive)
REMARK    1  A    between atoms: C_1  and  C_2
REMARK    2  A    between atoms: C_2  and  C_29
REMARK    3  A    between atoms: C_3  and  N_18
REMARK    4  A    between atoms: N_5  and  N_9
REMARK    5  A    between atoms: C_10  and  C_11
REMARK    6  A    between atoms: C_14  and  O_17
REMARK    7  A    between atoms: N_18  and  O_28
REMARK    8  A    between atoms: N_21  and  C_22
REMARK                            x       y       z     vdW  Elec       q    Type
REMARK                         _______ _______ _______ _____ _____    ______ ____
ROOT
ATOM      1  C   UNL     1       0.858  -0.679   1.160  0.00  0.00    +0.026 C 
ATOM      2  C   UNL     1       2.246  -0.606   0.521  0.00  0.00    +0.056 C 
ATOM      3  C   UNL     1       2.518   0.798  -0.060  0.00  0.00    +0.232 C 
ATOM      4  N   UNL     1       3.636   1.466   0.565  0.00  0.00    -0.187 N 
ATOM      5  C   UNL     1       4.330   0.875   1.548  0.00  0.00    +0.132 C 
ATOM      6  S   UNL     1       5.672   1.516   2.395  0.00  0.00    -0.026 S 
ATOM      7  S   UNL     1       3.565  -0.716   1.789  0.00  0.00    -0.091 S 
ATOM      8  C   UNL     1       2.417  -1.687  -0.548  0.00  0.00    +0.026 C 
ENDROOT
BRANCH   3   9
ATOM      9  N   UNL     1       1.319   1.620   0.117  0.00  0.00    -0.143 N 
ATOM     10  C   UNL     1       0.207   1.353  -0.597  0.00  0.00    +0.327 C 
ATOM     11  O   UNL     1       0.171   0.378  -1.323  0.00  0.00    -0.250 OA
ATOM     12  N   UNL     1      -0.864   2.166  -0.506  0.00  0.00    -0.295 N 
ATOM     13  H   UNL     1      -0.835   2.943   0.073  0.00  0.00    +0.151 HD
BRANCH  12  14
ATOM     14  C   UNL     1      -2.072   1.875  -1.282  0.00  0.00    +0.074 C 
ATOM     15  C   UNL     1      -1.929   2.463  -2.687  0.00  0.00    +0.022 C 
ATOM     16  C   UNL     1      -3.191   2.159  -3.497  0.00  0.00    +0.002 C 
ATOM     17  C   UNL     1      -4.404   2.783  -2.804  0.00  0.00    +0.000 C 
ATOM     18  C   UNL     1      -4.547   2.195  -1.399  0.00  0.00    +0.002 C 
ATOM     19  C   UNL     1      -3.285   2.499  -0.589  0.00  0.00    +0.022 C 
ENDBRANCH  12  14
BRANCH   9  20
ATOM     20  O   UNL     1       1.328   2.696   1.037  0.00  0.00    -0.289 OA
ATOM     21  H   UNL     1       2.139   2.761   1.559  0.00  0.00    +0.242 HD
ENDBRANCH   9  20
ENDBRANCH   3   9
BRANCH   4  22
ATOM     22  N   UNL     1       3.999   2.751   0.139  0.00  0.00    -0.184 NA
ATOM     23  C   UNL     1       3.405   3.287  -0.883  0.00  0.00    +0.138 C 
BRANCH  23  24
ATOM     24  C   UNL     1       3.858   4.593  -1.397  0.00  0.00    -0.005 A 
ATOM     25  C   UNL     1       4.923   5.257  -0.782  0.00  0.00    +0.013 A 
ATOM     26  C   UNL     1       5.347   6.474  -1.270  0.00  0.00    +0.046 A 
ATOM     27  C   UNL     1       4.710   7.046  -2.363  0.00  0.00    +0.117 A 
ATOM     28  C   UNL     1       3.647   6.393  -2.974  0.00  0.00    +0.046 A 
ATOM     29  C   UNL     1       3.220   5.173  -2.497  0.00  0.00    +0.013 A 
BRANCH  27  30
ATOM     30  O   UNL     1       5.128   8.249  -2.837  0.00  0.00    -0.507 OA
ATOM     31  H   UNL     1       4.685   9.007  -2.432  0.00  0.00    +0.292 HD
ENDBRANCH  27  30
ENDBRANCH  23  24
ENDBRANCH   4  22
TORSDOF 6
