REMARK  Name = ZINC12643983
REMARK  6 active torsions:
REMARK  status: ('A' for Active; 'I' for Inactive)
REMARK    1  A    between atoms: C_4  and  N_30
REMARK    2  A    between atoms: C_5  and  N_7
REMARK    3  A    between atoms: C_8  and  C_10
REMARK    4  A    between atoms: C_10  and  N_62
REMARK    5  A    between atoms: C_18  and  N_20
REMARK    6  A    between atoms: N_23  and  C_24
REMARK                            x       y       z     vdW  Elec       q    Type
REMARK                         _______ _______ _______ _____ _____    ______ ____
ROOT
ATOM      1  C   UNL     1      -4.634   6.945  -1.470  0.00  0.00    -0.066 C 
ATOM      2  C   UNL     1      -3.803   8.237  -1.299  0.00  0.00    -0.017 C 
ATOM      3  C   UNL     1      -3.013   8.377  -2.616  0.00  0.00    -0.017 C 
ATOM      4  C   UNL     1      -3.438   7.156  -3.464  0.00  0.00    -0.066 C 
ATOM      5  C   UNL     1      -2.494   5.992  -3.120  0.00  0.00    +0.007 C 
ATOM      6  C   UNL     1      -2.380   5.880  -1.597  0.00  0.00    +0.071 C 
ATOM      7  C   UNL     1      -3.777   5.766  -0.981  0.00  0.00    +0.007 C 
ATOM      8  N   UNL     1      -4.751   6.803  -2.917  0.00  0.00    +0.389 N 
ATOM      9  H   UNL     1      -4.986   5.833  -3.159  0.00  0.00    -0.080 HD
ENDROOT
BRANCH   6  10
ATOM     10  N   UNL     1      -1.597   4.691  -1.253  0.00  0.00    -0.297 N 
ATOM     11  C   UNL     1      -0.939   4.633  -0.078  0.00  0.00    +0.300 C 
ATOM     12  O   UNL     1      -0.996   5.569   0.696  0.00  0.00    -0.253 OA
ATOM     13  N   UNL     1      -0.219   3.539   0.238  0.00  0.00    -0.297 N 
ATOM     14  H   UNL     1      -1.552   3.945  -1.871  0.00  0.00    +0.151 HD
ATOM     15  H   UNL     1      -0.174   2.793  -0.380  0.00  0.00    +0.151 HD
BRANCH  13  16
ATOM     16  C   UNL     1       0.496   3.477   1.516  0.00  0.00    +0.074 C 
ATOM     17  C   UNL     1       1.860   4.152   1.370  0.00  0.00    +0.022 C 
ATOM     18  C   UNL     1       2.607   4.087   2.704  0.00  0.00    +0.002 C 
ATOM     19  C   UNL     1       2.803   2.625   3.107  0.00  0.00    +0.000 C 
ATOM     20  C   UNL     1       1.438   1.949   3.253  0.00  0.00    +0.002 C 
ATOM     21  C   UNL     1       0.691   2.014   1.919  0.00  0.00    +0.022 C 
ENDBRANCH  13  16
ENDBRANCH   6  10
BRANCH   8  22
ATOM     22  C   UNL     1      -5.809   7.716  -3.461  0.00  0.00    +0.020 C 
BRANCH  22  24
ATOM     23  N   UNL     1      -8.206   8.178  -3.062  0.00  0.00    -0.285 N 
ATOM     24  C   UNL     1      -7.141   7.381  -2.843  0.00  0.00    +0.201 C 
ATOM     25  O   UNL     1      -7.256   6.393  -2.148  0.00  0.00    -0.278 OA
ATOM     26  H   UNL     1      -8.134   8.924  -3.678  0.00  0.00    +0.155 HD
BRANCH  23  31
ATOM     27  C   UNL     1     -11.056   6.384  -1.585  0.00  0.00    +0.002 A 
ATOM     28  C   UNL     1     -11.802   7.439  -1.093  0.00  0.00    +0.002 A 
ATOM     29  C   UNL     1     -11.358   8.739  -1.253  0.00  0.00    +0.034 A 
ATOM     30  C   UNL     1     -10.163   8.987  -1.901  0.00  0.00    +0.147 A 
ATOM     31  C   UNL     1      -9.414   7.930  -2.401  0.00  0.00    +0.064 A 
ATOM     32  C   UNL     1      -9.863   6.626  -2.239  0.00  0.00    +0.025 A 
BRANCH  30  33
ATOM     33  N   UNL     1      -9.685  10.377  -2.067  0.00  0.00    +0.058 N 
ATOM     34  O   UNL     1     -10.311  11.299  -1.575  0.00  0.00    -0.126 OA
ATOM     35  O   UNL     1      -8.665  10.600  -2.694  0.00  0.00    -0.126 OA
ENDBRANCH  30  33
ENDBRANCH  23  31
ENDBRANCH  22  24
ENDBRANCH   8  22
TORSDOF 6
