REMARK  Name = ZINC13756347
REMARK  13 active torsions:
REMARK  status: ('A' for Active; 'I' for Inactive)
REMARK    1  A    between atoms: C_1  and  C_2
REMARK    2  A    between atoms: C_2  and  C_3
REMARK    3  A    between atoms: C_3  and  C_4
REMARK    4  A    between atoms: C_5  and  C_27
REMARK    5  A    between atoms: C_17  and  C_21
REMARK    6  A    between atoms: C_18  and  N_20
REMARK    7  A    between atoms: C_21  and  O_23
REMARK    8  A    between atoms: O_23  and  C_24
REMARK    9  A    between atoms: C_24  and  C_25
REMARK   10  A    between atoms: C_24  and  C_26
REMARK   11  A    between atoms: C_27  and  O_29
REMARK   12  A    between atoms: O_29  and  C_30
REMARK   13  A    between atoms: C_30  and  C_31
REMARK                            x       y       z     vdW  Elec       q    Type
REMARK                         _______ _______ _______ _____ _____    ______ ____
ROOT
ATOM      1  C   UNL     1      -0.116  -3.414   1.198  0.00  0.00    +0.119 C 
ATOM      2  C   UNL     1       1.033  -2.723   1.197  0.00  0.00    +0.099 C 
ATOM      3  C   UNL     1       1.669  -2.291  -0.093  0.00  0.00    +0.145 C 
ATOM      4  C   UNL     1       1.492  -0.808  -0.299  0.00  0.00    -0.001 A 
ATOM      5  C   UNL     1       0.383  -0.004  -0.435  0.00  0.00    +0.022 A 
ATOM      6  C   UNL     1       0.536   1.360  -0.618  0.00  0.00    +0.018 A 
ATOM      7  C   UNL     1       1.806   1.910  -0.662  0.00  0.00    +0.017 A 
ATOM      8  C   UNL     1       2.918   1.106  -0.525  0.00  0.00    +0.025 A 
ATOM      9  C   UNL     1       2.772  -0.268  -0.343  0.00  0.00    +0.038 A 
ATOM     10  N   UNL     1       3.726  -1.274  -0.184  0.00  0.00    -0.284 N 
ATOM     11  C   UNL     1       3.165  -2.487  -0.033  0.00  0.00    +0.237 C 
ATOM     12  O   UNL     1       3.750  -3.539   0.122  0.00  0.00    -0.274 OA
ATOM     13 BR   UNL     1      -0.984   2.468  -0.813  0.00  0.00    -0.050 Br
ATOM     14  C   UNL     1       1.086  -3.055  -1.247  0.00  0.00    +0.117 C 
ATOM     15  C   UNL     1      -0.081  -3.738  -1.100  0.00  0.00    +0.195 C 
ATOM     16  O   UNL     1      -0.749  -3.751   0.065  0.00  0.00    -0.445 OA
ATOM     17  H   UNL     1       4.683  -1.117  -0.183  0.00  0.00    +0.155 HD
ENDROOT
BRANCH  15  18
ATOM     18  N   UNL     1      -0.588  -4.430  -2.168  0.00  0.00    -0.329 N 
ATOM     19  H   UNL     1       0.013  -4.855  -2.800  0.00  0.00    +0.145 HD
ATOM     20  H   UNL     1      -1.547  -4.495  -2.292  0.00  0.00    +0.145 HD
ENDBRANCH  15  18
BRANCH  14  21
ATOM     21  C   UNL     1       1.749  -3.064  -2.484  0.00  0.00    +0.342 C 
ATOM     22  O   UNL     1       1.232  -3.599  -3.448  0.00  0.00    -0.245 OA
BRANCH  21  23
ATOM     23  O   UNL     1       2.961  -2.480  -2.604  0.00  0.00    -0.458 OA
BRANCH  23  24
ATOM     24  C   UNL     1       3.578  -2.527  -3.893  0.00  0.00    +0.171 C 
ATOM     25  C   UNL     1       3.163  -1.297  -4.702  0.00  0.00    +0.052 C 
ATOM     26  C   UNL     1       5.099  -2.540  -3.729  0.00  0.00    +0.052 C 
ENDBRANCH  23  24
ENDBRANCH  21  23
ENDBRANCH  14  21
BRANCH   2  27
ATOM     27  C   UNL     1       1.653  -2.394   2.427  0.00  0.00    +0.340 C 
ATOM     28  O   UNL     1       1.234  -2.870   3.466  0.00  0.00    -0.245 OA
BRANCH  27  29
ATOM     29  O   UNL     1       2.708  -1.553   2.448  0.00  0.00    -0.462 OA
BRANCH  29  30
ATOM     30  C   UNL     1       3.284  -1.266   3.723  0.00  0.00    +0.229 C 
ATOM     31  C   UNL     1       4.460  -0.302   3.547  0.00  0.00    +0.048 C 
ENDBRANCH  29  30
ENDBRANCH  27  29
ENDBRANCH   2  27
BRANCH   1  32
ATOM     32  C   UNL     1      -0.715  -3.827   2.518  0.00  0.00    +0.075 C 
BRANCH  32  34
ATOM     33  C   UNL     1      -0.660  -5.539   4.337  0.00  0.00    +0.004 C 
ATOM     34  C   UNL     1      -0.051  -5.119   2.998  0.00  0.00    +0.004 C 
ENDBRANCH  32  34
ENDBRANCH   1  32
TORSDOF 9
