REMARK  Name = ZINC04257524
REMARK  10 active torsions:
REMARK  status: ('A' for Active; 'I' for Inactive)
REMARK    1  A    between atoms: C_1  and  C_2
REMARK    2  A    between atoms: C_3  and  C_31
REMARK    3  A    between atoms: C_9  and  O_13
REMARK    4  A    between atoms: O_13  and  C_14
REMARK    5  A    between atoms: C_14  and  C_15
REMARK    6  A    between atoms: C_17  and  O_30
REMARK    7  A    between atoms: C_19  and  O_29
REMARK    8  A    between atoms: C_21  and  O_28
REMARK    9  A    between atoms: C_23  and  C_26
REMARK   10  A    between atoms: C_26  and  O_27
REMARK                            x       y       z     vdW  Elec       q    Type
REMARK                         _______ _______ _______ _____ _____    ______ ____
ROOT
ATOM      1  C   UNL     1      -0.018   1.503   0.010  0.00  0.00    +0.087 C 
ATOM      2  C   UNL     1       0.002  -0.004   0.002  0.00  0.00    +0.114 A 
ATOM      3  C   UNL     1      -1.182  -0.671   0.004  0.00  0.00    +0.067 A 
ATOM      4  C   UNL     1      -1.150  -2.146   0.013  0.00  0.00    +0.200 A 
ATOM      5  O   UNL     1      -2.144  -2.815  -0.209  0.00  0.00    -0.286 OA
ATOM      6  C   UNL     1       0.158  -2.762   0.307  0.00  0.00    +0.065 A 
ATOM      7  C   UNL     1       0.273  -4.122   0.597  0.00  0.00    +0.019 A 
ATOM      8  C   UNL     1       1.501  -4.653   0.870  0.00  0.00    +0.046 A 
ATOM      9  C   UNL     1       2.635  -3.844   0.861  0.00  0.00    +0.124 A 
ATOM     10  C   UNL     1       2.536  -2.493   0.573  0.00  0.00    +0.092 A 
ATOM     11  C   UNL     1       1.296  -1.937   0.289  0.00  0.00    +0.142 A 
ATOM     12  O   UNL     1       1.182  -0.627  -0.013  0.00  0.00    -0.459 OA
ENDROOT
BRANCH   3  13
ATOM     13  C   UNL     1      -2.470   0.064  -0.002  0.00  0.00    -0.007 A 
ATOM     14  C   UNL     1      -2.824   0.863   1.084  0.00  0.00    +0.012 A 
ATOM     15  C   UNL     1      -4.023   1.544   1.077  0.00  0.00    +0.050 A 
ATOM     16  C   UNL     1      -4.882   1.437  -0.009  0.00  0.00    +0.162 A 
ATOM     17  C   UNL     1      -4.533   0.643  -1.096  0.00  0.00    +0.163 A 
ATOM     18  C   UNL     1      -3.328  -0.040  -1.095  0.00  0.00    +0.058 A 
ATOM     19  O   UNL     1      -5.360   0.533  -2.172  0.00  0.00    -0.485 OA
ATOM     20  C   UNL     1      -6.720   0.936  -1.982  0.00  0.00    +0.270 C 
ATOM     21  C   UNL     1      -6.724   2.285  -1.251  0.00  0.00    +0.270 C 
ATOM     22  O   UNL     1      -6.063   2.115   0.007  0.00  0.00    -0.485 OA
ENDBRANCH   3  13
BRANCH   9  23
ATOM     23  O   UNL     1       3.849  -4.384   1.137  0.00  0.00    -0.489 OA
BRANCH  23  24
ATOM     24  C   UNL     1       3.886  -5.783   1.426  0.00  0.00    +0.263 C 
BRANCH  24  25
ATOM     25  C   UNL     1       5.328  -6.208   1.710  0.00  0.00    +0.187 C 
ATOM     26  C   UNL     1       5.385  -7.726   1.898  0.00  0.00    +0.177 C 
ATOM     27  C   UNL     1       6.821  -8.136   2.241  0.00  0.00    +0.177 C 
ATOM     28  C   UNL     1       7.271  -7.379   3.494  0.00  0.00    +0.176 C 
ATOM     29  C   UNL     1       7.141  -5.874   3.244  0.00  0.00    +0.175 C 
ATOM     30  O   UNL     1       5.789  -5.564   2.900  0.00  0.00    -0.362 OA
BRANCH  28  31
ATOM     31  O   UNL     1       6.448  -7.754   4.600  0.00  0.00    -0.386 OA
ATOM     32  H   UNL     1       6.678  -7.311   5.429  0.00  0.00    +0.210 HD
ENDBRANCH  28  31
BRANCH  27  33
ATOM     33  O   UNL     1       6.870  -9.543   2.488  0.00  0.00    -0.386 OA
ATOM     34  H   UNL     1       7.751  -9.873   2.712  0.00  0.00    +0.210 HD
ENDBRANCH  27  33
BRANCH  26  35
ATOM     35  O   UNL     1       4.979  -8.372   0.690  0.00  0.00    -0.386 OA
ATOM     36  H   UNL     1       4.991  -9.338   0.737  0.00  0.00    +0.210 HD
ENDBRANCH  26  35
BRANCH  29  37
ATOM     37  C   UNL     1       7.532  -5.111   4.512  0.00  0.00    +0.190 C 
BRANCH  37  38
ATOM     38  O   UNL     1       7.522  -3.707   4.245  0.00  0.00    -0.392 OA
ATOM     39  H   UNL     1       7.761  -3.160   5.006  0.00  0.00    +0.210 HD
ENDBRANCH  37  38
ENDBRANCH  29  37
ENDBRANCH  24  25
ENDBRANCH  23  24
ENDBRANCH   9  23
TORSDOF 9
