REMARK  Name = ZINC20919692
REMARK  9 active torsions:
REMARK  status: ('A' for Active; 'I' for Inactive)
REMARK    1  A    between atoms: C_1  and  C_2
REMARK    2  A    between atoms: C_5  and  C_8
REMARK    3  A    between atoms: C_8  and  N_9
REMARK    4  A    between atoms: C_12  and  C_15
REMARK    5  A    between atoms: C_15  and  N_16
REMARK    6  A    between atoms: C_17  and  C_19
REMARK    7  A    between atoms: C_24  and  N_25
REMARK    8  A    between atoms: C_26  and  C_28
REMARK    9  A    between atoms: C_29  and  C_34
REMARK                            x       y       z     vdW  Elec       q    Type
REMARK                         _______ _______ _______ _____ _____    ______ ____
ROOT
ATOM      1  N   UNL     1       6.637   5.703   0.057  0.00  0.00    -0.311 N 
ATOM      2  C   UNL     1       5.938   4.613  -0.316  0.00  0.00    +0.246 C 
ATOM      3  O   UNL     1       4.841   4.400   0.164  0.00  0.00    -0.270 OA
ATOM      4  H   UNL     1       7.629   5.895  -0.377  0.00  0.00    +0.149 HD
ENDROOT
BRANCH   2   5
ATOM      5  C   UNL     1       6.503   3.677  -1.307  0.00  0.00    +0.058 A 
ATOM      6  C   UNL     1       7.805   3.857  -1.780  0.00  0.00    +0.015 A 
ATOM      7  C   UNL     1       8.326   2.983  -2.710  0.00  0.00    +0.001 A 
ATOM      8  C   UNL     1       7.566   1.922  -3.175  0.00  0.00    +0.002 A 
ATOM      9  C   UNL     1       6.279   1.729  -2.713  0.00  0.00    +0.024 A 
ATOM     10  C   UNL     1       5.738   2.599  -1.776  0.00  0.00    +0.046 A 
BRANCH  10  11
ATOM     11  N   UNL     1       4.442   2.406  -1.309  0.00  0.00    -0.280 N 
ATOM     12  C   UNL     1       3.543   1.748  -2.068  0.00  0.00    +0.258 C 
ATOM     13  O   UNL     1       3.833   1.412  -3.201  0.00  0.00    -0.269 OA
ATOM     14  H   UNL     1       4.150   2.789  -0.320  0.00  0.00    +0.155 HD
BRANCH  12  15
ATOM     15  C   UNL     1       2.217   1.438  -1.530  0.00  0.00    +0.107 C 
ATOM     16  C   UNL     1       1.327   0.785  -2.286  0.00  0.00    +0.113 C 
ATOM     17  O   UNL     1       0.081   0.466  -1.929  0.00  0.00    -0.494 OA
ATOM     18  C   UNL     1      -0.304   0.366  -0.563  0.00  0.00    +0.239 C 
ATOM     19  C   UNL     1      -0.007   1.700   0.142  0.00  0.00    +0.115 C 
ATOM     20  S   UNL     1       1.800   1.928   0.116  0.00  0.00    -0.114 S 
ATOM     21  C   UNL     1       1.772   0.372  -3.665  0.00  0.00    +0.087 C 
ENDBRANCH  12  15
ENDBRANCH  10  11
ENDBRANCH   2   5
BRANCH   1  22
ATOM     22  C   UNL     1       6.076   6.631   1.041  0.00  0.00    +0.108 C 
BRANCH  22  26
ATOM     23  N   UNL     1       8.638   9.339   3.132  0.00  0.00    +0.382 N 
ATOM     24  C   UNL     1       7.442   9.918   2.507  0.00  0.00    -0.078 C 
ATOM     25  C   UNL     1       6.428   8.809   2.217  0.00  0.00    -0.014 C 
ATOM     26  C   UNL     1       7.064   7.774   1.286  0.00  0.00    +0.003 C 
ATOM     27  C   UNL     1       8.334   7.222   1.939  0.00  0.00    -0.014 C 
ATOM     28  C   UNL     1       9.292   8.377   2.236  0.00  0.00    -0.078 C 
ATOM     29  H   UNL     1       8.315   8.795   4.032  0.00  0.00    -0.081 HD
BRANCH  23  30
ATOM     30  C   UNL     1       9.575  10.391   3.550  0.00  0.00    -0.043 C 
BRANCH  30  35
ATOM     31  C   UNL     1      13.748   8.070   6.805  0.00  0.00    +0.044 C 
ATOM     32  C   UNL     1      12.660   8.675   5.956  0.00  0.00    -0.050 A 
ATOM     33  C   UNL     1      12.817   8.757   4.585  0.00  0.00    +0.003 A 
ATOM     34  C   UNL     1      11.819   9.312   3.807  0.00  0.00    +0.002 A 
ATOM     35  C   UNL     1      10.663   9.785   4.399  0.00  0.00    -0.064 A 
ATOM     36  C   UNL     1      10.508   9.708   5.770  0.00  0.00    +0.002 A 
ATOM     37  C   UNL     1      11.504   9.149   6.548  0.00  0.00    +0.003 A 
ENDBRANCH  30  35
ENDBRANCH  23  30
ENDBRANCH  22  26
ENDBRANCH   1  22
TORSDOF 7
