REMARK  Name = ZINC59795218
REMARK  8 active torsions:
REMARK  status: ('A' for Active; 'I' for Inactive)
REMARK    1  A    between atoms: C_6  and  C_7
REMARK    2  A    between atoms: C_10  and  S_13
REMARK    3  A    between atoms: N_11  and  N_12
REMARK    4  A    between atoms: S_13  and  C_14
REMARK    5  A    between atoms: C_14  and  C_15
REMARK    6  A    between atoms: C_21  and  S_23
REMARK    7  A    between atoms: S_23  and  C_24
REMARK    8  A    between atoms: C_24  and  C_25
REMARK                            x       y       z     vdW  Elec       q    Type
REMARK                         _______ _______ _______ _____ _____    ______ ____
ROOT
ATOM      1  C   UNL     1      -5.304  -3.556  -0.051  0.00  0.00    +0.173 C 
ENDROOT
BRANCH   1   2
ATOM      2  C   UNL     1      -6.110  -4.817  -0.226  0.00  0.00    +0.229 C 
ATOM      3  O   UNL     1      -5.560  -5.849  -0.544  0.00  0.00    -0.275 OA
ATOM      4  N   UNL     1      -7.443  -4.796  -0.029  0.00  0.00    -0.263 N 
ATOM      5  C   UNL     1      -8.189  -5.962  -0.191  0.00  0.00    +0.189 A 
ATOM      6  N   UNL     1      -7.799  -7.181  -0.523  0.00  0.00    -0.125 NA
ATOM      7  N   UNL     1      -8.613  -8.139  -0.627  0.00  0.00    -0.133 NA
ATOM      8  C   UNL     1      -9.911  -7.981  -0.410  0.00  0.00    +0.160 A 
ATOM      9  S   UNL     1      -9.948  -6.238  -0.001  0.00  0.00    -0.024 S 
ATOM     10  H   UNL     1      -7.884  -3.970   0.225  0.00  0.00    +0.157 HD
BRANCH   8  11
ATOM     11  S   UNL     1     -11.224  -9.153  -0.494  0.00  0.00    -0.088 S 
BRANCH  11  12
ATOM     12  C   UNL     1     -10.402 -10.701  -0.961  0.00  0.00    +0.171 C 
BRANCH  12  13
ATOM     13  C   UNL     1     -11.426 -11.801  -1.070  0.00  0.00    +0.221 C 
ATOM     14  O   UNL     1     -12.596 -11.564  -0.853  0.00  0.00    -0.275 OA
ATOM     15  N   UNL     1     -11.042 -13.048  -1.407  0.00  0.00    -0.329 N 
ATOM     16  H   UNL     1     -10.107 -13.238  -1.581  0.00  0.00    +0.145 HD
ATOM     17  H   UNL     1     -11.702 -13.756  -1.477  0.00  0.00    +0.145 HD
ENDBRANCH  12  13
ENDBRANCH  11  12
ENDBRANCH   8  11
ENDBRANCH   1   2
BRANCH   1  18
ATOM     18  S   UNL     1      -3.555  -3.905  -0.385  0.00  0.00    -0.075 S 
BRANCH  18  22
ATOM     19  C   UNL     1      -1.266  -0.763   0.011  0.00  0.00    +0.182 A 
ATOM     20  N   UNL     1      -2.458  -0.290   0.293  0.00  0.00    -0.127 NA
ATOM     21  N   UNL     1      -3.334  -1.225   0.203  0.00  0.00    -0.121 NA
ATOM     22  C   UNL     1      -2.756  -2.354  -0.141  0.00  0.00    +0.209 A 
ATOM     23  N   UNL     1      -1.422  -2.099  -0.281  0.00  0.00    -0.224 N 
BRANCH  19  29
ATOM     24  C   UNL     1      -0.017   1.392   0.010  0.00  0.00    +0.013 A 
ATOM     25  C   UNL     1       1.170   2.095   0.002  0.00  0.00    +0.021 A 
ATOM     26  C   UNL     1       2.378   1.419  -0.013  0.00  0.00    +0.041 A 
ATOM     27  C   UNL     1       2.403   0.034  -0.021  0.00  0.00    +0.021 A 
ATOM     28  C   UNL     1       1.223  -0.680  -0.014  0.00  0.00    +0.013 A 
ATOM     29  C   UNL     1       0.002  -0.004   0.002  0.00  0.00    +0.021 A 
ATOM     30 CL   UNL     1       3.868   2.311  -0.024  0.00  0.00    -0.084 Cl
ENDBRANCH  19  29
BRANCH  23  31
ATOM     31  N   UNL     1      -0.445  -2.986  -0.635  0.00  0.00    -0.295 N 
ATOM     32  H   UNL     1      -0.052  -3.434   0.179  0.00  0.00    +0.163 HD
ATOM     33  H   UNL     1      -0.795  -3.668  -1.290  0.00  0.00    +0.163 HD
ENDBRANCH  23  31
ENDBRANCH  18  22
ENDBRANCH   1  18
TORSDOF 8
