REMARK  Name = ZINC28117043
REMARK  5 active torsions:
REMARK  status: ('A' for Active; 'I' for Inactive)
REMARK    1  A    between atoms: N_8  and  S_9
REMARK    2  A    between atoms: S_9  and  C_12
REMARK    3  A    between atoms: C_26  and  N_29
REMARK    4  A    between atoms: N_29  and  C_30
REMARK    5  A    between atoms: C_33  and  O_36
REMARK                            x       y       z     vdW  Elec       q    Type
REMARK                         _______ _______ _______ _____ _____    ______ ____
ROOT
ATOM      1  C   UNL     1      -0.944  -0.626   1.627  0.00  0.00    +0.001 A 
ATOM      2  C   UNL     1      -0.047   0.426   1.698  0.00  0.00    +0.001 A 
ATOM      3  C   UNL     1       1.286   0.233   1.388  0.00  0.00    +0.012 A 
ATOM      4  C   UNL     1       1.729  -1.030   1.000  0.00  0.00    +0.033 A 
ATOM      5  C   UNL     1       0.818  -2.097   0.928  0.00  0.00    +0.013 A 
ATOM      6  C   UNL     1      -0.518  -1.886   1.243  0.00  0.00    +0.011 A 
ATOM      7  C   UNL     1       1.297  -3.437   0.515  0.00  0.00    +0.095 C 
ATOM      8  N   UNL     1       0.461  -4.439   0.442  0.00  0.00    -0.128 NA
ATOM      9  C   UNL     1       2.713  -3.636   0.187  0.00  0.00    +0.057 C 
ATOM     10  C   UNL     1       3.591  -2.610   0.257  0.00  0.00    +0.081 C 
ATOM     11  C   UNL     1       3.147  -1.263   0.664  0.00  0.00    +0.208 C 
ATOM     12  O   UNL     1       3.946  -0.349   0.722  0.00  0.00    -0.285 OA
ENDROOT
BRANCH   8  13
ATOM     13  S   UNL     1       1.000  -5.935  -0.019  0.00  0.00    +0.100 S 
ATOM     14  O   UNL     1       1.407  -5.820  -1.376  0.00  0.00    -0.146 OA
ATOM     15  O   UNL     1       1.877  -6.384   1.004  0.00  0.00    -0.146 OA
BRANCH  13  16
ATOM     16  C   UNL     1      -0.391  -7.018  -0.001  0.00  0.00    +0.120 A 
ATOM     17  C   UNL     1      -0.850  -7.586  -1.159  0.00  0.00    +0.031 A 
ATOM     18  C   UNL     1      -1.944  -8.449  -1.205  0.00  0.00    +0.026 A 
ATOM     19  C   UNL     1      -2.622  -8.768  -0.043  0.00  0.00    +0.042 A 
ATOM     20  C   UNL     1      -2.144  -8.183   1.125  0.00  0.00    +0.017 A 
ATOM     21  C   UNL     1      -1.049  -7.321   1.202  0.00  0.00    +0.011 A 
ATOM     22  C   UNL     1      -0.705  -6.831   2.473  0.00  0.00    +0.010 A 
ATOM     23  C   UNL     1      -1.446  -7.221   3.556  0.00  0.00    +0.001 A 
ATOM     24  C   UNL     1      -2.534  -8.088   3.463  0.00  0.00    +0.014 A 
ATOM     25  C   UNL     1      -2.912  -8.585   2.228  0.00  0.00    +0.047 A 
ATOM     26  C   UNL     1      -3.925  -9.479   1.656  0.00  0.00    +0.249 C 
ATOM     27  O   UNL     1      -4.803 -10.053   2.273  0.00  0.00    -0.270 OA
ATOM     28  N   UNL     1      -3.710  -9.553   0.316  0.00  0.00    -0.281 N 
ATOM     29  H   UNL     1      -4.241 -10.080  -0.302  0.00  0.00    +0.155 HD
ENDBRANCH  13  16
ENDBRANCH   8  13
BRANCH  10  30
ATOM     30  N   UNL     1       4.924  -2.826  -0.057  0.00  0.00    -0.311 N 
ATOM     31  H   UNL     1       5.164  -3.209  -0.916  0.00  0.00    +0.152 HD
BRANCH  30  32
ATOM     32  C   UNL     1       5.922  -2.493   0.863  0.00  0.00    +0.032 A 
ATOM     33  C   UNL     1       5.578  -2.105   2.152  0.00  0.00    +0.027 A 
ATOM     34  C   UNL     1       6.564  -1.776   3.060  0.00  0.00    +0.047 A 
ATOM     35  C   UNL     1       7.899  -1.832   2.686  0.00  0.00    +0.117 A 
ATOM     36  C   UNL     1       8.244  -2.220   1.399  0.00  0.00    +0.047 A 
ATOM     37  C   UNL     1       7.260  -2.555   0.491  0.00  0.00    +0.027 A 
BRANCH  35  38
ATOM     38  O   UNL     1       8.870  -1.507   3.581  0.00  0.00    -0.507 OA
ATOM     39  H   UNL     1       9.189  -2.255   4.104  0.00  0.00    +0.292 HD
ENDBRANCH  35  38
ENDBRANCH  30  32
ENDBRANCH  10  30
TORSDOF 5
