REMARK  Name = ZINC35657059
REMARK  10 active torsions:
REMARK  status: ('A' for Active; 'I' for Inactive)
REMARK    1  A    between atoms: C_1  and  C_2
REMARK    2  A    between atoms: C_2  and  O_3
REMARK    3  A    between atoms: O_3  and  C_4
REMARK    4  A    between atoms: C_4  and  C_6
REMARK    5  A    between atoms: C_9  and  N_12
REMARK    6  A    between atoms: N_14  and  C_30
REMARK    7  A    between atoms: C_18  and  C_19
REMARK    8  A    between atoms: C_21  and  O_27
REMARK    9  A    between atoms: C_22  and  O_26
REMARK   10  A    between atoms: O_27  and  C_28
REMARK                            x       y       z     vdW  Elec       q    Type
REMARK                         _______ _______ _______ _____ _____    ______ ____
ROOT
ATOM      1  N   UNL     1       1.879  -3.089   6.968  0.00  0.00    -0.226 NA
ATOM      2  C   UNL     1       1.720  -4.292   7.479  0.00  0.00    +0.168 C 
ATOM      3  N   UNL     1       0.667  -5.162   7.309  0.00  0.00    -0.249 N 
ATOM      4  C   UNL     1       0.666  -6.344   7.901  0.00  0.00    +0.259 C 
ATOM      5  O   UNL     1      -0.257  -7.125   7.761  0.00  0.00    -0.269 OA
ATOM      6  C   UNL     1       1.835  -6.673   8.739  0.00  0.00    +0.078 C 
ATOM      7  C   UNL     1       2.094  -7.799   9.452  0.00  0.00    +0.028 C 
ATOM      8  S   UNL     1       2.821  -5.194   8.557  0.00  0.00    -0.049 S 
ATOM      9  C   UNL     1      -0.464  -4.774   6.463  0.00  0.00    +0.140 C 
ENDROOT
BRANCH   7  10
ATOM     10  C   UNL     1       3.236  -7.837  10.375  0.00  0.00    -0.019 A 
ATOM     11  C   UNL     1       3.935  -6.661  10.677  0.00  0.00    +0.057 A 
ATOM     12  C   UNL     1       5.007  -6.704  11.545  0.00  0.00    +0.163 A 
ATOM     13  C   UNL     1       5.393  -7.914  12.120  0.00  0.00    +0.173 A 
ATOM     14  C   UNL     1       4.701  -9.081  11.822  0.00  0.00    +0.063 A 
ATOM     15  C   UNL     1       3.625  -9.048  10.960  0.00  0.00    +0.027 A 
ATOM     16 BR   UNL     1       5.232 -10.718  12.605  0.00  0.00    -0.046 Br
BRANCH  13  17
ATOM     17  O   UNL     1       6.449  -7.952  12.974  0.00  0.00    -0.503 OA
ATOM     18  H   UNL     1       6.210  -7.814  13.901  0.00  0.00    +0.292 HD
ENDBRANCH  13  17
BRANCH  12  19
ATOM     19  O   UNL     1       5.688  -5.564  11.840  0.00  0.00    -0.491 OA
ATOM     20  C   UNL     1       5.239  -4.360  11.215  0.00  0.00    +0.277 C 
ENDBRANCH  12  19
ENDBRANCH   7  10
BRANCH   1  24
ATOM     21  C   UNL     1      -1.258  -1.241   5.026  0.00  0.00    +0.059 A 
ATOM     22  C   UNL     1      -1.371  -1.569   6.382  0.00  0.00    +0.017 A 
ATOM     23  C   UNL     1      -0.334  -2.180   7.024  0.00  0.00    +0.028 A 
ATOM     24  C   UNL     1       0.843  -2.479   6.327  0.00  0.00    +0.067 A 
ATOM     25  C   UNL     1       0.955  -2.150   4.970  0.00  0.00    +0.028 A 
ATOM     26  C   UNL     1      -0.084  -1.544   4.327  0.00  0.00    +0.017 A 
BRANCH  21  27
ATOM     27  C   UNL     1      -2.378  -0.582   4.333  0.00  0.00    +0.339 C 
ATOM     28  O   UNL     1      -2.282  -0.301   3.154  0.00  0.00    -0.245 OA
BRANCH  27  29
ATOM     29  O   UNL     1      -3.509  -0.290   5.005  0.00  0.00    -0.461 OA
BRANCH  29  31
ATOM     30  C   UNL     1      -5.748   0.600   5.194  0.00  0.00    +0.048 C 
ATOM     31  C   UNL     1      -4.554   0.349   4.270  0.00  0.00    +0.229 C 
ENDBRANCH  29  31
ENDBRANCH  27  29
ENDBRANCH  21  27
ENDBRANCH   1  24
TORSDOF 7
