REMARK  Name = ZINC39834860
REMARK  12 active torsions:
REMARK  status: ('A' for Active; 'I' for Inactive)
REMARK    1  A    between atoms: C_1  and  C_2
REMARK    2  A    between atoms: C_2  and  O_3
REMARK    3  A    between atoms: O_3  and  C_4
REMARK    4  A    between atoms: C_7  and  N_10
REMARK    5  A    between atoms: N_12  and  C_32
REMARK    6  A    between atoms: C_13  and  C_16
REMARK    7  A    between atoms: C_19  and  S_22
REMARK    8  A    between atoms: S_22  and  N_25
REMARK    9  A    between atoms: C_32  and  C_33
REMARK   10  A    between atoms: C_33  and  C_34
REMARK   11  A    between atoms: C_34  and  O_35
REMARK   12  A    between atoms: O_35  and  C_36
REMARK                            x       y       z     vdW  Elec       q    Type
REMARK                         _______ _______ _______ _____ _____    ______ ____
ROOT
ATOM      1  N   UNL     1       0.865  -5.925  -2.544  0.00  0.00    -0.295 N 
ATOM      2  C   UNL     1       1.626  -6.640  -3.455  0.00  0.00    +0.143 A 
ATOM      3  N   UNL     1       2.000  -7.906  -3.420  0.00  0.00    -0.322 N 
ATOM      4  C   UNL     1       2.739  -8.432  -4.394  0.00  0.00    +0.057 A 
ATOM      5  C   UNL     1       3.116  -7.647  -5.447  0.00  0.00    +0.074 A 
ATOM      6  S   UNL     1       2.354  -6.094  -4.994  0.00  0.00    -0.062 S 
ATOM      7  H   UNL     1       0.600  -6.336  -1.706  0.00  0.00    +0.154 HD
ENDROOT
BRANCH   1  11
ATOM      8  C   UNL     1      -0.284  -2.011  -3.401  0.00  0.00    +0.121 A 
ATOM      9  C   UNL     1      -0.142  -2.932  -4.428  0.00  0.00    +0.047 A 
ATOM     10  C   UNL     1       0.239  -4.229  -4.145  0.00  0.00    +0.027 A 
ATOM     11  C   UNL     1       0.479  -4.611  -2.832  0.00  0.00    +0.033 A 
ATOM     12  C   UNL     1       0.337  -3.687  -1.804  0.00  0.00    +0.027 A 
ATOM     13  C   UNL     1      -0.039  -2.389  -2.090  0.00  0.00    +0.047 A 
BRANCH   8  14
ATOM     14  O   UNL     1      -0.659  -0.734  -3.681  0.00  0.00    -0.492 OA
BRANCH  14  16
ATOM     15  C   UNL     1      -1.305   1.056  -5.171  0.00  0.00    +0.048 C 
ATOM     16  C   UNL     1      -0.896  -0.413  -5.054  0.00  0.00    +0.225 C 
ENDBRANCH  14  16
ENDBRANCH   8  14
ENDBRANCH   1  11
BRANCH   4  17
ATOM     17  C   UNL     1       3.151  -9.856  -4.336  0.00  0.00    -0.001 A 
ATOM     18  C   UNL     1       2.298 -10.808  -3.782  0.00  0.00    +0.012 A 
ATOM     19  C   UNL     1       2.686 -12.132  -3.731  0.00  0.00    +0.029 A 
ATOM     20  C   UNL     1       3.919 -12.513  -4.229  0.00  0.00    +0.106 A 
ATOM     21  C   UNL     1       4.769 -11.572  -4.780  0.00  0.00    +0.029 A 
ATOM     22  C   UNL     1       4.389 -10.247  -4.842  0.00  0.00    +0.012 A 
BRANCH  20  23
ATOM     23  S   UNL     1       4.407 -14.205  -4.161  0.00  0.00    +0.061 S 
ATOM     24  O   UNL     1       5.828 -14.219  -4.195  0.00  0.00    -0.153 OA
ATOM     25  O   UNL     1       3.665 -14.800  -3.105  0.00  0.00    -0.153 OA
BRANCH  23  26
ATOM     26  N   UNL     1       3.893 -14.920  -5.563  0.00  0.00    -0.177 NA
ATOM     27  C   UNL     1       2.574 -15.510  -5.596  0.00  0.00    +0.109 C 
ATOM     28  C   UNL     1       2.655 -16.990  -5.146  0.00  0.00    +0.017 C 
ATOM     29  C   UNL     1       3.314 -17.803  -6.180  0.00  0.00    +0.001 C 
ATOM     30  C   UNL     1       4.763 -17.413  -6.457  0.00  0.00    +0.001 C 
ATOM     31  C   UNL     1       4.794 -16.284  -7.458  0.00  0.00    +0.017 C 
ATOM     32  C   UNL     1       4.798 -14.924  -6.729  0.00  0.00    +0.109 C 
ENDBRANCH  23  26
ENDBRANCH  20  23
ENDBRANCH   4  17
BRANCH   3  33
ATOM     33  C   UNL     1       1.595  -8.745  -2.290  0.00  0.00    +0.126 C 
BRANCH  33  34
ATOM     34  C   UNL     1       0.147  -9.199  -2.485  0.00  0.00    +0.050 C 
BRANCH  34  35
ATOM     35  C   UNL     1      -0.227 -10.197  -1.387  0.00  0.00    +0.161 C 
BRANCH  35  36
ATOM     36  O   UNL     1      -1.580 -10.620  -1.569  0.00  0.00    -0.383 OA
ATOM     37  C   UNL     1      -2.031 -11.559  -0.591  0.00  0.00    +0.193 C 
ENDBRANCH  35  36
ENDBRANCH  34  35
ENDBRANCH  33  34
ENDBRANCH   3  33
TORSDOF 10
