REMARK  Name = ZINC38651807
REMARK  10 active torsions:
REMARK  status: ('A' for Active; 'I' for Inactive)
REMARK    1  A    between atoms: C_1  and  C_2
REMARK    2  A    between atoms: C_2  and  C_3
REMARK    3  A    between atoms: C_3  and  O_4
REMARK    4  A    between atoms: O_4  and  C_5
REMARK    5  A    between atoms: C_10  and  C_11
REMARK    6  A    between atoms: C_11  and  O_13
REMARK    7  A    between atoms: O_13  and  C_14
REMARK    8  A    between atoms: C_21  and  N_34
REMARK    9  A    between atoms: C_22  and  C_32
REMARK   10  A    between atoms: C_23  and  C_25
REMARK                            x       y       z     vdW  Elec       q    Type
REMARK                         _______ _______ _______ _____ _____    ______ ____
ROOT
ATOM      1  C   UNL     1       0.245  -6.730  -0.371  0.00  0.00    +0.135 A 
ATOM      2  C   UNL     1      -0.405  -5.994   0.610  0.00  0.00    +0.047 A 
ATOM      3  C   UNL     1      -1.029  -6.640   1.658  0.00  0.00    +0.012 A 
ATOM      4  C   UNL     1      -1.009  -8.021   1.737  0.00  0.00    +0.008 A 
ATOM      5  C   UNL     1      -0.362  -8.762   0.760  0.00  0.00    +0.138 A 
ATOM      6  C   UNL     1       0.262  -8.114  -0.298  0.00  0.00    +0.093 A 
ATOM      7  O   UNL     1      -0.332 -10.116   0.820  0.00  0.00    -0.441 OA
ATOM      8  C   UNL     1      -1.225 -10.773   1.578  0.00  0.00    +0.199 C 
ATOM      9  C   UNL     1      -1.906 -10.162   2.576  0.00  0.00    +0.098 C 
ATOM     10  C   UNL     1      -1.695  -8.707   2.889  0.00  0.00    +0.098 C 
ENDROOT
BRANCH  10  11
ATOM     11  C   UNL     1      -0.843  -8.580   4.125  0.00  0.00    -0.035 A 
ATOM     12  C   UNL     1       0.440  -9.097   4.136  0.00  0.00    +0.005 A 
ATOM     13  C   UNL     1       1.222  -8.980   5.269  0.00  0.00    +0.015 A 
ATOM     14  C   UNL     1       0.722  -8.347   6.392  0.00  0.00    +0.018 A 
ATOM     15  C   UNL     1      -0.561  -7.830   6.381  0.00  0.00    +0.015 A 
ATOM     16  C   UNL     1      -1.341  -7.942   5.245  0.00  0.00    +0.005 A 
ATOM     17 BR   UNL     1       1.792  -8.187   7.943  0.00  0.00    -0.050 Br
ENDBRANCH  10  11
BRANCH   8  18
ATOM     18  N   UNL     1      -1.454 -12.105   1.335  0.00  0.00    -0.328 N 
ATOM     19  H   UNL     1      -0.974 -12.557   0.623  0.00  0.00    +0.145 HD
ATOM     20  H   UNL     1      -2.096 -12.593   1.873  0.00  0.00    +0.145 HD
ENDBRANCH   8  18
BRANCH   9  21
ATOM     21  C   UNL     1      -2.845 -10.916   3.350  0.00  0.00    +0.101 C 
ATOM     22  N   UNL     1      -3.591 -11.515   3.964  0.00  0.00    -0.191 NA
ENDBRANCH   9  21
BRANCH   1  23
ATOM     23  O   UNL     1       0.860  -6.096  -1.403  0.00  0.00    -0.422 OA
BRANCH  23  24
ATOM     24  C   UNL     1       0.237  -6.082  -2.598  0.00  0.00    +0.348 C 
ATOM     25  O   UNL     1      -0.797  -6.701  -2.752  0.00  0.00    -0.244 OA
BRANCH  24  31
ATOM     26  C   UNL     1       0.166  -5.298  -4.964  0.00  0.00    +0.134 A 
ATOM     27  C   UNL     1       0.711  -4.568  -6.010  0.00  0.00    +0.046 A 
ATOM     28  C   UNL     1       1.886  -3.867  -5.826  0.00  0.00    +0.004 A 
ATOM     29  C   UNL     1       2.530  -3.887  -4.599  0.00  0.00    +0.001 A 
ATOM     30  C   UNL     1       2.003  -4.606  -3.549  0.00  0.00    +0.018 A 
ATOM     31  C   UNL     1       0.810  -5.315  -3.719  0.00  0.00    +0.101 A 
BRANCH  26  32
ATOM     32  O   UNL     1      -0.989  -5.987  -5.143  0.00  0.00    -0.491 OA
BRANCH  32  33
ATOM     33  C   UNL     1      -1.589  -5.922  -6.439  0.00  0.00    +0.229 C 
BRANCH  33  35
ATOM     34  C   UNL     1      -3.514  -6.685  -7.836  0.00  0.00    +0.007 C 
ATOM     35  C   UNL     1      -2.872  -6.754  -6.449  0.00  0.00    +0.038 C 
ENDBRANCH  33  35
ENDBRANCH  32  33
ENDBRANCH  26  32
ENDBRANCH  24  31
ENDBRANCH  23  24
ENDBRANCH   1  23
TORSDOF 9
