REMARK  Name = ZINC63266690
REMARK  7 active torsions:
REMARK  status: ('A' for Active; 'I' for Inactive)
REMARK    1  A    between atoms: C_7  and  C_10
REMARK    2  A    between atoms: C_10  and  C_11
REMARK    3  A    between atoms: C_11  and  C_13
REMARK    4  A    between atoms: C_11  and  N_28
REMARK    5  A    between atoms: N_15  and  N_16
REMARK    6  A    between atoms: N_19  and  C_20
REMARK    7  A    between atoms: C_29  and  C_31
REMARK                            x       y       z     vdW  Elec       q    Type
REMARK                         _______ _______ _______ _____ _____    ______ ____
ROOT
ATOM      1  C   UNL     1       0.463  -3.658  -1.493  0.00  0.00    +0.165 C 
ENDROOT
BRANCH   1   2
ATOM      2  C   UNL     1      -0.380  -4.906  -1.474  0.00  0.00    +0.250 C 
ATOM      3  O   UNL     1      -1.570  -4.838  -1.699  0.00  0.00    -0.272 OA
ATOM      4  N   UNL     1       0.188  -6.099  -1.207  0.00  0.00    -0.232 N 
ATOM      5  H   UNL     1       1.139  -6.154  -1.027  0.00  0.00    +0.173 HD
BRANCH   4   6
ATOM      6  N   UNL     1      -0.596  -7.260  -1.189  0.00  0.00    -0.218 N 
ATOM      7  C   UNL     1      -0.028  -8.453  -0.922  0.00  0.00    +0.320 C 
ATOM      8  O   UNL     1      -0.708  -9.460  -0.907  0.00  0.00    -0.251 OA
ATOM      9  N   UNL     1       1.294  -8.528  -0.672  0.00  0.00    -0.268 N 
ATOM     10  H   UNL     1      -1.548  -7.205  -1.369  0.00  0.00    +0.174 HD
ATOM     11  H   UNL     1       1.849  -7.736  -0.751  0.00  0.00    +0.156 HD
BRANCH   9  12
ATOM     12  C   UNL     1       1.867  -9.750  -0.300  0.00  0.00    +0.036 A 
ATOM     13  C   UNL     1       2.913  -9.778   0.614  0.00  0.00    +0.025 A 
ATOM     14  C   UNL     1       3.477 -10.984   0.980  0.00  0.00    +0.023 A 
ATOM     15  C   UNL     1       3.002 -12.165   0.438  0.00  0.00    +0.059 A 
ATOM     16  C   UNL     1       1.960 -12.141  -0.474  0.00  0.00    +0.061 A 
ATOM     17  C   UNL     1       1.388 -10.936  -0.839  0.00  0.00    +0.044 A 
ATOM     18 CL   UNL     1       1.366 -13.624  -1.153  0.00  0.00    -0.082 Cl
ATOM     19 CL   UNL     1       3.713 -13.680   0.901  0.00  0.00    -0.082 Cl
ENDBRANCH   9  12
ENDBRANCH   4   6
ENDBRANCH   1   2
BRANCH   1  20
ATOM     20  N   UNL     1      -0.232  -2.611  -2.247  0.00  0.00    -0.299 N 
ATOM     21  C   UNL     1      -1.443  -2.180  -1.843  0.00  0.00    +0.251 C 
ATOM     22  O   UNL     1      -1.960  -2.660  -0.851  0.00  0.00    -0.270 OA
ATOM     23  H   UNL     1       0.180  -2.228  -3.038  0.00  0.00    +0.150 HD
BRANCH  21  24
ATOM     24  C   UNL     1      -2.138  -1.133  -2.598  0.00  0.00    +0.074 A 
ATOM     25  C   UNL     1      -3.372  -0.551  -2.352  0.00  0.00    +0.021 A 
ATOM     26  C   UNL     1      -3.764   0.417  -3.245  0.00  0.00    +0.008 A 
ATOM     27  C   UNL     1      -2.945   0.731  -4.278  0.00  0.00    +0.046 A 
ATOM     28  S   UNL     1      -1.612  -0.270  -4.067  0.00  0.00    -0.092 S 
ENDBRANCH  21  24
ENDBRANCH   1  20
BRANCH   1  29
ATOM     29  C   UNL     1       0.700  -3.180  -0.059  0.00  0.00    +0.065 C 
BRANCH  29  36
ATOM     30  C   UNL     1       0.001   1.355  -0.055  0.00  0.00    +0.001 A 
ATOM     31  C   UNL     1       1.184   2.106  -0.069  0.00  0.00    +0.002 A 
ATOM     32  C   UNL     1       2.408   1.538  -0.082  0.00  0.00    +0.026 A 
ATOM     33  C   UNL     1       2.544   0.122  -0.082  0.00  0.00    +0.043 A 
ATOM     34  N   UNL     1       3.600  -0.654  -0.094  0.00  0.00    -0.380 N 
ATOM     35  C   UNL     1       3.155  -2.052  -0.088  0.00  0.00    +0.144 C 
ATOM     36  C   UNL     1       1.643  -2.005  -0.070  0.00  0.00    -0.039 C 
ATOM     37  C   UNL     1       1.309  -0.694  -0.067  0.00  0.00    -0.001 A 
ATOM     38  C   UNL     1       0.017   0.002  -0.053  0.00  0.00    +0.010 A 
ATOM     39  H   UNL     1       4.523  -0.354  -0.105  0.00  0.00    +0.160 HD
ENDBRANCH  29  36
ENDBRANCH   1  29
TORSDOF 7
