REMARK  Name = ZINC15947311
REMARK  5 active torsions:
REMARK  status: ('A' for Active; 'I' for Inactive)
REMARK    1  A    between atoms: C_1  and  C_2
REMARK    2  A    between atoms: C_2  and  N_3
REMARK    3  A    between atoms: C_11  and  O_29
REMARK    4  A    between atoms: C_13  and  C_16
REMARK    5  A    between atoms: C_19  and  C_21
REMARK                            x       y       z     vdW  Elec       q    Type
REMARK                         _______ _______ _______ _____ _____    ______ ____
ROOT
ATOM      1  N   UNL     1       0.713  -0.491   1.192  0.00  0.00    +0.383 N 
ATOM      2  C   UNL     1       0.840  -1.952   1.122  0.00  0.00    -0.074 C 
ATOM      3  C   UNL     1       1.836  -2.447   2.176  0.00  0.00    +0.018 C 
ATOM      4  C   UNL     1       1.420  -1.870   3.522  0.00  0.00    -0.027 A 
ATOM      5  C   UNL     1       0.567  -0.818   3.574  0.00  0.00    -0.021 A 
ATOM      6  S   UNL     1       0.364  -0.488   5.301  0.00  0.00    -0.080 S 
ATOM      7  C   UNL     1       1.352  -1.667   5.923  0.00  0.00    +0.080 A 
ATOM      8  C   UNL     1       1.862  -2.354   4.814  0.00  0.00    +0.067 A 
ATOM      9  C   UNL     1       2.780  -3.492   5.077  0.00  0.00    +0.220 C 
ATOM     10  N   UNL     1       3.250  -3.624   6.288  0.00  0.00    -0.220 NA
ATOM     11  C   UNL     1       2.987  -2.698   7.382  0.00  0.00    +0.260 C 
ATOM     12  N   UNL     1       1.695  -2.008   7.211  0.00  0.00    -0.311 N 
ATOM     13  C   UNL     1      -0.043  -0.117   2.402  0.00  0.00    -0.035 C 
ATOM     14  H   UNL     1       1.120  -1.805   7.965  0.00  0.00    +0.149 HD
ATOM     15  H   UNL     1       1.631  -0.075   1.228  0.00  0.00    -0.081 HD
ENDROOT
BRANCH  11  16
ATOM     16  C   UNL     1       4.089  -1.671   7.433  0.00  0.00    +0.148 A 
ATOM     17  C   UNL     1       5.366  -1.869   7.052  0.00  0.00    +0.049 A 
ATOM     18  C   UNL     1       6.053  -0.657   7.264  0.00  0.00    +0.050 A 
ATOM     19  C   UNL     1       5.147   0.224   7.767  0.00  0.00    +0.135 A 
ATOM     20  O   UNL     1       3.959  -0.404   7.859  0.00  0.00    -0.456 OA
BRANCH  19  21
ATOM     21  C   UNL     1       5.419   1.627   8.143  0.00  0.00    +0.020 A 
ATOM     22  C   UNL     1       6.700   2.159   7.986  0.00  0.00    +0.031 A 
ATOM     23  C   UNL     1       6.947   3.471   8.338  0.00  0.00    +0.043 A 
ATOM     24  C   UNL     1       5.928   4.258   8.846  0.00  0.00    +0.040 A 
ATOM     25  C   UNL     1       4.655   3.736   9.004  0.00  0.00    +0.043 A 
ATOM     26  C   UNL     1       4.394   2.427   8.650  0.00  0.00    +0.031 A 
ATOM     27 CL   UNL     1       3.384   4.731   9.643  0.00  0.00    -0.083 Cl
ATOM     28 CL   UNL     1       8.540   4.134   8.145  0.00  0.00    -0.083 Cl
ENDBRANCH  19  21
ENDBRANCH  11  16
BRANCH   1  30
ATOM     29  C   UNL     1      -0.019   1.526   0.010  0.00  0.00    -0.017 C 
ATOM     30  C   UNL     1       0.002  -0.004   0.002  0.00  0.00    -0.082 C 
ENDBRANCH   1  30
BRANCH   9  31
ATOM     31  O   UNL     1       3.117  -4.361   4.096  0.00  0.00    -0.492 OA
ATOM     32  H   UNL     1       3.720  -5.061   4.382  0.00  0.00    +0.294 HD
ENDBRANCH   9  31
TORSDOF 4
