REMARK  Name = ZINC02170657
REMARK  7 active torsions:
REMARK  status: ('A' for Active; 'I' for Inactive)
REMARK    1  A    between atoms: C_4  and  O_8
REMARK    2  A    between atoms: C_5  and  N_7
REMARK    3  A    between atoms: O_8  and  C_9
REMARK    4  A    between atoms: C_9  and  C_10
REMARK    5  A    between atoms: C_10  and  O_11
REMARK    6  A    between atoms: O_11  and  C_12
REMARK    7  A    between atoms: C_17  and  N_18
REMARK                            x       y       z     vdW  Elec       q    Type
REMARK                         _______ _______ _______ _____ _____    ______ ____
ROOT
ATOM      1  C   UNL     1       4.781   0.178  -0.046  0.00  0.00    +0.270 C 
ENDROOT
BRANCH   1   2
ATOM      2  O   UNL     1       3.598  -0.622  -0.038  0.00  0.00    -0.487 OA
BRANCH   2   6
ATOM      3  C   UNL     1      -0.017   1.378   0.010  0.00  0.00    +0.002 A 
ATOM      4  C   UNL     1       1.169   2.089   0.002  0.00  0.00    +0.004 A 
ATOM      5  C   UNL     1       2.380   1.421  -0.013  0.00  0.00    +0.047 A 
ATOM      6  C   UNL     1       2.407   0.036  -0.022  0.00  0.00    +0.141 A 
ATOM      7  C   UNL     1       1.213  -0.681  -0.013  0.00  0.00    +0.067 A 
ATOM      8  C   UNL     1       0.002  -0.004   0.002  0.00  0.00    +0.026 A 
BRANCH   7   9
ATOM      9  N   UNL     1       1.235  -2.080  -0.022  0.00  0.00    -0.355 N 
ATOM     10  H   UNL     1       2.082  -2.552  -0.034  0.00  0.00    +0.142 HD
ATOM     11  H   UNL     1       0.402  -2.578  -0.017  0.00  0.00    +0.142 HD
ENDBRANCH   7   9
ENDBRANCH   2   6
ENDBRANCH   1   2
BRANCH   1  12
ATOM     12  C   UNL     1       6.012  -0.731  -0.064  0.00  0.00    +0.270 C 
BRANCH  12  13
ATOM     13  O   UNL     1       6.043  -1.465  -1.289  0.00  0.00    -0.487 OA
BRANCH  13  14
ATOM     14  C   UNL     1       7.081  -2.326  -1.467  0.00  0.00    +0.141 A 
ATOM     15  C   UNL     1       8.044  -2.466  -0.481  0.00  0.00    +0.047 A 
ATOM     16  C   UNL     1       9.098  -3.342  -0.662  0.00  0.00    +0.004 A 
ATOM     17  C   UNL     1       9.195  -4.080  -1.827  0.00  0.00    +0.002 A 
ATOM     18  C   UNL     1       8.239  -3.947  -2.816  0.00  0.00    +0.026 A 
ATOM     19  C   UNL     1       7.175  -3.075  -2.638  0.00  0.00    +0.067 A 
BRANCH  19  20
ATOM     20  N   UNL     1       6.203  -2.942  -3.636  0.00  0.00    -0.355 N 
ATOM     21  H   UNL     1       5.462  -2.328  -3.512  0.00  0.00    +0.142 HD
ATOM     22  H   UNL     1       6.269  -3.463  -4.451  0.00  0.00    +0.142 HD
ENDBRANCH  19  20
ENDBRANCH  13  14
ENDBRANCH  12  13
ENDBRANCH   1  12
TORSDOF 7
