REMARK  Name = ZINC52709128
REMARK  4 active torsions:
REMARK  status: ('A' for Active; 'I' for Inactive)
REMARK    1  A    between atoms: C_6  and  C_7
REMARK    2  A    between atoms: C_7  and  S_8
REMARK    3  A    between atoms: S_8  and  C_9
REMARK    4  A    between atoms: C_15  and  N_17
REMARK                            x       y       z     vdW  Elec       q    Type
REMARK                         _______ _______ _______ _____ _____    ______ ____
ROOT
ATOM      1  C   UNL     1      -3.307  -2.019  -1.518  0.00  0.00    +0.171 A 
ATOM      2  N   UNL     1      -3.978  -2.425  -2.632  0.00  0.00    -0.302 N 
ATOM      3  H   UNL     1      -3.631  -2.207  -3.512  0.00  0.00    +0.171 HD
ATOM      4  C   UNL     1      -5.122  -3.129  -2.515  0.00  0.00    +0.254 A 
ATOM      5  O   UNL     1      -5.730  -3.497  -3.508  0.00  0.00    -0.268 OA
ATOM      6  C   UNL     1      -5.601  -3.432  -1.236  0.00  0.00    +0.113 A 
ATOM      7  C   UNL     1      -4.881  -2.995  -0.133  0.00  0.00    +0.124 A 
ATOM      8  N   UNL     1      -3.749  -2.304  -0.311  0.00  0.00    -0.209 NA
ENDROOT
BRANCH   7   9
ATOM      9  N   UNL     1      -5.328  -3.277   1.142  0.00  0.00    -0.343 N 
ATOM     10  H   UNL     1      -6.147  -3.782   1.268  0.00  0.00    +0.144 HD
ATOM     11  H   UNL     1      -4.823  -2.972   1.911  0.00  0.00    +0.144 HD
ENDBRANCH   7   9
BRANCH   1  12
ATOM     12  S   UNL     1      -1.814  -1.100  -1.696  0.00  0.00    -0.083 S 
BRANCH  12  13
ATOM     13  C   UNL     1      -1.282  -0.793   0.011  0.00  0.00    +0.112 C 
BRANCH  13  19
ATOM     14  C   UNL     1      -0.017   1.383   0.010  0.00  0.00    +0.024 A 
ATOM     15  C   UNL     1       1.180   2.073   0.002  0.00  0.00    +0.113 A 
ATOM     16  N   UNL     1       2.331   1.429  -0.013  0.00  0.00    -0.244 NA
ATOM     17  C   UNL     1       2.388   0.110  -0.020  0.00  0.00    +0.129 A 
ATOM     18  C   UNL     1       1.230  -0.647  -0.014  0.00  0.00    +0.044 A 
ATOM     19  C   UNL     1       0.002  -0.004   0.002  0.00  0.00    -0.033 A 
ATOM     20 CL   UNL     1       3.932  -0.683  -0.039  0.00  0.00    -0.062 Cl
ENDBRANCH  13  19
ENDBRANCH  12  13
ENDBRANCH   1  12
TORSDOF 4
