REMARK  Name = ZINC39675446
REMARK  11 active torsions:
REMARK  status: ('A' for Active; 'I' for Inactive)
REMARK    1  A    between atoms: C_1  and  C_2
REMARK    2  A    between atoms: C_5  and  C_9
REMARK    3  A    between atoms: C_6  and  C_8
REMARK    4  A    between atoms: C_13  and  C_22
REMARK    5  A    between atoms: N_24  and  C_25
REMARK    6  A    between atoms: C_25  and  C_27
REMARK    7  A    between atoms: C_25  and  C_28
REMARK    8  A    between atoms: C_28  and  C_29
REMARK    9  A    between atoms: C_29  and  C_30
REMARK   10  A    between atoms: C_33  and  O_36
REMARK   11  A    between atoms: O_36  and  C_37
REMARK                            x       y       z     vdW  Elec       q    Type
REMARK                         _______ _______ _______ _____ _____    ______ ____
ROOT
ATOM      1  C   UNL     1       0.059  -4.406   0.060  0.00  0.00    +0.247 C 
ATOM      2  O   UNL     1       0.236  -4.971   1.121  0.00  0.00    -0.270 OA
ATOM      3  N   UNL     1      -0.080  -5.125  -1.072  0.00  0.00    -0.296 N 
ATOM      4  C   UNL     1      -0.199  -4.619  -2.460  0.00  0.00    +0.121 C 
ATOM      5  C   UNL     1       0.633  -5.607  -3.308  0.00  0.00    +0.100 C 
ATOM      6  C   UNL     1       0.662  -6.905  -2.483  0.00  0.00    -0.004 C 
ATOM      7  C   UNL     1      -0.141  -6.599  -1.210  0.00  0.00    +0.115 C 
ATOM      8  C   UNL     1       2.098  -7.268  -2.119  0.00  0.00    -0.010 C 
ATOM      9  C   UNL     1       2.105  -8.591  -1.348  0.00  0.00    -0.082 C 
ATOM     10  N   UNL     1       1.508  -9.646  -2.177  0.00  0.00    +0.379 N 
ATOM     11  C   UNL     1       0.099  -9.333  -2.445  0.00  0.00    -0.082 C 
ATOM     12  C   UNL     1       0.007  -8.041  -3.262  0.00  0.00    -0.010 C 
ATOM     13  H   UNL     1       2.009  -9.710  -3.050  0.00  0.00    -0.086 HD
ATOM     14  H   UNL     1       1.569 -10.528  -1.691  0.00  0.00    -0.086 HD
ENDROOT
BRANCH   1  19
ATOM     15  C   UNL     1      -0.187   1.340  -0.133  0.00  0.00    +0.044 C 
ATOM     16  C   UNL     1      -0.123  -0.165  -0.083  0.00  0.00    -0.050 A 
ATOM     17  C   UNL     1       0.729  -0.847  -0.934  0.00  0.00    +0.004 A 
ATOM     18  C   UNL     1       0.793  -2.224  -0.892  0.00  0.00    +0.013 A 
ATOM     19  C   UNL     1      -0.004  -2.930   0.011  0.00  0.00    +0.040 A 
ATOM     20  C   UNL     1      -0.861  -2.236   0.866  0.00  0.00    -0.038 A 
ATOM     21  C   UNL     1      -0.911  -0.858   0.818  0.00  0.00    +0.007 A 
ATOM     22  C   UNL     1      -1.725  -2.990   1.844  0.00  0.00    +0.044 C 
ENDBRANCH   1  19
BRANCH   5  23
ATOM     23  C   UNL     1      -0.031  -5.844  -4.640  0.00  0.00    +0.218 C 
ATOM     24  O   UNL     1      -1.240  -5.833  -4.725  0.00  0.00    -0.275 OA
ATOM     25  N   UNL     1       0.720  -6.069  -5.736  0.00  0.00    -0.312 N 
ATOM     26  H   UNL     1       1.687  -6.078  -5.668  0.00  0.00    +0.149 HD
BRANCH  25  27
ATOM     27  C   UNL     1       0.074  -6.299  -7.031  0.00  0.00    +0.070 C 
ATOM     28  C   UNL     1      -0.231  -4.954  -7.695  0.00  0.00    +0.028 C 
BRANCH  27  29
ATOM     29  C   UNL     1       1.009  -7.110  -7.930  0.00  0.00    +0.026 C 
BRANCH  29  30
ATOM     30  C   UNL     1       1.215  -8.502  -7.327  0.00  0.00    +0.037 C 
BRANCH  30  31
ATOM     31  C   UNL     1       2.136  -9.301  -8.213  0.00  0.00    -0.047 A 
ATOM     32  C   UNL     1       1.614 -10.069  -9.237  0.00  0.00    +0.007 A 
ATOM     33  C   UNL     1       2.456 -10.803 -10.050  0.00  0.00    +0.046 A 
ATOM     34  C   UNL     1       3.826 -10.769  -9.838  0.00  0.00    +0.120 A 
ATOM     35  C   UNL     1       4.348  -9.997  -8.810  0.00  0.00    +0.046 A 
ATOM     36  C   UNL     1       3.502  -9.261  -8.003  0.00  0.00    +0.007 A 
BRANCH  34  37
ATOM     37  O   UNL     1       4.657 -11.491 -10.636  0.00  0.00    -0.495 OA
ATOM     38  C   UNL     1       6.056 -11.408 -10.359  0.00  0.00    +0.277 C 
ENDBRANCH  34  37
ENDBRANCH  30  31
ENDBRANCH  29  30
ENDBRANCH  27  29
ENDBRANCH  25  27
ENDBRANCH   5  23
TORSDOF 7
