REMARK  Name = ZINC36546444
REMARK  12 active torsions:
REMARK  status: ('A' for Active; 'I' for Inactive)
REMARK    1  A    between atoms: C_1  and  C_2
REMARK    2  A    between atoms: C_2  and  C_3
REMARK    3  A    between atoms: C_2  and  C_4
REMARK    4  A    between atoms: C_2  and  N_5
REMARK    5  A    between atoms: C_6  and  C_8
REMARK    6  A    between atoms: C_8  and  C_10
REMARK    7  A    between atoms: C_8  and  N_16
REMARK    8  A    between atoms: N_16  and  C_17
REMARK    9  A    between atoms: C_24  and  C_26
REMARK   10  A    between atoms: C_26  and  C_27
REMARK   11  A    between atoms: C_26  and  C_33
REMARK   12  A    between atoms: C_26  and  O_39
REMARK                            x       y       z     vdW  Elec       q    Type
REMARK                         _______ _______ _______ _____ _____    ______ ____
ROOT
ATOM      1  N   UNL     1       3.975  -0.237  -2.360  0.00  0.00    -0.255 N 
ATOM      2  C   UNL     1       4.182   0.694  -3.313  0.00  0.00    +0.261 C 
ATOM      3  O   UNL     1       3.276   1.019  -4.050  0.00  0.00    -0.271 OA
ENDROOT
BRANCH   1   4
ATOM      4  C   UNL     1       5.021  -0.612  -1.510  0.00  0.00    +0.055 A 
ATOM      5  C   UNL     1       5.832  -1.691  -1.837  0.00  0.00    +0.025 A 
ATOM      6  C   UNL     1       6.864  -2.059  -0.996  0.00  0.00    +0.002 A 
ATOM      7  C   UNL     1       7.090  -1.355   0.173  0.00  0.00    +0.002 A 
ATOM      8  C   UNL     1       6.285  -0.280   0.503  0.00  0.00    +0.022 A 
ATOM      9  C   UNL     1       5.255   0.097  -0.338  0.00  0.00    +0.062 A 
ATOM     10 CL   UNL     1       4.249   1.451   0.073  0.00  0.00    -0.082 Cl
ENDBRANCH   1   4
BRANCH   1  11
ATOM     11  C   UNL     1       2.655  -0.856  -2.216  0.00  0.00    +0.170 C 
BRANCH  11  12
ATOM     12  C   UNL     1       2.757  -2.352  -2.523  0.00  0.00    +0.019 C 
ATOM     13  C   UNL     1       3.188  -2.545  -3.979  0.00  0.00    +0.006 C 
ATOM     14  C   UNL     1       3.290  -4.040  -4.286  0.00  0.00    +0.000 C 
ATOM     15  C   UNL     1       1.927  -4.700  -4.066  0.00  0.00    +0.000 C 
ATOM     16  C   UNL     1       1.496  -4.507  -2.610  0.00  0.00    +0.000 C 
ATOM     17  C   UNL     1       1.395  -3.011  -2.303  0.00  0.00    +0.006 C 
ENDBRANCH  11  12
BRANCH  11  19
ATOM     18  N   UNL     1       0.880  -0.321  -0.579  0.00  0.00    -0.309 N 
ATOM     19  C   UNL     1       2.163  -0.666  -0.804  0.00  0.00    +0.235 C 
ATOM     20  O   UNL     1       2.922  -0.823   0.129  0.00  0.00    -0.274 OA
ATOM     21  H   UNL     1       0.292  -0.127  -1.325  0.00  0.00    +0.149 HD
BRANCH  18  23
ATOM     22  C   UNL     1       1.179   0.801   1.574  0.00  0.00    +0.031 C 
ATOM     23  C   UNL     1       0.374  -0.240   0.794  0.00  0.00    +0.026 C 
ATOM     24  C   UNL     1       0.514  -1.606   1.470  0.00  0.00    +0.031 C 
ATOM     25  C   UNL     1      -1.101   0.168   0.770  0.00  0.00    +0.031 C 
ENDBRANCH  18  23
ENDBRANCH  11  19
ENDBRANCH   1  11
BRANCH   2  26
ATOM     26  C   UNL     1       5.540   1.331  -3.461  0.00  0.00    +0.193 C 
BRANCH  26  27
ATOM     27  C   UNL     1       6.460   0.387  -4.192  0.00  0.00    -0.003 A 
ATOM     28  C   UNL     1       5.947  -0.497  -5.122  0.00  0.00    +0.007 A 
ATOM     29  C   UNL     1       6.791  -1.363  -5.792  0.00  0.00    +0.000 A 
ATOM     30  C   UNL     1       8.149  -1.344  -5.532  0.00  0.00    +0.000 A 
ATOM     31  C   UNL     1       8.662  -0.459  -4.602  0.00  0.00    +0.000 A 
ATOM     32  C   UNL     1       7.818   0.410  -3.935  0.00  0.00    +0.007 A 
ENDBRANCH  26  27
BRANCH  26  33
ATOM     33  C   UNL     1       5.410   2.612  -4.244  0.00  0.00    -0.003 A 
ATOM     34  C   UNL     1       5.700   3.822  -3.642  0.00  0.00    +0.007 A 
ATOM     35  C   UNL     1       5.582   4.998  -4.359  0.00  0.00    +0.000 A 
ATOM     36  C   UNL     1       5.173   4.963  -5.680  0.00  0.00    +0.000 A 
ATOM     37  C   UNL     1       4.884   3.753  -6.282  0.00  0.00    +0.000 A 
ATOM     38  C   UNL     1       5.007   2.578  -5.566  0.00  0.00    +0.007 A 
ENDBRANCH  26  33
BRANCH  26  39
ATOM     39  O   UNL     1       6.077   1.615  -2.168  0.00  0.00    -0.371 OA
ATOM     40  H   UNL     1       5.535   2.218  -1.641  0.00  0.00    +0.212 HD
ENDBRANCH  26  39
ENDBRANCH   2  26
TORSDOF 9
