REMARK  Name = ZINC44879824
REMARK  10 active torsions:
REMARK  status: ('A' for Active; 'I' for Inactive)
REMARK    1  A    between atoms: C_1  and  C_2
REMARK    2  A    between atoms: N_7  and  C_9
REMARK    3  A    between atoms: C_9  and  C_10
REMARK    4  A    between atoms: C_13  and  C_16
REMARK    5  A    between atoms: C_16  and  N_17
REMARK    6  A    between atoms: C_18  and  C_20
REMARK    7  A    between atoms: C_20  and  N_21
REMARK    8  A    between atoms: C_25  and  C_37
REMARK    9  A    between atoms: C_37  and  C_38
REMARK   10  A    between atoms: C_37  and  C_39
REMARK                            x       y       z     vdW  Elec       q    Type
REMARK                         _______ _______ _______ _____ _____    ______ ____
ROOT
ATOM      1  N   UNL     1       1.359  -8.702   0.903  0.00  0.00    -0.310 N 
ATOM      2  C   UNL     1       1.347 -10.021   0.628  0.00  0.00    +0.232 C 
ATOM      3  O   UNL     1       1.901 -10.802   1.373  0.00  0.00    -0.274 OA
ATOM      4  H   UNL     1       0.917  -8.078   0.306  0.00  0.00    +0.149 HD
ENDROOT
BRANCH   1   5
ATOM      5  C   UNL     1       2.042  -8.210   2.102  0.00  0.00    +0.139 C 
BRANCH   5   9
ATOM      6  C   UNL     1       1.666  -3.960   2.315  0.00  0.00    -0.064 A 
ATOM      7  C   UNL     1       0.713  -4.769   2.905  0.00  0.00    +0.002 A 
ATOM      8  C   UNL     1       0.834  -6.144   2.837  0.00  0.00    +0.005 A 
ATOM      9  C   UNL     1       1.909  -6.711   2.177  0.00  0.00    -0.030 A 
ATOM     10  C   UNL     1       2.861  -5.902   1.585  0.00  0.00    +0.005 A 
ATOM     11  C   UNL     1       2.737  -4.527   1.651  0.00  0.00    +0.002 A 
BRANCH   6  12
ATOM     12  C   UNL     1       1.534  -2.461   2.390  0.00  0.00    -0.043 C 
BRANCH  12  18
ATOM     13  C   UNL     1      -0.019   1.526   0.010  0.00  0.00    +0.005 C 
ATOM     14  C   UNL     1       0.002  -0.004   0.002  0.00  0.00    -0.031 C 
ATOM     15  C   UNL     1      -1.434  -0.535   0.015  0.00  0.00    -0.001 C 
ATOM     16  C   UNL     1      -1.402  -2.064   0.086  0.00  0.00    -0.018 C 
ATOM     17  C   UNL     1      -0.613  -2.496   1.324  0.00  0.00    -0.078 C 
ATOM     18  N   UNL     1       0.758  -1.980   1.239  0.00  0.00    +0.383 N 
ATOM     19  C   UNL     1       0.740  -0.512   1.242  0.00  0.00    -0.075 C 
ATOM     20  H   UNL     1       1.188  -2.307   0.386  0.00  0.00    -0.081 HD
ENDBRANCH  12  18
ENDBRANCH   6  12
ENDBRANCH   5   9
ENDBRANCH   1   5
BRANCH   2  21
ATOM     21  C   UNL     1       0.645 -10.527  -0.606  0.00  0.00    +0.227 C 
BRANCH  21  22
ATOM     22  N   UNL     1       0.774 -11.985  -0.678  0.00  0.00    -0.194 N 
ATOM     23  C   UNL     1       1.907 -12.582  -1.244  0.00  0.00    +0.060 A 
ATOM     24  C   UNL     1       2.556 -11.916  -2.278  0.00  0.00    +0.025 A 
ATOM     25  C   UNL     1       3.675 -12.468  -2.868  0.00  0.00    +0.006 A 
ATOM     26  C   UNL     1       4.156 -13.691  -2.432  0.00  0.00    -0.044 A 
ATOM     27  C   UNL     1       3.523 -14.361  -1.408  0.00  0.00    +0.014 A 
ATOM     28  C   UNL     1       2.388 -13.814  -0.800  0.00  0.00    +0.007 A 
ATOM     29  C   UNL     1       1.750 -14.577   0.299  0.00  0.00    +0.011 A 
ATOM     30  C   UNL     1       2.455 -15.603   0.931  0.00  0.00    +0.010 A 
ATOM     31  C   UNL     1       1.862 -16.317   1.952  0.00  0.00    +0.001 A 
ATOM     32  C   UNL     1       0.572 -16.024   2.355  0.00  0.00    +0.002 A 
ATOM     33  C   UNL     1      -0.135 -15.006   1.735  0.00  0.00    +0.029 A 
ATOM     34  C   UNL     1       0.452 -14.290   0.718  0.00  0.00    +0.116 A 
ATOM     35  S   UNL     1      -0.418 -12.983  -0.084  0.00  0.00    +0.076 S 
ATOM     36  O   UNL     1      -1.102 -12.257   0.928  0.00  0.00    -0.150 OA
ATOM     37  O   UNL     1      -1.080 -13.554  -1.204  0.00  0.00    -0.150 OA
BRANCH  26  38
ATOM     38  C   UNL     1       5.376 -14.292  -3.081  0.00  0.00    +0.013 C 
ATOM     39  C   UNL     1       5.108 -14.508  -4.571  0.00  0.00    +0.012 C 
ATOM     40  C   UNL     1       6.564 -13.343  -2.908  0.00  0.00    +0.012 C 
ENDBRANCH  26  38
ENDBRANCH  21  22
ENDBRANCH   2  21
TORSDOF 7
