REMARK  Name = ZINC43218681
REMARK  5 active torsions:
REMARK  status: ('A' for Active; 'I' for Inactive)
REMARK    1  A    between atoms: C_1  and  C_2
REMARK    2  A    between atoms: C_2  and  C_30
REMARK    3  A    between atoms: C_7  and  C_10
REMARK    4  A    between atoms: N_18  and  C_21
REMARK    5  A    between atoms: C_25  and  N_27
REMARK                            x       y       z     vdW  Elec       q    Type
REMARK                         _______ _______ _______ _____ _____    ______ ____
ROOT
ATOM      1  C   UNL     1      -0.041   1.539  -0.058  0.00  0.00    +0.002 C 
ATOM      2  C   UNL     1      -0.029   0.009  -0.059  0.00  0.00    +0.045 C 
ATOM      3  C   UNL     1       0.802  -0.521  -1.246  0.00  0.00    +0.086 C 
ATOM      4  C   UNL     1       2.219  -0.768  -0.660  0.00  0.00    +0.078 C 
ATOM      5  C   UNL     1       2.113  -0.349   0.821  0.00  0.00    -0.020 C 
ATOM      6  N   UNL     1       0.666  -0.504   1.148  0.00  0.00    +0.396 N 
ATOM      7  C   UNL     1       2.380  -2.268  -0.757  0.00  0.00    +0.229 C 
ATOM      8  O   UNL     1       3.357  -2.893  -0.403  0.00  0.00    -0.275 OA
ATOM      9  N   UNL     1       1.276  -2.800  -1.294  0.00  0.00    -0.210 N 
ATOM     10  C   UNL     1       0.315  -1.904  -1.617  0.00  0.00    +0.229 C 
ATOM     11  O   UNL     1      -0.760  -2.157  -2.117  0.00  0.00    -0.275 OA
ATOM     12  H   UNL     1       0.429   0.053   1.955  0.00  0.00    -0.083 HD
ATOM     13  H   UNL     1       0.432  -1.473   1.305  0.00  0.00    -0.083 HD
ENDROOT
BRANCH   5  14
ATOM     14  C   UNL     1       2.936  -1.268   1.687  0.00  0.00    -0.022 A 
ATOM     15  C   UNL     1       4.169  -1.069   2.212  0.00  0.00    +0.011 A 
ATOM     16  C   UNL     1       4.737  -2.063   2.986  0.00  0.00    +0.028 A 
ATOM     17  C   UNL     1       4.042  -3.209   3.197  0.00  0.00    +0.078 A 
ATOM     18  S   UNL     1       2.534  -2.898   2.293  0.00  0.00    -0.083 S 
ATOM     19 CL   UNL     1       4.498  -4.611   4.114  0.00  0.00    -0.076 Cl
ENDBRANCH   5  14
BRANCH   9  20
ATOM     20  C   UNL     1       1.126  -4.177  -1.512  0.00  0.00    +0.046 A 
ATOM     21  C   UNL     1       0.186  -4.898  -0.788  0.00  0.00    +0.024 A 
ATOM     22  C   UNL     1       0.040  -6.254  -1.005  0.00  0.00    +0.004 A 
ATOM     23  C   UNL     1       0.830  -6.894  -1.943  0.00  0.00    +0.033 A 
ATOM     24  C   UNL     1       1.767  -6.179  -2.665  0.00  0.00    +0.128 A 
ATOM     25  C   UNL     1       1.913  -4.821  -2.457  0.00  0.00    +0.056 A 
BRANCH  24  26
ATOM     26  N   UNL     1       2.610  -6.867  -3.668  0.00  0.00    +0.056 N 
ATOM     27  O   UNL     1       2.480  -8.055  -3.855  0.00  0.00    -0.126 OA
ATOM     28  O   UNL     1       3.430  -6.243  -4.300  0.00  0.00    -0.126 OA
ENDBRANCH  24  26
ENDBRANCH   9  20
BRANCH   2  29
ATOM     29  C   UNL     1      -1.437  -0.525  -0.122  0.00  0.00    +0.346 C 
ATOM     30  O   UNL     1      -2.150  -0.258  -1.074  0.00  0.00    -0.248 OA
ATOM     31  O   UNL     1      -1.864  -1.226   0.781  0.00  0.00    -0.248 OA
ENDBRANCH   2  29
TORSDOF 4
