REMARK  Name = ZINC39467152
REMARK  6 active torsions:
REMARK  status: ('A' for Active; 'I' for Inactive)
REMARK    1  A    between atoms: C_1  and  O_2
REMARK    2  A    between atoms: O_2  and  C_3
REMARK    3  A    between atoms: P_12  and  C_28
REMARK    4  A    between atoms: C_20  and  C_21
REMARK    5  A    between atoms: C_26  and  O_27
REMARK    6  A    between atoms: C_33  and  O_34
REMARK                            x       y       z     vdW  Elec       q    Type
REMARK                         _______ _______ _______ _____ _____    ______ ____
ROOT
ATOM      1  C   UNL     1       0.606  -0.607  -1.056  0.00  0.00    +0.124 C 
ATOM      2  C   UNL     1       1.152   0.127  -2.025  0.00  0.00    +0.023 C 
ATOM      3  C   UNL     1       1.827  -0.547  -3.188  0.00  0.00    +0.019 C 
ATOM      4  C   UNL     1       2.859   0.382  -3.812  0.00  0.00    -0.002 C 
ATOM      5  C   UNL     1       3.967  -0.413  -4.517  0.00  0.00    -0.020 C 
ATOM      6  C   UNL     1       4.473   0.495  -5.648  0.00  0.00    +0.157 C 
ATOM      7  O   UNL     1       5.543  -0.143  -6.362  0.00  0.00    -0.316 OA
ATOM      8  P   UNL     1       5.285  -1.662  -6.889  0.00  0.00    +0.291 P 
ATOM      9  O   UNL     1       6.573  -2.348  -7.132  0.00  0.00    -0.269 OA
ATOM     10  N   UNL     1       4.464  -2.399  -5.664  0.00  0.00    -0.288 NA
ATOM     11  N   UNL     1       3.470  -1.685  -5.026  0.00  0.00    +0.398 N 
ATOM     12  C   UNL     1       3.032  -2.585  -3.947  0.00  0.00    -0.046 C 
ATOM     13  C   UNL     1       2.537  -1.814  -2.716  0.00  0.00    +0.005 C 
ATOM     14  C   UNL     1       1.582  -2.667  -1.923  0.00  0.00    -0.013 C 
ATOM     15  C   UNL     1       0.667  -2.085  -1.136  0.00  0.00    +0.023 C 
ATOM     16  H   UNL     1       4.672  -3.311  -5.408  0.00  0.00    +0.111 HD
ATOM     17  H   UNL     1       2.702  -1.518  -5.658  0.00  0.00    -0.055 HD
ENDROOT
BRANCH  15  18
ATOM     18  C   UNL     1      -0.282  -2.916  -0.357  0.00  0.00    +0.027 A 
ATOM     19  C   UNL     1       0.149  -3.580   0.790  0.00  0.00    +0.012 A 
ATOM     20  C   UNL     1      -0.738  -4.352   1.512  0.00  0.00    +0.001 A 
ATOM     21  C   UNL     1      -2.054  -4.470   1.102  0.00  0.00    +0.004 A 
ATOM     22  C   UNL     1      -2.492  -3.817  -0.035  0.00  0.00    +0.046 A 
ATOM     23  C   UNL     1      -1.614  -3.033  -0.766  0.00  0.00    +0.125 A 
BRANCH  23  24
ATOM     24  O   UNL     1      -2.044  -2.386  -1.880  0.00  0.00    -0.506 OA
ATOM     25  H   UNL     1      -1.956  -2.901  -2.693  0.00  0.00    +0.292 HD
ENDBRANCH  23  24
ENDBRANCH  15  18
BRANCH   8  26
ATOM     26  C   UNL     1       4.286  -1.644  -8.403  0.00  0.00    +0.091 A 
ATOM     27  C   UNL     1       2.907  -1.690  -8.322  0.00  0.00    +0.018 A 
ATOM     28  C   UNL     1       2.145  -1.677  -9.476  0.00  0.00    +0.001 A 
ATOM     29  C   UNL     1       2.760  -1.617 -10.713  0.00  0.00    +0.004 A 
ATOM     30  C   UNL     1       4.138  -1.570 -10.799  0.00  0.00    +0.046 A 
ATOM     31  C   UNL     1       4.905  -1.578  -9.642  0.00  0.00    +0.131 A 
BRANCH  31  32
ATOM     32  O   UNL     1       6.261  -1.527  -9.724  0.00  0.00    -0.506 OA
ATOM     33  H   UNL     1       6.684  -2.394  -9.779  0.00  0.00    +0.292 HD
ENDBRANCH  31  32
ENDBRANCH   8  26
BRANCH   1  35
ATOM     34  C   UNL     1      -0.017   1.425   0.010  0.00  0.00    +0.277 C 
ATOM     35  O   UNL     1       0.002  -0.004   0.002  0.00  0.00    -0.495 OA
ENDBRANCH   1  35
TORSDOF 5
