REMARK  Name = ZINC59947007
REMARK  10 active torsions:
REMARK  status: ('A' for Active; 'I' for Inactive)
REMARK    1  A    between atoms: C_2  and  C_10
REMARK    2  A    between atoms: C_3  and  O_9
REMARK    3  A    between atoms: N_11  and  C_12
REMARK    4  A    between atoms: C_12  and  C_13
REMARK    5  A    between atoms: C_13  and  S_14
REMARK    6  A    between atoms: S_14  and  S_15
REMARK    7  A    between atoms: S_15  and  C_16
REMARK    8  A    between atoms: C_16  and  C_17
REMARK    9  A    between atoms: C_17  and  N_18
REMARK   10  A    between atoms: C_19  and  C_20
REMARK                            x       y       z     vdW  Elec       q    Type
REMARK                         _______ _______ _______ _____ _____    ______ ____
ROOT
ATOM      1  S   UNL     1       2.811   7.891   1.731  0.00  0.00    -0.091 S 
ENDROOT
BRANCH   1   2
ATOM      2  C   UNL     1       2.845   6.083   1.589  0.00  0.00    +0.102 C 
BRANCH   2   3
ATOM      3  C   UNL     1       2.290   5.668   0.225  0.00  0.00    +0.123 C 
BRANCH   3   5
ATOM      4  C   UNL     1       1.211   3.545   0.019  0.00  0.00    +0.090 C 
ATOM      5  N   UNL     1       2.318   4.208   0.110  0.00  0.00    -0.389 N 
ATOM      6  H   UNL     1       3.167   3.739   0.102  0.00  0.00    +0.159 HD
BRANCH   4   8
ATOM      7  C   UNL     1       0.035   1.351   0.035  0.00  0.00    +0.033 A 
ATOM      8  C   UNL     1       1.232   2.071   0.017  0.00  0.00    +0.035 A 
ATOM      9  C   UNL     1       2.454   1.385  -0.005  0.00  0.00    +0.144 A 
ATOM     10  C   UNL     1       2.463  -0.003  -0.008  0.00  0.00    +0.084 A 
ATOM     11  C   UNL     1       1.272  -0.703   0.010  0.00  0.00    +0.043 A 
ATOM     12  C   UNL     1       0.062  -0.028   0.032  0.00  0.00    +0.043 A 
ATOM     13 CL   UNL     1      -1.427  -0.921   0.056  0.00  0.00    -0.083 Cl
ATOM     14 CL   UNL     1       3.972  -0.859  -0.036  0.00  0.00    -0.080 Cl
BRANCH   9  15
ATOM     15  O   UNL     1       3.623   2.074  -0.024  0.00  0.00    -0.505 OA
ATOM     16  H   UNL     1       3.977   2.273   0.854  0.00  0.00    +0.292 HD
ENDBRANCH   9  15
ENDBRANCH   4   8
ENDBRANCH   3   5
ENDBRANCH   2   3
ENDBRANCH   1   2
BRANCH   1  17
ATOM     17  S   UNL     1       0.815   8.340   1.873  0.00  0.00    -0.091 S 
BRANCH  17  18
ATOM     18  C   UNL     1       0.447   8.151   3.639  0.00  0.00    +0.102 C 
BRANCH  18  19
ATOM     19  C   UNL     1       1.121   9.278   4.424  0.00  0.00    +0.123 C 
BRANCH  19  20
ATOM     20  N   UNL     1       0.824   9.125   5.850  0.00  0.00    -0.389 N 
ATOM     21  C   UNL     1       1.813   8.862   6.717  0.00  0.00    +0.090 C 
ATOM     22  H   UNL     1      -0.088   9.215   6.168  0.00  0.00    +0.159 HD
BRANCH  21  23
ATOM     23  C   UNL     1       1.518   8.612   8.060  0.00  0.00    +0.040 A 
ATOM     24  C   UNL     1       0.144   8.743   8.562  0.00  0.00    +0.206 A 
ATOM     25  C   UNL     1      -0.102   8.480   9.921  0.00  0.00    +0.090 A 
ATOM     26  C   UNL     1       0.922   8.113  10.741  0.00  0.00    +0.044 A 
ATOM     27  C   UNL     1       2.226   7.989  10.266  0.00  0.00    +0.043 A 
ATOM     28  C   UNL     1       2.532   8.223   8.962  0.00  0.00    +0.033 A 
ATOM     29 CL   UNL     1       3.487   7.518  11.362  0.00  0.00    -0.083 Cl
ATOM     30 CL   UNL     1      -1.712   8.624  10.555  0.00  0.00    -0.080 Cl
ATOM     31  O   UNL     1      -0.766   9.074   7.814  0.00  0.00    -0.286 OA
ENDBRANCH  21  23
ENDBRANCH  19  20
ENDBRANCH  18  19
ENDBRANCH  17  18
ENDBRANCH   1  17
TORSDOF 10
