REMARK  Name = ZINC62794465
REMARK  5 active torsions:
REMARK  status: ('A' for Active; 'I' for Inactive)
REMARK    1  A    between atoms: C_1  and  C_2
REMARK    2  A    between atoms: N_5  and  C_11
REMARK    3  A    between atoms: C_6  and  C_10
REMARK    4  A    between atoms: C_14  and  C_18
REMARK    5  A    between atoms: N_19  and  O_20
REMARK                            x       y       z     vdW  Elec       q    Type
REMARK                         _______ _______ _______ _____ _____    ______ ____
ROOT
ATOM      1  C   UNL     1       0.509  -2.803  -2.191  0.00  0.00    +0.049 A 
ATOM      2  C   UNL     1       1.419  -3.134  -3.188  0.00  0.00    +0.025 A 
ATOM      3  C   UNL     1       1.042  -3.970  -4.217  0.00  0.00    +0.013 A 
ATOM      4  C   UNL     1      -0.255  -4.484  -4.257  0.00  0.00    +0.019 A 
ATOM      5  C   UNL     1      -1.167  -4.151  -3.254  0.00  0.00    +0.033 A 
ATOM      6  C   UNL     1      -0.783  -3.319  -2.224  0.00  0.00    +0.063 A 
ATOM      7 CL   UNL     1      -1.914  -2.909  -0.973  0.00  0.00    -0.082 Cl
ENDROOT
BRANCH   1  11
ATOM      8  C   UNL     1      -0.019   1.526   0.010  0.00  0.00    +0.039 C 
ATOM      9  C   UNL     1       0.002  -0.004   0.002  0.00  0.00    +0.132 C 
ATOM     10  C   UNL     1       0.722  -0.499  -1.258  0.00  0.00    +0.136 C 
ATOM     11  N   UNL     1       0.894  -1.957  -1.151  0.00  0.00    -0.321 N 
ATOM     12  C   UNL     1       1.483  -2.495   0.085  0.00  0.00    +0.096 C 
ATOM     13  C   UNL     1       0.726  -1.903   1.280  0.00  0.00    +0.182 C 
ATOM     14  O   UNL     1       0.695  -0.479   1.159  0.00  0.00    -0.373 OA
ATOM     15  C   UNL     1       1.353  -4.020   0.097  0.00  0.00    +0.030 C 
ENDBRANCH   1  11
BRANCH   4  16
ATOM     16  C   UNL     1      -0.662  -5.381  -5.361  0.00  0.00    +0.162 C 
ATOM     17  N   UNL     1       0.189  -5.691  -6.295  0.00  0.00    -0.072 NA
ATOM     18  N   UNL     1      -1.950  -5.891  -5.399  0.00  0.00    -0.340 N 
ATOM     19  H   UNL     1      -2.584  -5.660  -4.703  0.00  0.00    +0.144 HD
ATOM     20  H   UNL     1      -2.217  -6.479  -6.123  0.00  0.00    +0.144 HD
BRANCH  17  21
ATOM     21  O   UNL     1      -0.202  -6.549  -7.352  0.00  0.00    -0.408 OA
ATOM     22  H   UNL     1       0.498  -6.721  -7.997  0.00  0.00    +0.328 HD
ENDBRANCH  17  21
ENDBRANCH   4  16
TORSDOF 3
