REMARK  Name = ZINC12501371
REMARK  9 active torsions:
REMARK  status: ('A' for Active; 'I' for Inactive)
REMARK    1  A    between atoms: C_4  and  O_36
REMARK    2  A    between atoms: C_5  and  C_7
REMARK    3  A    between atoms: C_7  and  C_9
REMARK    4  A    between atoms: C_12  and  C_15
REMARK    5  A    between atoms: C_15  and  O_17
REMARK    6  A    between atoms: O_17  and  C_18
REMARK    7  A    between atoms: C_24  and  N_26
REMARK    8  A    between atoms: C_27  and  C_29
REMARK    9  A    between atoms: C_32  and  O_35
REMARK                            x       y       z     vdW  Elec       q    Type
REMARK                         _______ _______ _______ _____ _____    ______ ____
ROOT
ATOM      1  C   UNL     1       6.382   5.890  -0.325  0.00  0.00    +0.195 C 
ATOM      2  C   UNL     1       6.831   6.156   1.086  0.00  0.00    +0.044 C 
ATOM      3  C   UNL     1       8.367   6.003   1.158  0.00  0.00    -0.015 C 
ATOM      4  C   UNL     1       9.049   7.167   0.604  0.00  0.00    -0.082 C 
ATOM      5  C   UNL     1       7.497   8.112  -0.941  0.00  0.00    -0.056 C 
ATOM      6  C   UNL     1       6.302   7.169  -1.184  0.00  0.00    +0.097 C 
ATOM      7  N   UNL     1       8.740   7.389  -0.824  0.00  0.00    +0.380 N 
ATOM      8  H   UNL     1       8.655   6.484  -1.301  0.00  0.00    -0.086 HD
ATOM      9  H   UNL     1       9.495   7.934  -1.257  0.00  0.00    -0.086 HD
ENDROOT
BRANCH   6  10
ATOM     10  N   UNL     1       5.063   7.881  -0.863  0.00  0.00    -0.307 N 
ATOM     11  C   UNL     1       4.506   8.708  -1.770  0.00  0.00    +0.244 C 
ATOM     12  O   UNL     1       5.032   8.863  -2.855  0.00  0.00    -0.270 OA
ATOM     13  H   UNL     1       4.643   7.757   0.003  0.00  0.00    +0.149 HD
BRANCH  11  14
ATOM     14  C   UNL     1       3.257   9.425  -1.446  0.00  0.00    +0.037 A 
ATOM     15  C   UNL     1       2.647   9.243  -0.202  0.00  0.00    +0.016 A 
ATOM     16  C   UNL     1       1.486   9.919   0.098  0.00  0.00    +0.046 A 
ATOM     17  C   UNL     1       0.913  10.771  -0.839  0.00  0.00    +0.117 A 
ATOM     18  C   UNL     1       1.513  10.950  -2.079  0.00  0.00    +0.046 A 
ATOM     19  C   UNL     1       2.678  10.283  -2.385  0.00  0.00    +0.016 A 
BRANCH  17  20
ATOM     20  O   UNL     1      -0.236  11.430  -0.541  0.00  0.00    -0.507 OA
ATOM     21  H   UNL     1      -1.039  10.947  -0.780  0.00  0.00    +0.292 HD
ENDBRANCH  17  20
ENDBRANCH  11  14
ENDBRANCH   6  10
BRANCH   1  22
ATOM     22  O   UNL     1       5.070   5.269  -0.289  0.00  0.00    -0.456 OA
BRANCH  22  23
ATOM     23  C   UNL     1       5.031   3.929  -0.161  0.00  0.00    +0.340 C 
ATOM     24  O   UNL     1       6.064   3.296  -0.081  0.00  0.00    -0.245 OA
BRANCH  23  28
ATOM     25  C   UNL     1       1.288   1.913  -0.034  0.00  0.00    +0.022 A 
ATOM     26  C   UNL     1       1.329   3.302  -0.173  0.00  0.00    +0.012 A 
ATOM     27  C   UNL     1       2.541   3.955  -0.208  0.00  0.00    +0.015 A 
ATOM     28  C   UNL     1       3.729   3.228  -0.117  0.00  0.00    +0.059 A 
ATOM     29  C   UNL     1       3.689   1.839   0.017  0.00  0.00    +0.015 A 
ATOM     30  C   UNL     1       2.476   1.186   0.058  0.00  0.00    +0.012 A 
BRANCH  25  31
ATOM     31  C   UNL     1      -0.014   1.211   0.009  0.00  0.00    +0.197 C 
ATOM     32  O   UNL     1      -0.950   1.625  -0.649  0.00  0.00    -0.287 OA
BRANCH  31  37
ATOM     33  C   UNL     1       0.686  -1.503   2.503  0.00  0.00    +0.001 A 
ATOM     34  C   UNL     1      -0.489  -2.236   2.444  0.00  0.00    +0.004 A 
ATOM     35  C   UNL     1      -1.510  -1.854   1.597  0.00  0.00    +0.046 A 
ATOM     36  C   UNL     1      -1.369  -0.727   0.801  0.00  0.00    +0.128 A 
ATOM     37  C   UNL     1      -0.179   0.015   0.854  0.00  0.00    +0.064 A 
ATOM     38  C   UNL     1       0.847  -0.384   1.716  0.00  0.00    +0.015 A 
BRANCH  36  39
ATOM     39  O   UNL     1      -2.373  -0.348  -0.027  0.00  0.00    -0.506 OA
ATOM     40  H   UNL     1      -2.324  -0.738  -0.910  0.00  0.00    +0.292 HD
ENDBRANCH  36  39
ENDBRANCH  31  37
ENDBRANCH  25  31
ENDBRANCH  23  28
ENDBRANCH  22  23
ENDBRANCH   1  22
TORSDOF 9
