REMARK  Name = ZINC43463905
REMARK  6 active torsions:
REMARK  status: ('A' for Active; 'I' for Inactive)
REMARK    1  A    between atoms: C_2  and  C_23
REMARK    2  A    between atoms: C_5  and  C_7
REMARK    3  A    between atoms: C_12  and  O_18
REMARK    4  A    between atoms: C_12  and  C_19
REMARK    5  A    between atoms: C_28  and  O_34
REMARK    6  A    between atoms: C_28  and  C_35
REMARK                            x       y       z     vdW  Elec       q    Type
REMARK                         _______ _______ _______ _____ _____    ______ ____
ROOT
ATOM      1  C   UNL     1       0.071   1.392  -1.216  0.00  0.00    +0.008 A 
ATOM      2  C   UNL     1       1.190   2.060  -0.703  0.00  0.00    -0.025 A 
ATOM      3  C   UNL     1       2.356   1.344  -0.401  0.00  0.00    +0.008 A 
ATOM      4  C   UNL     1       2.400  -0.004  -0.605  0.00  0.00    +0.008 A 
ATOM      5  C   UNL     1       1.281  -0.672  -1.117  0.00  0.00    -0.025 A 
ATOM      6  C   UNL     1       0.116   0.044  -1.421  0.00  0.00    +0.008 A 
ENDROOT
BRANCH   5   7
ATOM      7  C   UNL     1       1.329  -2.125  -1.338  0.00  0.00    +0.013 C 
ATOM      8  C   UNL     1       2.044  -2.910  -0.506  0.00  0.00    -0.022 C 
ATOM      9  C   UNL     1       2.285  -4.342  -0.753  0.00  0.00    +0.093 C 
ATOM     10  N   UNL     1       2.062  -5.100  -1.751  0.00  0.00    -0.085 NA
ATOM     11  O   UNL     1       2.415  -6.450  -1.491  0.00  0.00    -0.348 OA
ATOM     12  C   UNL     1       2.495  -6.606  -0.054  0.00  0.00    +0.340 C 
ATOM     13  C   UNL     1       2.867  -5.179   0.392  0.00  0.00    +0.125 C 
ATOM     14  C   UNL     1       2.086  -4.754   1.633  0.00  0.00    +0.017 C 
ATOM     15  C   UNL     1       2.311  -3.286   1.960  0.00  0.00    +0.006 C 
ATOM     16  C   UNL     1       2.684  -2.404   0.775  0.00  0.00    +0.037 C 
BRANCH  12  17
ATOM     17  C   UNL     1       1.143  -7.027   0.527  0.00  0.00    +0.459 C 
ATOM     18  F   UNL     1       0.769  -8.263  -0.011  0.00  0.00    -0.164 F 
ATOM     19  F   UNL     1       1.248  -7.135   1.918  0.00  0.00    -0.164 F 
ATOM     20  F   UNL     1       0.178  -6.067   0.205  0.00  0.00    -0.164 F 
ENDBRANCH  12  17
BRANCH  12  21
ATOM     21  O   UNL     1       3.517  -7.538   0.304  0.00  0.00    -0.347 OA
ATOM     22  H   UNL     1       3.373  -8.430  -0.040  0.00  0.00    +0.214 HD
ENDBRANCH  12  21
ENDBRANCH   5   7
BRANCH   2  23
ATOM     23  C   UNL     1       1.142   3.513  -0.482  0.00  0.00    +0.013 C 
ATOM     24  C   UNL     1       0.002   4.093  -0.055  0.00  0.00    -0.022 C 
ATOM     25  C   UNL     1      -0.187   5.551   0.015  0.00  0.00    +0.093 C 
ATOM     26  N   UNL     1       0.505   6.537  -0.396  0.00  0.00    -0.085 NA
ATOM     27  O   UNL     1      -0.065   7.785  -0.030  0.00  0.00    -0.348 OA
ATOM     28  C   UNL     1      -0.990   7.535   1.054  0.00  0.00    +0.340 C 
ATOM     29  C   UNL     1      -1.411   6.081   0.772  0.00  0.00    +0.125 C 
ATOM     30  C   UNL     1      -1.475   5.254   2.055  0.00  0.00    +0.017 C 
ATOM     31  C   UNL     1      -1.703   3.780   1.760  0.00  0.00    +0.006 C 
ATOM     32  C   UNL     1      -1.217   3.305   0.395  0.00  0.00    +0.037 C 
BRANCH  28  33
ATOM     33  C   UNL     1      -0.290   7.652   2.409  0.00  0.00    +0.459 C 
ATOM     34  F   UNL     1       0.205   8.950   2.569  0.00  0.00    -0.164 F 
ATOM     35  F   UNL     1      -1.204   7.372   3.431  0.00  0.00    -0.164 F 
ATOM     36  F   UNL     1       0.768   6.739   2.468  0.00  0.00    -0.164 F 
ENDBRANCH  28  33
BRANCH  28  37
ATOM     37  O   UNL     1      -2.112   8.417   0.982  0.00  0.00    -0.347 OA
ATOM     38  H   UNL     1      -1.883   9.353   1.056  0.00  0.00    +0.214 HD
ENDBRANCH  28  37
ENDBRANCH   2  23
TORSDOF 6
