REMARK  Name = ZINC39600291
REMARK  8 active torsions:
REMARK  status: ('A' for Active; 'I' for Inactive)
REMARK    1  A    between atoms: C_1  and  C_2
REMARK    2  A    between atoms: C_2  and  C_3
REMARK    3  A    between atoms: C_3  and  C_5
REMARK    4  A    between atoms: C_3  and  C_6
REMARK    5  A    between atoms: C_10  and  C_19
REMARK    6  A    between atoms: N_21  and  C_22
REMARK    7  A    between atoms: C_22  and  C_23
REMARK    8  A    between atoms: C_25  and  C_30
REMARK                            x       y       z     vdW  Elec       q    Type
REMARK                         _______ _______ _______ _____ _____    ______ ____
ROOT
ATOM      1  C   UNL     1      -1.374  -1.931   0.442  0.00  0.00    +0.218 C 
ATOM      2  O   UNL     1      -0.371  -2.566   0.689  0.00  0.00    -0.275 OA
ATOM      3  N   UNL     1      -2.548  -2.567   0.264  0.00  0.00    -0.300 N 
ATOM      4  C   UNL     1      -3.844  -1.982  -0.154  0.00  0.00    +0.121 C 
ATOM      5  C   UNL     1      -4.454  -3.030  -1.112  0.00  0.00    +0.100 C 
ATOM      6  C   UNL     1      -3.790  -4.359  -0.715  0.00  0.00    -0.004 C 
ATOM      7  C   UNL     1      -2.834  -4.012   0.435  0.00  0.00    +0.115 C 
ATOM      8  C   UNL     1      -4.844  -5.356  -0.245  0.00  0.00    -0.010 C 
ATOM      9  C   UNL     1      -4.167  -6.688   0.089  0.00  0.00    -0.082 C 
ATOM     10  N   UNL     1      -3.476  -7.200  -1.101  0.00  0.00    +0.379 N 
ATOM     11  C   UNL     1      -2.402  -6.279  -1.491  0.00  0.00    -0.082 C 
ATOM     12  C   UNL     1      -3.005  -4.929  -1.892  0.00  0.00    -0.010 C 
ATOM     13  H   UNL     1      -3.082  -8.106  -0.896  0.00  0.00    -0.086 HD
ATOM     14  H   UNL     1      -4.135  -7.287  -1.859  0.00  0.00    -0.086 HD
ENDROOT
BRANCH   5  15
ATOM     15  C   UNL     1      -4.129  -2.685  -2.543  0.00  0.00    +0.218 C 
ATOM     16  O   UNL     1      -3.142  -2.028  -2.799  0.00  0.00    -0.275 OA
ATOM     17  N   UNL     1      -4.935  -3.106  -3.538  0.00  0.00    -0.311 N 
ATOM     18  H   UNL     1      -5.724  -3.632  -3.333  0.00  0.00    +0.149 HD
BRANCH  17  19
ATOM     19  C   UNL     1      -4.619  -2.771  -4.928  0.00  0.00    +0.139 C 
BRANCH  19  20
ATOM     20  C   UNL     1      -5.668  -3.357  -5.837  0.00  0.00    -0.027 A 
ATOM     21  C   UNL     1      -5.507  -4.633  -6.346  0.00  0.00    +0.017 A 
ATOM     22  C   UNL     1      -6.469  -5.172  -7.179  0.00  0.00    +0.058 A 
ATOM     23  C   UNL     1      -7.592  -4.436  -7.507  0.00  0.00    +0.050 A 
ATOM     24  C   UNL     1      -7.754  -3.158  -6.999  0.00  0.00    +0.124 A 
ATOM     25  C   UNL     1      -6.793  -2.622  -6.158  0.00  0.00    +0.043 A 
ATOM     26  F   UNL     1      -8.851  -2.437  -7.318  0.00  0.00    -0.205 F 
BRANCH  22  27
ATOM     27  C   UNL     1      -6.293  -6.563  -7.732  0.00  0.00    +0.418 C 
ATOM     28  F   UNL     1      -6.868  -7.489  -6.856  0.00  0.00    -0.166 F 
ATOM     29  F   UNL     1      -6.918  -6.651  -8.981  0.00  0.00    -0.166 F 
ATOM     30  F   UNL     1      -4.928  -6.839  -7.873  0.00  0.00    -0.166 F 
ENDBRANCH  22  27
ENDBRANCH  19  20
ENDBRANCH  17  19
ENDBRANCH   5  15
BRANCH   1  31
ATOM     31  C   UNL     1      -1.306  -0.429   0.333  0.00  0.00    +0.072 C 
ATOM     32  C   UNL     1       0.038  -0.021  -0.273  0.00  0.00    +0.017 C 
BRANCH  31  34
ATOM     33  C   UNL     1      -1.504   1.714   1.602  0.00  0.00    +0.004 C 
ATOM     34  C   UNL     1      -1.448   0.190   1.725  0.00  0.00    +0.009 C 
ENDBRANCH  31  34
ENDBRANCH   1  31
TORSDOF 6
