REMARK  Name = ZINC39677629
REMARK  7 active torsions:
REMARK  status: ('A' for Active; 'I' for Inactive)
REMARK    1  A    between atoms: C_1  and  C_2
REMARK    2  A    between atoms: C_2  and  C_3
REMARK    3  A    between atoms: C_6  and  C_9
REMARK    4  A    between atoms: C_13  and  C_22
REMARK    5  A    between atoms: N_24  and  C_25
REMARK    6  A    between atoms: C_25  and  C_26
REMARK    7  A    between atoms: C_29  and  C_31
REMARK                            x       y       z     vdW  Elec       q    Type
REMARK                         _______ _______ _______ _____ _____    ______ ____
ROOT
ATOM      1  C   UNL     1       2.791  -1.915   4.667  0.00  0.00    +0.247 C 
ATOM      2  O   UNL     1       3.970  -2.201   4.599  0.00  0.00    -0.270 OA
ATOM      3  N   UNL     1       2.128  -2.063   5.832  0.00  0.00    -0.296 N 
ATOM      4  C   UNL     1       0.677  -1.892   6.079  0.00  0.00    +0.121 C 
ATOM      5  C   UNL     1       0.312  -3.027   7.062  0.00  0.00    +0.100 C 
ATOM      6  C   UNL     1       1.634  -3.376   7.766  0.00  0.00    -0.004 C 
ATOM      7  C   UNL     1       2.685  -2.439   7.153  0.00  0.00    +0.115 C 
ATOM      8  C   UNL     1       1.515  -3.129   9.267  0.00  0.00    -0.010 C 
ATOM      9  C   UNL     1       2.821  -3.538   9.952  0.00  0.00    -0.082 C 
ATOM     10  N   UNL     1       3.090  -4.957   9.690  0.00  0.00    +0.379 N 
ATOM     11  C   UNL     1       3.295  -5.170   8.252  0.00  0.00    -0.082 C 
ATOM     12  C   UNL     1       2.009  -4.830   7.495  0.00  0.00    -0.010 C 
ATOM     13  H   UNL     1       3.919  -5.239  10.192  0.00  0.00    -0.086 HD
ATOM     14  H   UNL     1       2.306  -5.510  10.002  0.00  0.00    -0.086 HD
ENDROOT
BRANCH   1  18
ATOM     15  C   UNL     1       0.757  -0.451   1.237  0.00  0.00    -0.048 A 
ATOM     16  C   UNL     1       1.888  -1.234   1.086  0.00  0.00    +0.004 A 
ATOM     17  C   UNL     1       2.553  -1.713   2.196  0.00  0.00    +0.013 A 
ATOM     18  C   UNL     1       2.083  -1.405   3.474  0.00  0.00    +0.037 A 
ATOM     19  C   UNL     1       0.942  -0.615   3.619  0.00  0.00    +0.013 A 
ATOM     20  C   UNL     1       0.290  -0.138   2.501  0.00  0.00    +0.004 A 
BRANCH  15  22
ATOM     21  C   UNL     1       0.620   1.426  -0.378  0.00  0.00    +0.009 C 
ATOM     22  C   UNL     1       0.036   0.069   0.021  0.00  0.00    +0.032 C 
ENDBRANCH  15  22
ENDBRANCH   1  18
BRANCH   5  23
ATOM     23  C   UNL     1      -0.217  -4.222   6.311  0.00  0.00    +0.218 C 
ATOM     24  O   UNL     1       0.232  -4.500   5.219  0.00  0.00    -0.275 OA
ATOM     25  N   UNL     1      -1.190  -4.982   6.853  0.00  0.00    -0.310 N 
ATOM     26  H   UNL     1      -1.549  -4.759   7.726  0.00  0.00    +0.149 HD
BRANCH  25  27
ATOM     27  C   UNL     1      -1.704  -6.143   6.123  0.00  0.00    +0.146 C 
BRANCH  27  28
ATOM     28  C   UNL     1      -2.776  -6.816   6.941  0.00  0.00    +0.007 A 
ATOM     29  C   UNL     1      -4.116  -6.590   6.943  0.00  0.00    +0.013 A 
ATOM     30  C   UNL     1      -4.919  -7.330   7.782  0.00  0.00    +0.018 A 
ATOM     31  C   UNL     1      -4.338  -8.273   8.588  0.00  0.00    +0.038 A 
ATOM     32  S   UNL     1      -2.614  -8.120   8.149  0.00  0.00    -0.090 S 
BRANCH  31  33
ATOM     33  C   UNL     1      -4.972  -9.184   9.562  0.00  0.00    +0.078 A 
ATOM     34  C   UNL     1      -4.184 -10.075  10.293  0.00  0.00    +0.029 A 
ATOM     35  C   UNL     1      -4.794 -10.921  11.202  0.00  0.00    +0.004 A 
ATOM     36  C   UNL     1      -6.173 -10.850  11.352  0.00  0.00    +0.020 A 
ATOM     37  C   UNL     1      -6.893  -9.944  10.596  0.00  0.00    +0.111 A 
ATOM     38  N   UNL     1      -6.289  -9.145   9.740  0.00  0.00    -0.254 NA
ENDBRANCH  31  33
ENDBRANCH  27  28
ENDBRANCH  25  27
ENDBRANCH   5  23
TORSDOF 6
