REMARK  Name = ZINC09666367
REMARK  9 active torsions:
REMARK  status: ('A' for Active; 'I' for Inactive)
REMARK    1  A    between atoms: C_1  and  N_2
REMARK    2  A    between atoms: C_6  and  C_8
REMARK    3  A    between atoms: C_8  and  C_10
REMARK    4  A    between atoms: C_8  and  S_16
REMARK    5  A    between atoms: S_16  and  C_17
REMARK    6  A    between atoms: C_20  and  C_30
REMARK    7  A    between atoms: N_21  and  C_22
REMARK    8  A    between atoms: C_22  and  C_23
REMARK    9  A    between atoms: C_23  and  C_24
REMARK                            x       y       z     vdW  Elec       q    Type
REMARK                         _______ _______ _______ _____ _____    ______ ____
ROOT
ATOM      1  C   UNL     1       3.873   1.975   2.707  0.00  0.00    +0.193 A 
ATOM      2  N   UNL     1       3.983   0.682   2.498  0.00  0.00    -0.122 NA
ATOM      3  N   UNL     1       3.951   0.050   3.617  0.00  0.00    -0.128 NA
ATOM      4  C   UNL     1       3.810   0.899   4.608  0.00  0.00    +0.168 A 
ATOM      5  N   UNL     1       3.756   2.158   4.056  0.00  0.00    -0.302 N 
ENDROOT
BRANCH   4   6
ATOM      6  C   UNL     1       3.724   0.565   6.045  0.00  0.00    +0.054 A 
ATOM      7  C   UNL     1       4.506   1.255   6.973  0.00  0.00    +0.014 A 
ATOM      8  C   UNL     1       4.422   0.939   8.313  0.00  0.00    +0.001 A 
ATOM      9  C   UNL     1       3.564  -0.059   8.740  0.00  0.00    +0.003 A 
ATOM     10  C   UNL     1       2.786  -0.748   7.828  0.00  0.00    +0.039 A 
ATOM     11  C   UNL     1       2.856  -0.439   6.482  0.00  0.00    +0.134 A 
ATOM     12  F   UNL     1       2.091  -1.108   5.593  0.00  0.00    -0.205 F 
ENDBRANCH   4   6
BRANCH   1  13
ATOM     13  S   UNL     1       3.871   3.236   1.477  0.00  0.00    -0.068 S 
BRANCH  13  14
ATOM     14  C   UNL     1       4.063   2.224  -0.011  0.00  0.00    +0.170 C 
BRANCH  14  20
ATOM     15  C   UNL     1       5.583   3.838  -5.726  0.00  0.00    +0.129 C 
ATOM     16  N   UNL     1       5.439   2.966  -4.557  0.00  0.00    -0.302 N 
ATOM     17  C   UNL     1       4.891   3.444  -3.423  0.00  0.00    +0.306 C 
ATOM     18  O   UNL     1       4.516   4.599  -3.369  0.00  0.00    -0.252 OA
ATOM     19  N   UNL     1       4.759   2.642  -2.348  0.00  0.00    -0.239 N 
ATOM     20  C   UNL     1       4.211   3.121  -1.213  0.00  0.00    +0.238 C 
ATOM     21  O   UNL     1       3.837   4.273  -1.159  0.00  0.00    -0.274 OA
ATOM     22  H   UNL     1       5.738   2.044  -4.600  0.00  0.00    +0.150 HD
ATOM     23  H   UNL     1       5.058   1.720  -2.391  0.00  0.00    +0.159 HD
ENDBRANCH  14  20
BRANCH  14  24
ATOM     24  C   UNL     1       2.849   1.349  -0.184  0.00  0.00    -0.025 A 
ATOM     25  C   UNL     1       1.599   1.921  -0.327  0.00  0.00    +0.005 A 
ATOM     26  C   UNL     1       0.485   1.119  -0.485  0.00  0.00    +0.000 A 
ATOM     27  C   UNL     1       0.620  -0.257  -0.499  0.00  0.00    +0.000 A 
ATOM     28  C   UNL     1       1.870  -0.830  -0.355  0.00  0.00    +0.000 A 
ATOM     29  C   UNL     1       2.984  -0.027  -0.197  0.00  0.00    +0.005 A 
ENDBRANCH  14  24
ENDBRANCH  13  14
ENDBRANCH   1  13
BRANCH   5  30
ATOM     30  C   UNL     1       3.604   3.430   4.766  0.00  0.00    +0.130 C 
BRANCH  30  31
ATOM     31  C   UNL     1       2.116   3.740   4.945  0.00  0.00    +0.057 C 
BRANCH  31  32
ATOM     32  C   UNL     1       1.960   5.049   5.676  0.00  0.00    -0.046 A 
ATOM     33  C   UNL     1       1.887   5.065   7.056  0.00  0.00    +0.004 A 
ATOM     34  C   UNL     1       1.749   6.266   7.727  0.00  0.00    +0.000 A 
ATOM     35  C   UNL     1       1.673   7.450   7.017  0.00  0.00    +0.000 A 
ATOM     36  C   UNL     1       1.741   7.433   5.636  0.00  0.00    +0.000 A 
ATOM     37  C   UNL     1       1.885   6.233   4.966  0.00  0.00    +0.004 A 
ENDBRANCH  31  32
ENDBRANCH  30  31
ENDBRANCH   5  30
TORSDOF 8
