REMARK  Name = ZINC11769298
REMARK  6 active torsions:
REMARK  status: ('A' for Active; 'I' for Inactive)
REMARK    1  A    between atoms: C_5  and  C_7
REMARK    2  A    between atoms: C_7  and  N_52
REMARK    3  A    between atoms: C_13  and  C_15
REMARK    4  A    between atoms: C_15  and  C_16
REMARK    5  A    between atoms: N_18  and  C_19
REMARK    6  A    between atoms: C_19  and  C_20
REMARK                            x       y       z     vdW  Elec       q    Type
REMARK                         _______ _______ _______ _____ _____    ______ ____
ROOT
ATOM      1  C   UNL     1     -10.808   1.745  -2.776  0.00  0.00    -0.058 C 
ATOM      2  C   UNL     1     -11.030   1.601  -4.282  0.00  0.00    +0.085 C 
ATOM      3  N   UNL     1     -10.206   2.567  -5.004  0.00  0.00    -0.318 N 
ATOM      4  C   UNL     1      -9.153   3.179  -4.453  0.00  0.00    +0.200 C 
ATOM      5  O   UNL     1      -8.504   3.945  -5.134  0.00  0.00    -0.278 OA
ATOM      6  C   UNL     1      -8.738   2.956  -3.026  0.00  0.00    +0.028 C 
ATOM      7  H   UNL     1     -10.434   2.774  -5.924  0.00  0.00    +0.149 HD
ATOM      8  N   UNL     1      -9.354   1.714  -2.522  0.00  0.00    +0.391 N 
ATOM      9  H   UNL     1      -8.944   0.912  -3.016  0.00  0.00    -0.080 HD
ENDROOT
BRANCH   8  10
ATOM     10  C   UNL     1      -9.093   1.571  -1.072  0.00  0.00    -0.039 C 
BRANCH  10  15
ATOM     11  C   UNL     1     -10.896  -1.424   0.353  0.00  0.00    +0.000 A 
ATOM     12  C   UNL     1      -9.988  -2.437   0.107  0.00  0.00    +0.003 A 
ATOM     13  C   UNL     1      -8.790  -2.155  -0.520  0.00  0.00    +0.038 A 
ATOM     14  C   UNL     1      -8.499  -0.856  -0.903  0.00  0.00    +0.125 A 
ATOM     15  C   UNL     1      -9.409   0.158  -0.656  0.00  0.00    -0.029 A 
ATOM     16  C   UNL     1     -10.604  -0.126  -0.023  0.00  0.00    +0.004 A 
ATOM     17  F   UNL     1      -7.328  -0.578  -1.516  0.00  0.00    -0.205 F 
ENDBRANCH  10  15
ENDBRANCH   8  10
BRANCH   6  18
ATOM     18  C   UNL     1      -7.216   2.822  -2.954  0.00  0.00    +0.089 C 
BRANCH  18  19
ATOM     19  C   UNL     1      -6.779   1.623  -3.755  0.00  0.00    +0.212 C 
ATOM     20  O   UNL     1      -7.609   0.885  -4.244  0.00  0.00    -0.276 OA
ATOM     21  N   UNL     1      -5.467   1.370  -3.929  0.00  0.00    -0.310 N 
ATOM     22  H   UNL     1      -4.803   1.960  -3.539  0.00  0.00    +0.149 HD
BRANCH  21  23
ATOM     23  C   UNL     1      -5.043   0.204  -4.708  0.00  0.00    +0.157 C 
BRANCH  23  24
ATOM     24  C   UNL     1      -3.537   0.149  -4.751  0.00  0.00    +0.034 A 
ATOM     25  C   UNL     1      -2.776   0.649  -5.737  0.00  0.00    +0.032 A 
ATOM     26  C   UNL     1      -1.380   0.385  -5.377  0.00  0.00    +0.001 A 
ATOM     27  C   UNL     1      -0.153   0.650  -5.989  0.00  0.00    +0.030 A 
ATOM     28  C   UNL     1       1.006   0.257  -5.381  0.00  0.00    +0.042 A 
ATOM     29  C   UNL     1       0.974  -0.408  -4.162  0.00  0.00    +0.022 A 
ATOM     30  C   UNL     1      -0.226  -0.683  -3.544  0.00  0.00    +0.027 A 
ATOM     31  C   UNL     1      -1.419  -0.292  -4.144  0.00  0.00    +0.047 A 
ATOM     32  N   UNL     1      -2.744  -0.417  -3.791  0.00  0.00    -0.357 N 
ATOM     33  H   UNL     1      -3.067  -0.843  -2.981  0.00  0.00    +0.166 HD
ATOM     34 CL   UNL     1       2.532   0.592  -6.138  0.00  0.00    -0.084 Cl
ENDBRANCH  23  24
ENDBRANCH  21  23
ENDBRANCH  18  19
ENDBRANCH   6  18
TORSDOF 6
