REMARK  Name = ZINC15972501
REMARK  5 active torsions:
REMARK  status: ('A' for Active; 'I' for Inactive)
REMARK    1  A    between atoms: C_13  and  C_16
REMARK    2  A    between atoms: C_16  and  C_17
REMARK    3  A    between atoms: C_17  and  C_18
REMARK    4  A    between atoms: N_23  and  C_26
REMARK    5  A    between atoms: C_26  and  C_27
REMARK                            x       y       z     vdW  Elec       q    Type
REMARK                         _______ _______ _______ _____ _____    ______ ____
ROOT
ATOM      1  C   UNL     1      -0.017   1.379   0.010  0.00  0.00    +0.017 A 
ATOM      2  C   UNL     1       1.165   2.092   0.002  0.00  0.00    +0.025 A 
ATOM      3  C   UNL     1       2.386   1.423  -0.013  0.00  0.00    +0.039 A 
ATOM      4  C   UNL     1       2.393   0.031  -0.018  0.00  0.00    +0.004 A 
ATOM      5  C   UNL     1       1.213  -0.676  -0.012  0.00  0.00    +0.023 A 
ATOM      6  C   UNL     1       0.002  -0.004   0.002  0.00  0.00    +0.018 A 
ATOM      7 BR   UNL     1      -1.621  -0.974   0.011  0.00  0.00    -0.050 Br
ATOM      8  C   UNL     1       3.841  -0.372  -0.028  0.00  0.00    +0.136 C 
ATOM      9  C   UNL     1       4.180  -1.229  -1.253  0.00  0.00    +0.122 C 
ATOM     10  C   UNL     1       5.227  -2.255  -0.736  0.00  0.00    +0.107 C 
ATOM     11  C   UNL     1       5.417  -1.907   0.756  0.00  0.00    +0.068 C 
ATOM     12  N   UNL     1       4.181  -1.194   1.148  0.00  0.00    -0.295 NA
ATOM     13  C   UNL     1       6.477  -1.894  -1.507  0.00  0.00    +0.227 C 
ATOM     14  O   UNL     1       7.547  -2.455  -1.408  0.00  0.00    -0.275 OA
ATOM     15  N   UNL     1       6.218  -0.860  -2.316  0.00  0.00    -0.239 N 
ATOM     16  C   UNL     1       4.947  -0.402  -2.260  0.00  0.00    +0.228 C 
ATOM     17  O   UNL     1       4.490   0.517  -2.904  0.00  0.00    -0.275 OA
ATOM     18  C   UNL     1       4.607   0.922  -0.033  0.00  0.00    +0.243 C 
ATOM     19  O   UNL     1       5.814   1.050  -0.044  0.00  0.00    -0.273 OA
ATOM     20  N   UNL     1       3.695   1.913  -0.024  0.00  0.00    -0.283 N 
ATOM     21  H   UNL     1       4.334  -0.616   1.961  0.00  0.00    +0.123 HD
ATOM     22  H   UNL     1       3.920   2.857  -0.026  0.00  0.00    +0.155 HD
ENDROOT
BRANCH  11  23
ATOM     23  C   UNL     1       5.601  -3.183   1.580  0.00  0.00    +0.028 C 
BRANCH  23  24
ATOM     24  C   UNL     1       5.912  -2.812   3.032  0.00  0.00    +0.097 C 
BRANCH  24  25
ATOM     25  C   UNL     1       6.093  -4.069   3.843  0.00  0.00    +0.211 C 
ATOM     26  O   UNL     1       5.985  -5.154   3.313  0.00  0.00    -0.276 OA
ATOM     27  N   UNL     1       6.375  -3.987   5.159  0.00  0.00    -0.329 N 
ATOM     28  H   UNL     1       6.462  -3.119   5.583  0.00  0.00    +0.145 HD
ATOM     29  H   UNL     1       6.492  -4.796   5.681  0.00  0.00    +0.145 HD
ENDBRANCH  24  25
ENDBRANCH  23  24
ENDBRANCH  11  23
BRANCH  15  30
ATOM     30  C   UNL     1       7.229  -0.272  -3.198  0.00  0.00    +0.148 C 
BRANCH  30  31
ATOM     31  C   UNL     1       7.199  -0.982  -4.553  0.00  0.00    +0.136 C 
ATOM     32  C   UNL     1       8.340  -0.451  -5.448  0.00  0.00    +0.035 C 
ATOM     33  C   UNL     1       7.661  -0.386  -6.843  0.00  0.00    +0.031 C 
ATOM     34  C   UNL     1       6.213  -0.004  -6.448  0.00  0.00    +0.160 C 
ATOM     35  O   UNL     1       5.960  -0.706  -5.218  0.00  0.00    -0.375 OA
ENDBRANCH  30  31
ENDBRANCH  15  30
TORSDOF 5
