REMARK  Name = ZINC36507258
REMARK  20 active torsions:
REMARK  status: ('A' for Active; 'I' for Inactive)
REMARK    1  A    between atoms: C_1  and  C_2
REMARK    2  A    between atoms: C_2  and  C_3
REMARK    3  A    between atoms: C_3  and  C_4
REMARK    4  A    between atoms: C_4  and  C_5
REMARK    5  A    between atoms: N_7  and  C_8
REMARK    6  A    between atoms: N_7  and  C_14
REMARK    7  A    between atoms: C_8  and  C_9
REMARK    8  A    between atoms: C_14  and  C_16
REMARK    9  A    between atoms: C_14  and  C_25
REMARK   10  A    between atoms: C_17  and  O_24
REMARK   11  A    between atoms: C_19  and  O_23
REMARK   12  A    between atoms: C_21  and  O_22
REMARK   13  A    between atoms: N_27  and  C_28
REMARK   14  A    between atoms: C_28  and  C_29
REMARK   15  A    between atoms: C_28  and  C_30
REMARK   16  A    between atoms: C_28  and  C_31
REMARK   17  A    between atoms: C_31  and  C_32
REMARK   18  A    between atoms: C_32  and  C_33
REMARK   19  A    between atoms: C_32  and  C_34
REMARK   20  A    between atoms: C_32  and  C_35
REMARK                            x       y       z     vdW  Elec       q    Type
REMARK                         _______ _______ _______ _____ _____    ______ ____
ROOT
ATOM      1  C   UNL     1      -4.637  -3.744  -1.084  0.00  0.00    +0.200 C 
ENDROOT
BRANCH   1   2
ATOM      2  C   UNL     1      -5.001  -4.491   0.173  0.00  0.00    +0.065 A 
ATOM      3  C   UNL     1      -4.335  -5.663   0.500  0.00  0.00    +0.129 A 
ATOM      4  C   UNL     1      -4.670  -6.351   1.657  0.00  0.00    +0.091 A 
ATOM      5  C   UNL     1      -5.670  -5.866   2.487  0.00  0.00    +0.124 A 
ATOM      6  C   UNL     1      -6.335  -4.693   2.160  0.00  0.00    +0.091 A 
ATOM      7  C   UNL     1      -5.997  -4.003   1.005  0.00  0.00    +0.129 A 
BRANCH   7   8
ATOM      8  O   UNL     1      -6.645  -2.852   0.688  0.00  0.00    -0.506 OA
ATOM      9  H   UNL     1      -7.435  -2.982   0.146  0.00  0.00    +0.292 HD
ENDBRANCH   7   8
BRANCH   5  10
ATOM     10  O   UNL     1      -5.999  -6.540   3.620  0.00  0.00    -0.507 OA
ATOM     11  H   UNL     1      -5.494  -6.270   4.399  0.00  0.00    +0.292 HD
ENDBRANCH   5  10
BRANCH   3  12
ATOM     12  O   UNL     1      -3.356  -6.138  -0.313  0.00  0.00    -0.506 OA
ATOM     13  H   UNL     1      -2.463  -5.881  -0.045  0.00  0.00    +0.292 HD
ENDBRANCH   3  12
ENDBRANCH   1   2
BRANCH   1  14
ATOM     14  C   UNL     1      -5.201  -4.468  -2.280  0.00  0.00    +0.239 C 
ATOM     15  O   UNL     1      -4.474  -5.142  -2.979  0.00  0.00    -0.273 OA
ATOM     16  N   UNL     1      -6.513  -4.365  -2.572  0.00  0.00    -0.308 N 
ATOM     17  H   UNL     1      -7.094  -3.826  -2.013  0.00  0.00    +0.149 HD
BRANCH  16  18
ATOM     18  C   UNL     1      -7.061  -5.069  -3.734  0.00  0.00    +0.030 C 
ATOM     19  C   UNL     1      -6.534  -4.423  -5.017  0.00  0.00    +0.031 C 
ATOM     20  C   UNL     1      -6.634  -6.537  -3.690  0.00  0.00    +0.031 C 
BRANCH  18  21
ATOM     21  C   UNL     1      -8.588  -4.981  -3.710  0.00  0.00    +0.031 C 
BRANCH  21  22
ATOM     22  C   UNL     1      -9.092  -5.249  -2.290  0.00  0.00    -0.036 C 
ATOM     23  C   UNL     1      -8.847  -4.014  -1.421  0.00  0.00    +0.010 C 
ATOM     24  C   UNL     1     -10.590  -5.557  -2.330  0.00  0.00    +0.010 C 
ATOM     25  C   UNL     1      -8.341  -6.445  -1.700  0.00  0.00    +0.010 C 
ENDBRANCH  21  22
ENDBRANCH  18  21
ENDBRANCH  16  18
ENDBRANCH   1  14
BRANCH   1  28
ATOM     26  C   UNL     1      -2.429  -3.375  -0.121  0.00  0.00    +0.217 C 
ATOM     27  O   UNL     1      -2.962  -3.174   0.949  0.00  0.00    -0.276 OA
ATOM     28  N   UNL     1      -3.179  -3.668  -1.203  0.00  0.00    -0.278 N 
BRANCH  26  29
ATOM     29  C   UNL     1      -0.929  -3.297  -0.243  0.00  0.00    +0.096 C 
BRANCH  29  30
ATOM     30  C   UNL     1      -0.324  -2.952   1.119  0.00  0.00    +0.009 C 
BRANCH  30  32
ATOM     31  C   UNL     1       1.804  -2.527   2.358  0.00  0.00    +0.004 C 
ATOM     32  C   UNL     1       1.199  -2.873   0.995  0.00  0.00    -0.003 C 
ENDBRANCH  30  32
ENDBRANCH  29  30
ENDBRANCH  26  29
BRANCH  28  33
ATOM     33  C   UNL     1      -2.535  -3.911  -2.496  0.00  0.00    +0.183 C 
BRANCH  33  34
ATOM     34  C   UNL     1      -1.800  -5.226  -2.453  0.00  0.00    +0.122 A 
ATOM     35  C   UNL     1      -2.221  -6.381  -2.999  0.00  0.00    +0.046 A 
ATOM     36  C   UNL     1      -1.231  -7.351  -2.721  0.00  0.00    +0.041 A 
ATOM     37  C   UNL     1      -0.264  -6.731  -2.021  0.00  0.00    +0.195 A 
ATOM     38  O   UNL     1      -0.612  -5.442  -1.867  0.00  0.00    -0.466 OA
ENDBRANCH  33  34
ENDBRANCH  28  33
ENDBRANCH   1  28
TORSDOF 14
