REMARK  Name = ZINC35729591
REMARK  12 active torsions:
REMARK  status: ('A' for Active; 'I' for Inactive)
REMARK    1  A    between atoms: C_1  and  C_2
REMARK    2  A    between atoms: C_2  and  N_3
REMARK    3  A    between atoms: C_4  and  C_35
REMARK    4  A    between atoms: C_5  and  C_28
REMARK    5  A    between atoms: C_6  and  C_11
REMARK    6  A    between atoms: C_14  and  N_17
REMARK    7  A    between atoms: C_18  and  C_20
REMARK    8  A    between atoms: C_28  and  O_30
REMARK    9  A    between atoms: O_30  and  C_31
REMARK   10  A    between atoms: C_31  and  C_32
REMARK   11  A    between atoms: C_32  and  O_33
REMARK   12  A    between atoms: O_33  and  C_34
REMARK                            x       y       z     vdW  Elec       q    Type
REMARK                         _______ _______ _______ _____ _____    ______ ____
ROOT
ATOM      1  N   UNL     1       0.520  -0.580  -1.577  0.00  0.00    -0.286 N 
ATOM      2  C   UNL     1      -0.172  -0.985  -2.682  0.00  0.00    +0.021 C 
ATOM      3  C   UNL     1       0.471  -1.375  -3.804  0.00  0.00    +0.078 C 
ATOM      4  C   UNL     1       1.986  -1.347  -3.793  0.00  0.00    +0.141 C 
ATOM      5  N   UNL     1       2.637  -0.893  -2.552  0.00  0.00    -0.315 N 
ATOM      6  C   UNL     1       1.856  -0.530  -1.515  0.00  0.00    +0.138 C 
ATOM      7  S   UNL     1       2.599   0.005  -0.068  0.00  0.00    -0.018 S 
ATOM      8  C   UNL     1      -1.679  -0.997  -2.649  0.00  0.00    +0.061 C 
ATOM      9  H   UNL     1       3.603  -0.853  -2.484  0.00  0.00    +0.149 HD
ENDROOT
BRANCH   4  10
ATOM     10  C   UNL     1       2.442  -0.446  -4.912  0.00  0.00    -0.022 A 
ATOM     11  C   UNL     1       2.435   0.926  -4.739  0.00  0.00    +0.007 A 
ATOM     12  C   UNL     1       2.852   1.755  -5.762  0.00  0.00    +0.023 A 
ATOM     13  C   UNL     1       3.278   1.209  -6.966  0.00  0.00    +0.034 A 
ATOM     14  C   UNL     1       3.284  -0.169  -7.137  0.00  0.00    +0.023 A 
ATOM     15  C   UNL     1       2.871  -0.993  -6.107  0.00  0.00    +0.007 A 
BRANCH  13  16
ATOM     16  N   UNL     1       3.701   2.045  -8.004  0.00  0.00    -0.281 N 
ATOM     17  C   UNL     1       4.362   3.186  -7.724  0.00  0.00    +0.250 C 
ATOM     18  O   UNL     1       4.523   3.527  -6.569  0.00  0.00    -0.270 OA
ATOM     19  H   UNL     1       3.518   1.805  -8.926  0.00  0.00    +0.155 HD
BRANCH  17  20
ATOM     20  C   UNL     1       4.892   4.021  -8.821  0.00  0.00    +0.055 A 
ATOM     21  C   UNL     1       4.704   3.634 -10.150  0.00  0.00    +0.016 A 
ATOM     22  C   UNL     1       5.200   4.418 -11.170  0.00  0.00    +0.021 A 
ATOM     23  C   UNL     1       5.885   5.587 -10.880  0.00  0.00    +0.042 A 
ATOM     24  C   UNL     1       6.076   5.976  -9.565  0.00  0.00    +0.040 A 
ATOM     25  C   UNL     1       5.578   5.204  -8.534  0.00  0.00    +0.054 A 
ATOM     26 CL   UNL     1       5.811   5.697  -6.886  0.00  0.00    -0.083 Cl
ATOM     27 CL   UNL     1       6.506   6.567 -12.171  0.00  0.00    -0.083 Cl
ENDBRANCH  17  20
ENDBRANCH  13  16
ENDBRANCH   4  10
BRANCH   1  29
ATOM     28  C   UNL     1      -0.607  -1.406   0.430  0.00  0.00    +0.025 C 
ATOM     29  C   UNL     1      -0.243  -0.170  -0.396  0.00  0.00    +0.109 C 
ENDBRANCH   1  29
BRANCH   3  30
ATOM     30  C   UNL     1      -0.244  -1.796  -4.948  0.00  0.00    +0.339 C 
ATOM     31  O   UNL     1      -1.461  -1.811  -4.934  0.00  0.00    -0.245 OA
BRANCH  30  32
ATOM     32  O   UNL     1       0.422  -2.181  -6.057  0.00  0.00    -0.459 OA
BRANCH  32  33
ATOM     33  C   UNL     1      -0.365  -2.594  -7.176  0.00  0.00    +0.260 C 
BRANCH  33  34
ATOM     34  C   UNL     1       0.558  -2.991  -8.330  0.00  0.00    +0.200 C 
BRANCH  34  35
ATOM     35  O   UNL     1       1.319  -4.142  -7.957  0.00  0.00    -0.380 OA
ATOM     36  C   UNL     1       2.218  -4.598  -8.970  0.00  0.00    +0.194 C 
ENDBRANCH  34  35
ENDBRANCH  33  34
ENDBRANCH  32  33
ENDBRANCH  30  32
ENDBRANCH   3  30
TORSDOF 9
