REMARK  Name = ZINC39633672
REMARK  5 active torsions:
REMARK  status: ('A' for Active; 'I' for Inactive)
REMARK    1  A    between atoms: C_1  and  O_2
REMARK    2  A    between atoms: O_2  and  C_3
REMARK    3  A    between atoms: C_4  and  C_9
REMARK    4  A    between atoms: C_13  and  C_22
REMARK    5  A    between atoms: N_24  and  C_25
REMARK                            x       y       z     vdW  Elec       q    Type
REMARK                         _______ _______ _______ _____ _____    ______ ____
ROOT
ATOM      1  C   UNL     1      -1.280  -0.698   2.560  0.00  0.00    +0.251 C 
ATOM      2  O   UNL     1      -1.797  -0.875   1.474  0.00  0.00    -0.270 OA
ATOM      3  N   UNL     1      -1.891  -1.139   3.678  0.00  0.00    -0.296 N 
ATOM      4  C   UNL     1      -3.136  -1.935   3.778  0.00  0.00    +0.121 C 
ATOM      5  C   UNL     1      -2.867  -2.941   4.919  0.00  0.00    +0.100 C 
ATOM      6  C   UNL     1      -1.772  -2.280   5.774  0.00  0.00    -0.004 C 
ATOM      7  C   UNL     1      -1.464  -0.943   5.084  0.00  0.00    +0.115 C 
ATOM      8  C   UNL     1      -0.522  -3.154   5.800  0.00  0.00    -0.010 C 
ATOM      9  C   UNL     1       0.531  -2.503   6.702  0.00  0.00    -0.082 C 
ATOM     10  N   UNL     1      -0.011  -2.350   8.057  0.00  0.00    +0.379 N 
ATOM     11  C   UNL     1      -1.158  -1.434   8.037  0.00  0.00    -0.082 C 
ATOM     12  C   UNL     1      -2.282  -2.038   7.192  0.00  0.00    -0.010 C 
ATOM     13  H   UNL     1      -0.307  -3.250   8.404  0.00  0.00    -0.086 HD
ATOM     14  H   UNL     1       0.704  -1.978   8.664  0.00  0.00    -0.086 HD
ENDROOT
BRANCH   1  16
ATOM     15  C   UNL     1       1.033  -0.162   1.643  0.00  0.00    +0.158 A 
ATOM     16  C   UNL     1       0.013  -0.003   2.654  0.00  0.00    +0.087 A 
ATOM     17  C   UNL     1       0.309   0.830   3.711  0.00  0.00    +0.063 A 
ATOM     18  S   UNL     1       1.861   1.378   3.384  0.00  0.00    -0.081 S 
ATOM     19  C   UNL     1       2.176   0.529   1.852  0.00  0.00    +0.120 A 
ATOM     20 CL   UNL     1       3.604   0.577   0.866  0.00  0.00    -0.072 Cl
BRANCH  15  22
ATOM     21  C   UNL     1       1.251  -2.326   0.678  0.00  0.00    +0.277 C 
ATOM     22  O   UNL     1       0.856  -0.958   0.553  0.00  0.00    -0.492 OA
ENDBRANCH  15  22
ENDBRANCH   1  16
BRANCH   5  23
ATOM     23  C   UNL     1      -2.378  -4.252   4.359  0.00  0.00    +0.218 C 
ATOM     24  O   UNL     1      -1.673  -4.264   3.373  0.00  0.00    -0.275 OA
ATOM     25  N   UNL     1      -2.725  -5.410   4.955  0.00  0.00    -0.312 N 
ATOM     26  H   UNL     1      -3.289  -5.400   5.744  0.00  0.00    +0.149 HD
BRANCH  25  27
ATOM     27  C   UNL     1      -2.250  -6.684   4.410  0.00  0.00    +0.073 C 
ATOM     28  C   UNL     1      -3.165  -7.100   3.240  0.00  0.00    +0.022 C 
ATOM     29  C   UNL     1      -2.421  -8.083   2.377  0.00  0.00    +0.002 C 
ATOM     30  C   UNL     1      -2.722  -9.546   2.757  0.00  0.00    +0.000 C 
ATOM     31  C   UNL     1      -2.771  -9.770   4.280  0.00  0.00    +0.000 C 
ATOM     32  C   UNL     1      -1.676  -9.035   5.005  0.00  0.00    +0.002 C 
ATOM     33  C   UNL     1      -2.229  -7.674   5.477  0.00  0.00    +0.022 C 
ENDBRANCH  25  27
ENDBRANCH   5  23
TORSDOF 4
