REMARK  Name = ZINC65150506
REMARK  5 active torsions:
REMARK  status: ('A' for Active; 'I' for Inactive)
REMARK    1  A    between atoms: C_1  and  C_2
REMARK    2  A    between atoms: C_13  and  C_17
REMARK    3  A    between atoms: N_19  and  C_20
REMARK    4  A    between atoms: C_25  and  C_26
REMARK    5  A    between atoms: C_26  and  C_28
REMARK                            x       y       z     vdW  Elec       q    Type
REMARK                         _______ _______ _______ _____ _____    ______ ____
ROOT
ATOM      1  C   UNL     1       0.037   1.508  -0.068  0.00  0.00    +0.008 C 
ATOM      2  C   UNL     1       0.048  -0.021  -0.064  0.00  0.00    -0.009 C 
ATOM      3  C   UNL     1      -1.391  -0.545  -0.041  0.00  0.00    +0.008 C 
ATOM      4  C   UNL     1      -1.398  -2.056  -0.283  0.00  0.00    +0.037 C 
ATOM      5  C   UNL     1      -0.435  -2.712   0.696  0.00  0.00    -0.024 A 
ATOM      6  C   UNL     1       0.517  -1.994   1.328  0.00  0.00    -0.004 A 
ATOM      7  S   UNL     1       1.373  -3.167   2.344  0.00  0.00    -0.075 S 
ATOM      8  C   UNL     1       0.520  -4.543   1.960  0.00  0.00    +0.092 A 
ATOM      9  N   UNL     1       0.663  -5.827   2.398  0.00  0.00    -0.316 N 
ATOM     10  C   UNL     1      -0.188  -6.759   1.905  0.00  0.00    +0.266 A 
ATOM     11  O   UNL     1      -0.086  -7.916   2.277  0.00  0.00    -0.267 OA
ATOM     12  C   UNL     1      -1.191  -6.421   0.970  0.00  0.00    +0.148 A 
ATOM     13  C   UNL     1      -1.352  -5.105   0.508  0.00  0.00    +0.206 A 
ATOM     14  C   UNL     1      -0.450  -4.128   1.033  0.00  0.00    +0.057 A 
ATOM     15  O   UNL     1      -2.309  -4.779  -0.388  0.00  0.00    -0.286 OA
ATOM     16  C   UNL     1       0.782  -0.527   1.187  0.00  0.00    +0.046 C 
ATOM     17  H   UNL     1       1.350  -6.065   3.040  0.00  0.00    +0.169 HD
ENDROOT
BRANCH  12  18
ATOM     18  C   UNL     1      -2.085  -7.469   0.469  0.00  0.00    +0.257 C 
ATOM     19  O   UNL     1      -3.017  -7.177  -0.257  0.00  0.00    -0.270 OA
ATOM     20  N   UNL     1      -1.874  -8.755   0.812  0.00  0.00    -0.281 N 
ATOM     21  H   UNL     1      -1.182  -8.978   1.454  0.00  0.00    +0.155 HD
BRANCH  20  22
ATOM     22  C   UNL     1      -2.650  -9.761   0.247  0.00  0.00    +0.044 A 
ATOM     23  C   UNL     1      -3.079  -9.656  -1.069  0.00  0.00    +0.024 A 
ATOM     24  C   UNL     1      -3.849 -10.655  -1.628  0.00  0.00    +0.002 A 
ATOM     25  C   UNL     1      -4.201 -11.771  -0.884  0.00  0.00    +0.001 A 
ATOM     26  C   UNL     1      -3.785 -11.896   0.423  0.00  0.00    +0.013 A 
ATOM     27  C   UNL     1      -2.999 -10.893   1.004  0.00  0.00    +0.038 A 
BRANCH  27  28
ATOM     28  C   UNL     1      -2.548 -11.021   2.394  0.00  0.00    +0.162 C 
ATOM     29  O   UNL     1      -1.796 -10.194   2.866  0.00  0.00    -0.292 OA
ATOM     30  C   UNL     1      -3.017 -12.180   3.236  0.00  0.00    +0.091 C 
ENDBRANCH  27  28
ENDBRANCH  20  22
ENDBRANCH  12  18
TORSDOF 3
