REMARK  Name = ZINC12703695
REMARK  12 active torsions:
REMARK  status: ('A' for Active; 'I' for Inactive)
REMARK    1  A    between atoms: C_1  and  C_2
REMARK    2  A    between atoms: C_7  and  C_15
REMARK    3  A    between atoms: C_13  and  C_14
REMARK    4  A    between atoms: C_15  and  N_16
REMARK    5  A    between atoms: N_16  and  C_17
REMARK    6  A    between atoms: N_16  and  C_25
REMARK    7  A    between atoms: C_17  and  C_18
REMARK    8  A    between atoms: C_18  and  C_19
REMARK    9  A    between atoms: C_19  and  N_65
REMARK   10  A    between atoms: C_25  and  N_27
REMARK   11  A    between atoms: N_27  and  C_28
REMARK   12  A    between atoms: C_28  and  C_29
REMARK                            x       y       z     vdW  Elec       q    Type
REMARK                         _______ _______ _______ _____ _____    ______ ____
ROOT
ATOM      1  N   UNL     1       3.007   3.896   1.368  0.00  0.00    -0.308 N 
ENDROOT
BRANCH   1   2
ATOM      2  C   UNL     1       2.683   4.973   2.111  0.00  0.00    +0.134 C 
ATOM      3  S   UNL     1       1.686   6.199   1.452  0.00  0.00    -0.019 S 
BRANCH   2   4
ATOM      4  N   UNL     1       3.143   5.084   3.373  0.00  0.00    -0.319 N 
ATOM      5  H   UNL     1       3.708   4.389   3.747  0.00  0.00    +0.148 HD
BRANCH   4   6
ATOM      6  C   UNL     1       2.791   6.254   4.181  0.00  0.00    +0.177 C 
BRANCH   6   7
ATOM      7  C   UNL     1       3.427   6.136   5.541  0.00  0.00    +0.122 A 
ATOM      8  C   UNL     1       4.644   6.595   5.883  0.00  0.00    +0.046 A 
ATOM      9  C   UNL     1       4.837   6.271   7.246  0.00  0.00    +0.041 A 
ATOM     10  C   UNL     1       3.726   5.633   7.655  0.00  0.00    +0.195 A 
ATOM     11  O   UNL     1       2.873   5.559   6.620  0.00  0.00    -0.466 OA
ENDBRANCH   6   7
ENDBRANCH   4   6
ENDBRANCH   2   4
ENDBRANCH   1   2
BRANCH   1  12
ATOM     12  C   UNL     1       2.507   3.775  -0.004  0.00  0.00    +0.147 C 
BRANCH  12  19
ATOM     13  C   UNL     1      -4.915   0.853   0.053  0.00  0.00    +0.044 C 
ATOM     14  C   UNL     1      -3.615   1.615   0.045  0.00  0.00    -0.046 A 
ATOM     15  C   UNL     1      -3.632   3.003   0.051  0.00  0.00    +0.004 A 
ATOM     16  C   UNL     1      -2.465   3.713   0.044  0.00  0.00    +0.010 A 
ATOM     17  C   UNL     1      -1.242   3.036   0.029  0.00  0.00    -0.001 A 
ATOM     18  C   UNL     1       0.028   3.765   0.021  0.00  0.00    +0.020 A 
ATOM     19  C   UNL     1       1.183   3.055   0.006  0.00  0.00    +0.035 A 
ATOM     20  C   UNL     1       1.150   1.644  -0.000  0.00  0.00    +0.254 A 
ATOM     21  O   UNL     1       2.200   1.025  -0.013  0.00  0.00    -0.268 OA
ATOM     22  N   UNL     1      -0.011   0.966   0.007  0.00  0.00    -0.322 N 
ATOM     23  H   UNL     1       0.002  -0.004   0.002  0.00  0.00    +0.169 HD
ATOM     24  C   UNL     1      -1.220   1.629   0.017  0.00  0.00    +0.052 A 
ATOM     25  C   UNL     1      -2.421   0.927   0.031  0.00  0.00    -0.024 A 
ATOM     26  C   UNL     1      -2.417  -0.580   0.025  0.00  0.00    +0.046 C 
ENDBRANCH  12  19
ENDBRANCH   1  12
BRANCH   1  27
ATOM     27  C   UNL     1       3.860   2.847   1.932  0.00  0.00    +0.105 C 
BRANCH  27  28
ATOM     28  C   UNL     1       5.327   3.170   1.641  0.00  0.00    +0.000 C 
BRANCH  28  29
ATOM     29  C   UNL     1       6.217   2.074   2.230  0.00  0.00    -0.077 C 
BRANCH  29  35
ATOM     30  C   UNL     1       7.904   2.315   0.509  0.00  0.00    -0.050 C 
ATOM     31  C   UNL     1       9.364   2.703   0.258  0.00  0.00    +0.141 C 
ATOM     32  O   UNL     1      10.218   1.843   1.016  0.00  0.00    -0.383 OA
ATOM     33  C   UNL     1       9.974   1.885   2.425  0.00  0.00    +0.141 C 
ATOM     34  C   UNL     1       8.521   1.490   2.698  0.00  0.00    -0.050 C 
ATOM     35  N   UNL     1       7.631   2.410   1.959  0.00  0.00    +0.383 N 
ATOM     36  H   UNL     1       7.812   3.371   2.271  0.00  0.00    -0.082 HD
ENDBRANCH  29  35
ENDBRANCH  28  29
ENDBRANCH  27  28
ENDBRANCH   1  27
TORSDOF 10
