REMARK  Name = ZINC20135266
REMARK  5 active torsions:
REMARK  status: ('A' for Active; 'I' for Inactive)
REMARK    1  A    between atoms: C_1  and  C_2
REMARK    2  A    between atoms: C_2  and  C_34
REMARK    3  A    between atoms: C_6  and  C_24
REMARK    4  A    between atoms: C_9  and  C_15
REMARK    5  A    between atoms: C_18  and  N_21
REMARK                            x       y       z     vdW  Elec       q    Type
REMARK                         _______ _______ _______ _____ _____    ______ ____
ROOT
ATOM      1  C   UNL     1       9.051   2.054  -2.882  0.00  0.00    +0.011 C 
ATOM      2  C   UNL     1       8.685   1.047  -3.975  0.00  0.00    -0.023 C 
ATOM      3  C   UNL     1       8.395  -0.316  -3.344  0.00  0.00    +0.058 C 
ATOM      4  C   UNL     1       7.224  -0.200  -2.395  0.00  0.00    +0.017 C 
ATOM      5  C   UNL     1       6.237   0.695  -2.619  0.00  0.00    +0.024 C 
ATOM      6  C   UNL     1       5.044   0.834  -1.699  0.00  0.00    +0.089 C 
ATOM      7  C   UNL     1       4.981  -0.345  -0.770  0.00  0.00    +0.032 A 
ATOM      8  C   UNL     1       3.941  -0.775   0.059  0.00  0.00    +0.098 A 
ATOM      9  N   UNL     1       4.350  -1.853   0.701  0.00  0.00    -0.172 NA
ATOM     10  N   UNL     1       5.660  -2.144   0.288  0.00  0.00    -0.263 N 
ATOM     11  H   UNL     1       6.187  -3.016   0.704  0.00  0.00    +0.190 HD
ATOM     12  C   UNL     1       6.028  -1.210  -0.610  0.00  0.00    +0.123 A 
ATOM     13  N   UNL     1       7.216  -1.046  -1.314  0.00  0.00    -0.303 N 
ATOM     14  C   UNL     1       6.280   1.551  -3.733  0.00  0.00    +0.162 C 
ATOM     15  O   UNL     1       5.371   2.338  -3.913  0.00  0.00    -0.292 OA
ATOM     16  C   UNL     1       7.424   1.517  -4.708  0.00  0.00    +0.086 C 
ATOM     17  C   UNL     1       9.842   0.920  -4.967  0.00  0.00    +0.011 C 
ATOM     18  H   UNL     1       8.135  -1.577  -1.024  0.00  0.00    +0.153 HD
ENDROOT
BRANCH   6  19
ATOM     19  C   UNL     1       5.177   2.101  -0.893  0.00  0.00    -0.034 A 
ATOM     20  C   UNL     1       4.225   3.097  -1.008  0.00  0.00    +0.004 A 
ATOM     21  C   UNL     1       4.346   4.258  -0.269  0.00  0.00    +0.001 A 
ATOM     22  C   UNL     1       5.420   4.425   0.586  0.00  0.00    +0.015 A 
ATOM     23  C   UNL     1       6.372   3.429   0.701  0.00  0.00    +0.018 A 
ATOM     24  C   UNL     1       6.248   2.264  -0.035  0.00  0.00    +0.019 A 
ATOM     25 BR   UNL     1       7.841   3.656   1.871  0.00  0.00    -0.050 Br
ENDBRANCH   6  19
BRANCH   8  26
ATOM     26  C   UNL     1       2.612  -0.128   0.198  0.00  0.00    +0.003 A 
ATOM     27  C   UNL     1       1.940   0.338  -0.930  0.00  0.00    +0.012 A 
ATOM     28  C   UNL     1       0.704   0.938  -0.795  0.00  0.00    +0.033 A 
ATOM     29  C   UNL     1       0.133   1.076   0.458  0.00  0.00    +0.126 A 
ATOM     30  C   UNL     1       0.796   0.615   1.580  0.00  0.00    +0.033 A 
ATOM     31  C   UNL     1       2.032   0.014   1.457  0.00  0.00    +0.012 A 
BRANCH  29  32
ATOM     32  N   UNL     1      -1.190   1.726   0.597  0.00  0.00    +0.056 N 
ATOM     33  O   UNL     1      -1.773   2.137  -0.390  0.00  0.00    -0.126 OA
ATOM     34  O   UNL     1      -1.695   1.848   1.698  0.00  0.00    -0.126 OA
ENDBRANCH  29  32
ENDBRANCH   8  26
TORSDOF 3
