REMARK  Name = ZINC39655608
REMARK  6 active torsions:
REMARK  status: ('A' for Active; 'I' for Inactive)
REMARK    1  A    between atoms: C_4  and  N_7
REMARK    2  A    between atoms: N_7  and  C_8
REMARK    3  A    between atoms: C_8  and  C_9
REMARK    4  A    between atoms: C_9  and  N_10
REMARK    5  A    between atoms: C_11  and  C_13
REMARK    6  A    between atoms: C_24  and  C_26
REMARK                            x       y       z     vdW  Elec       q    Type
REMARK                         _______ _______ _______ _____ _____    ______ ____
ROOT
ATOM      1  C   UNL     1       6.296  -6.599  -0.522  0.00  0.00    +0.100 C 
ATOM      2  C   UNL     1       5.750  -6.951   0.880  0.00  0.00    +0.121 C 
ATOM      3  N   UNL     1       6.618  -8.056   1.352  0.00  0.00    -0.296 N 
ATOM      4  C   UNL     1       7.977  -7.679   0.893  0.00  0.00    +0.115 C 
ATOM      5  C   UNL     1       7.757  -7.077  -0.509  0.00  0.00    -0.004 C 
ATOM      6  C   UNL     1       8.701  -5.899  -0.731  0.00  0.00    -0.010 C 
ATOM      7  C   UNL     1      10.145  -6.409  -0.772  0.00  0.00    -0.082 C 
ATOM      8  N   UNL     1      10.289  -7.388  -1.856  0.00  0.00    +0.379 N 
ATOM      9  C   UNL     1       9.447  -8.560  -1.588  0.00  0.00    -0.082 C 
ATOM     10  C   UNL     1       7.974  -8.141  -1.581  0.00  0.00    -0.010 C 
ATOM     11  C   UNL     1       6.255  -9.154   2.043  0.00  0.00    +0.248 C 
ATOM     12  O   UNL     1       7.102  -9.930   2.443  0.00  0.00    -0.270 OA
ATOM     13  H   UNL     1      10.008  -6.966  -2.728  0.00  0.00    -0.086 HD
ATOM     14  H   UNL     1      11.254  -7.676  -1.921  0.00  0.00    -0.086 HD
ENDROOT
BRANCH  11  15
ATOM     15  C   UNL     1       4.835  -9.415   2.314  0.00  0.00    +0.052 A 
ATOM     16  C   UNL     1       3.966  -8.395   2.537  0.00  0.00    +0.059 A 
ATOM     17  S   UNL     1       2.479  -9.126   2.798  0.00  0.00    -0.096 S 
ATOM     18  C   UNL     1       2.932 -10.829   2.624  0.00  0.00    +0.020 A 
ATOM     19  C   UNL     1       4.311 -10.782   2.345  0.00  0.00    +0.001 A 
ATOM     20  C   UNL     1       4.971 -12.009   2.146  0.00  0.00    +0.010 A 
ATOM     21  C   UNL     1       4.278 -13.192   2.221  0.00  0.00    +0.001 A 
ATOM     22  C   UNL     1       2.917 -13.211   2.492  0.00  0.00    +0.001 A 
ATOM     23  C   UNL     1       2.245 -12.022   2.703  0.00  0.00    +0.015 A 
ENDBRANCH  11  15
BRANCH   1  25
ATOM     24  N   UNL     1       6.090  -4.626  -2.000  0.00  0.00    -0.314 N 
ATOM     25  C   UNL     1       6.233  -5.110  -0.751  0.00  0.00    +0.218 C 
ATOM     26  O   UNL     1       6.312  -4.349   0.190  0.00  0.00    -0.275 OA
ATOM     27  H   UNL     1       6.027  -5.235  -2.752  0.00  0.00    +0.149 HD
BRANCH  24  28
ATOM     28  C   UNL     1       6.029  -3.179  -2.222  0.00  0.00    +0.123 C 
BRANCH  28  29
ATOM     29  C   UNL     1       5.865  -2.899  -3.717  0.00  0.00    +0.120 C 
BRANCH  29  30
ATOM     30  N   UNL     1       5.804  -1.452  -3.939  0.00  0.00    -0.342 N 
ATOM     31  H   UNL     1       5.867  -0.843  -3.187  0.00  0.00    +0.146 HD
BRANCH  30  35
ATOM     32  C   UNL     1       5.361   0.045  -7.799  0.00  0.00    +0.000 A 
ATOM     33  C   UNL     1       5.451   0.915  -6.728  0.00  0.00    +0.002 A 
ATOM     34  C   UNL     1       5.597   0.422  -5.446  0.00  0.00    +0.023 A 
ATOM     35  C   UNL     1       5.655  -0.950  -5.234  0.00  0.00    +0.027 A 
ATOM     36  C   UNL     1       5.565  -1.821  -6.312  0.00  0.00    +0.023 A 
ATOM     37  C   UNL     1       5.419  -1.321  -7.591  0.00  0.00    +0.002 A 
ENDBRANCH  30  35
ENDBRANCH  29  30
ENDBRANCH  28  29
ENDBRANCH  24  28
ENDBRANCH   1  25
TORSDOF 6
