REMARK  Name = ZINC35730292
REMARK  15 active torsions:
REMARK  status: ('A' for Active; 'I' for Inactive)
REMARK    1  A    between atoms: C_1  and  C_2
REMARK    2  A    between atoms: C_6  and  C_8
REMARK    3  A    between atoms: C_8  and  S_9
REMARK    4  A    between atoms: S_9  and  C_10
REMARK    5  A    between atoms: C_13  and  C_24
REMARK    6  A    between atoms: N_14  and  C_15
REMARK    7  A    between atoms: C_18  and  N_21
REMARK    8  A    between atoms: C_24  and  C_26
REMARK    9  A    between atoms: C_24  and  N_27
REMARK   10  A    between atoms: C_28  and  C_30
REMARK   11  A    between atoms: C_30  and  C_31
REMARK   12  A    between atoms: C_31  and  C_32
REMARK   13  A    between atoms: C_32  and  C_33
REMARK   14  A    between atoms: C_33  and  C_34
REMARK   15  A    between atoms: C_34  and  N_35
REMARK                            x       y       z     vdW  Elec       q    Type
REMARK                         _______ _______ _______ _____ _____    ______ ____
ROOT
ATOM      1  C   UNL     1       1.622  -4.015   4.517  0.00  0.00    +0.196 A 
ATOM      2  N   UNL     1       0.504  -4.376   5.104  0.00  0.00    -0.122 NA
ATOM      3  N   UNL     1       0.766  -5.007   6.192  0.00  0.00    -0.131 NA
ATOM      4  C   UNL     1       2.054  -5.088   6.366  0.00  0.00    +0.159 A 
ATOM      5  N   UNL     1       2.649  -4.463   5.301  0.00  0.00    -0.273 N 
ENDROOT
BRANCH   5   6
ATOM      6  C   UNL     1       4.023  -4.313   5.066  0.00  0.00    +0.050 A 
ATOM      7  C   UNL     1       4.813  -5.428   4.824  0.00  0.00    +0.028 A 
ATOM      8  C   UNL     1       6.167  -5.277   4.593  0.00  0.00    +0.035 A 
ATOM      9  C   UNL     1       6.734  -4.016   4.602  0.00  0.00    +0.126 A 
ATOM     10  C   UNL     1       5.950  -2.904   4.843  0.00  0.00    +0.035 A 
ATOM     11  C   UNL     1       4.595  -3.048   5.069  0.00  0.00    +0.028 A 
BRANCH   9  12
ATOM     12  N   UNL     1       8.185  -3.858   4.355  0.00  0.00    +0.056 N 
ATOM     13  O   UNL     1       8.873  -4.830   4.145  0.00  0.00    -0.126 OA
ATOM     14  O   UNL     1       8.683  -2.756   4.363  0.00  0.00    -0.126 OA
ENDBRANCH   9  12
ENDBRANCH   5   6
BRANCH   4  15
ATOM     15  C   UNL     1       2.761  -5.750   7.521  0.00  0.00    +0.138 C 
ATOM     16  C   UNL     1       2.690  -7.270   7.358  0.00  0.00    +0.036 C 
BRANCH  15  17
ATOM     17  N   UNL     1       2.113  -5.363   8.776  0.00  0.00    -0.306 N 
ATOM     18  C   UNL     1       2.809  -5.389   9.930  0.00  0.00    +0.214 C 
ATOM     19  O   UNL     1       3.972  -5.734   9.929  0.00  0.00    -0.276 OA
ATOM     20  H   UNL     1       1.183  -5.087   8.777  0.00  0.00    +0.149 HD
BRANCH  18  21
ATOM     21  C   UNL     1       2.142  -4.990  11.222  0.00  0.00    +0.096 C 
BRANCH  21  22
ATOM     22  C   UNL     1       3.146  -5.109  12.371  0.00  0.00    +0.009 C 
BRANCH  22  23
ATOM     23  C   UNL     1       2.469  -4.704  13.682  0.00  0.00    -0.001 C 
BRANCH  23  24
ATOM     24  C   UNL     1       3.472  -4.822  14.831  0.00  0.00    -0.020 C 
BRANCH  24  25
ATOM     25  C   UNL     1       2.796  -4.417  16.142  0.00  0.00    -0.086 C 
BRANCH  25  26
ATOM     26  N   UNL     1       3.759  -4.530  17.246  0.00  0.00    +0.378 N 
ATOM     27  H   UNL     1       3.312  -4.263  18.110  0.00  0.00    -0.090 HD
ATOM     28  H   UNL     1       4.081  -5.484  17.314  0.00  0.00    -0.090 HD
ATOM     29  H   UNL     1       4.544  -3.921  17.070  0.00  0.00    -0.090 HD
ENDBRANCH  25  26
ENDBRANCH  24  25
ENDBRANCH  23  24
ENDBRANCH  22  23
ENDBRANCH  21  22
ENDBRANCH  18  21
ENDBRANCH  15  17
ENDBRANCH   4  15
BRANCH   1  30
ATOM     30  S   UNL     1       1.770  -3.127   3.002  0.00  0.00    -0.081 S 
BRANCH  30  31
ATOM     31  C   UNL     1       0.054  -2.845   2.489  0.00  0.00    +0.112 C 
BRANCH  31  37
ATOM     32  C   UNL     1      -0.018   1.503   0.010  0.00  0.00    +0.044 C 
ATOM     33  C   UNL     1       0.002  -0.004   0.002  0.00  0.00    -0.050 A 
ATOM     34  C   UNL     1       0.006  -0.689  -1.199  0.00  0.00    +0.003 A 
ATOM     35  C   UNL     1       0.025  -2.071  -1.207  0.00  0.00    +0.001 A 
ATOM     36  C   UNL     1       0.040  -2.768  -0.013  0.00  0.00    +0.004 A 
ATOM     37  C   UNL     1       0.037  -2.084   1.188  0.00  0.00    -0.037 A 
ATOM     38  C   UNL     1       0.023  -0.702   1.195  0.00  0.00    +0.007 A 
ENDBRANCH  31  37
ENDBRANCH  30  31
ENDBRANCH   1  30
TORSDOF 13
