REMARK  Name = ZINC22808367
REMARK  7 active torsions:
REMARK  status: ('A' for Active; 'I' for Inactive)
REMARK    1  A    between atoms: C_1  and  C_2
REMARK    2  A    between atoms: C_2  and  C_30
REMARK    3  A    between atoms: N_5  and  N_9
REMARK    4  A    between atoms: C_10  and  C_12
REMARK    5  A    between atoms: C_12  and  N_13
REMARK    6  A    between atoms: N_16  and  C_19
REMARK    7  A    between atoms: C_19  and  C_20
REMARK                            x       y       z     vdW  Elec       q    Type
REMARK                         _______ _______ _______ _____ _____    ______ ____
ROOT
ATOM      1  N   UNL     1      -2.939   8.823  -5.905  0.00  0.00    -0.225 N 
ATOM      2  C   UNL     1      -2.863   8.154  -4.737  0.00  0.00    +0.213 C 
ATOM      3  O   UNL     1      -2.058   8.493  -3.895  0.00  0.00    -0.276 OA
ATOM      4  H   UNL     1      -3.669   8.516  -6.668  0.00  0.00    +0.173 HD
ENDROOT
BRANCH   1   9
ATOM      5  C   UNL     1       1.020  11.195  -6.376  0.00  0.00    +0.047 C 
ATOM      6  C   UNL     1      -0.410  11.254  -6.917  0.00  0.00    +0.137 C 
ATOM      7  C   UNL     1      -1.019   9.867  -6.965  0.00  0.00    +0.267 C 
ATOM      8  O   UNL     1      -0.626   8.917  -7.607  0.00  0.00    -0.271 OA
ATOM      9  N   UNL     1      -2.088   9.910  -6.146  0.00  0.00    -0.137 N 
ATOM     10  C   UNL     1      -2.240  11.120  -5.596  0.00  0.00    +0.327 C 
ATOM     11  O   UNL     1      -3.136  11.404  -4.826  0.00  0.00    -0.251 OA
ATOM     12  N   UNL     1      -1.289  11.986  -5.989  0.00  0.00    -0.280 N 
ATOM     13  H   UNL     1      -1.083  13.041  -5.753  0.00  0.00    +0.152 HD
BRANCH   6  14
ATOM     14  C   UNL     1      -0.432  11.891  -8.282  0.00  0.00    -0.015 A 
ATOM     15  C   UNL     1      -0.349  11.103  -9.415  0.00  0.00    +0.006 A 
ATOM     16  C   UNL     1      -0.375  11.687 -10.667  0.00  0.00    +0.000 A 
ATOM     17  C   UNL     1      -0.473  13.061 -10.787  0.00  0.00    +0.000 A 
ATOM     18  C   UNL     1      -0.551  13.850  -9.655  0.00  0.00    +0.000 A 
ATOM     19  C   UNL     1      -0.530  13.265  -8.402  0.00  0.00    +0.006 A 
ENDBRANCH   6  14
ENDBRANCH   1   9
BRANCH   2  20
ATOM     20  C   UNL     1      -3.778   6.985  -4.478  0.00  0.00    +0.020 C 
BRANCH  20  21
ATOM     21  N   UNL     1      -3.500   6.432  -3.146  0.00  0.00    +0.387 N 
ATOM     22  C   UNL     1      -4.522   5.449  -2.759  0.00  0.00    -0.063 C 
ATOM     23  C   UNL     1      -4.241   4.957  -1.338  0.00  0.00    +0.066 C 
ATOM     24  N   UNL     1      -2.898   4.364  -1.284  0.00  0.00    -0.302 NA
ATOM     25  C   UNL     1      -1.876   5.347  -1.670  0.00  0.00    +0.066 C 
ATOM     26  C   UNL     1      -2.156   5.839  -3.091  0.00  0.00    -0.063 C 
ATOM     27  H   UNL     1      -3.535   7.261  -2.423  0.00  0.00    -0.081 HD
BRANCH  24  28
ATOM     28  C   UNL     1      -2.620   3.811   0.049  0.00  0.00    +0.120 C 
BRANCH  28  29
ATOM     29  C   UNL     1      -1.431   2.888  -0.029  0.00  0.00    -0.026 A 
ATOM     30  C   UNL     1      -0.223   3.285   0.458  0.00  0.00    +0.005 A 
ATOM     31  C   UNL     1       0.888   2.448   0.389  0.00  0.00    +0.001 A 
ATOM     32  C   UNL     1       0.796   1.204  -0.156  0.00  0.00    +0.008 A 
ATOM     33  C   UNL     1      -0.436   0.756  -0.663  0.00  0.00    -0.018 A 
ATOM     34  C   UNL     1      -1.565   1.610  -0.598  0.00  0.00    -0.013 A 
ATOM     35  C   UNL     1      -2.797   1.162  -1.104  0.00  0.00    +0.009 A 
ATOM     36  C   UNL     1      -2.889  -0.081  -1.649  0.00  0.00    +0.001 A 
ATOM     37  C   UNL     1      -1.779  -0.921  -1.712  0.00  0.00    +0.001 A 
ATOM     38  C   UNL     1      -0.570  -0.522  -1.232  0.00  0.00    +0.008 A 
ENDBRANCH  28  29
ENDBRANCH  24  28
ENDBRANCH  20  21
ENDBRANCH   2  20
TORSDOF 6
