REMARK  Name = ZINC09726968
REMARK  8 active torsions:
REMARK  status: ('A' for Active; 'I' for Inactive)
REMARK    1  A    between atoms: C_1  and  O_2
REMARK    2  A    between atoms: O_2  and  C_3
REMARK    3  A    between atoms: C_3  and  C_5
REMARK    4  A    between atoms: C_5  and  N_6
REMARK    5  A    between atoms: C_10  and  S_25
REMARK    6  A    between atoms: N_15  and  C_16
REMARK    7  A    between atoms: C_16  and  C_18
REMARK    8  A    between atoms: S_25  and  N_28
REMARK                            x       y       z     vdW  Elec       q    Type
REMARK                         _______ _______ _______ _____ _____    ______ ____
ROOT
ATOM      1  N   UNL     1       3.444  -4.673   0.100  0.00  0.00    -0.310 N 
ATOM      2  C   UNL     1       3.030  -5.902   0.579  0.00  0.00    +0.058 A 
ATOM      3  C   UNL     1       3.818  -7.001   0.954  0.00  0.00    +0.029 A 
ATOM      4  C   UNL     1       3.236  -8.159   1.414  0.00  0.00    +0.030 A 
ATOM      5  C   UNL     1       1.860  -8.277   1.521  0.00  0.00    +0.106 A 
ATOM      6  C   UNL     1       1.059  -7.209   1.157  0.00  0.00    +0.045 A 
ATOM      7  C   UNL     1       1.640  -6.051   0.698  0.00  0.00    +0.041 A 
ATOM      8  S   UNL     1       1.014  -4.484   0.148  0.00  0.00    -0.052 S 
ATOM      9  C   UNL     1       2.527  -3.719  -0.215  0.00  0.00    +0.167 A 
ATOM     10  N   UNL     1       2.740  -2.493  -0.682  0.00  0.00    -0.152 NA
ENDROOT
BRANCH   5  11
ATOM     11  S   UNL     1       1.138  -9.772   2.112  0.00  0.00    +0.056 S 
ATOM     12  O   UNL     1      -0.187  -9.813   1.600  0.00  0.00    -0.153 OA
ATOM     13  O   UNL     1       2.083 -10.805   1.866  0.00  0.00    -0.153 OA
BRANCH  11  14
ATOM     14  N   UNL     1       1.005  -9.634   3.757  0.00  0.00    -0.204 NA
ATOM     15  H   UNL     1       0.289 -10.091   4.226  0.00  0.00    +0.144 HD
ATOM     16  H   UNL     1       1.643  -9.096   4.252  0.00  0.00    +0.144 HD
ENDBRANCH  11  14
ENDBRANCH   5  11
BRANCH  10  17
ATOM     17  C   UNL     1       1.706  -1.686  -0.936  0.00  0.00    +0.269 C 
ATOM     18  O   UNL     1       0.567  -2.074  -0.740  0.00  0.00    -0.268 OA
BRANCH  17  19
ATOM     19  C   UNL     1       1.943  -0.320  -1.458  0.00  0.00    +0.040 A 
ATOM     20  C   UNL     1       0.865   0.525  -1.724  0.00  0.00    +0.013 A 
ATOM     21  C   UNL     1       1.092   1.796  -2.209  0.00  0.00    +0.002 A 
ATOM     22  C   UNL     1       2.385   2.235  -2.431  0.00  0.00    +0.015 A 
ATOM     23  C   UNL     1       3.459   1.402  -2.168  0.00  0.00    +0.019 A 
ATOM     24  C   UNL     1       3.244   0.127  -1.683  0.00  0.00    +0.028 A 
ATOM     25 BR   UNL     1       5.223   2.010  -2.476  0.00  0.00    -0.050 Br
ENDBRANCH  17  19
ENDBRANCH  10  17
BRANCH   1  26
ATOM     26  C   UNL     1       4.873  -4.398  -0.068  0.00  0.00    +0.244 C 
BRANCH  26  27
ATOM     27  C   UNL     1       5.092  -3.644  -1.355  0.00  0.00    +0.327 C 
ATOM     28  O   UNL     1       4.181  -3.509  -2.138  0.00  0.00    -0.249 OA
BRANCH  27  30
ATOM     29  C   UNL     1       6.435  -2.410  -2.889  0.00  0.00    +0.280 C 
ATOM     30  O   UNL     1       6.297  -3.123  -1.631  0.00  0.00    -0.467 OA
ENDBRANCH  27  30
ENDBRANCH  26  27
ENDBRANCH   1  26
TORSDOF 7
