REMARK  Name = ZINC12476869
REMARK  13 active torsions:
REMARK  status: ('A' for Active; 'I' for Inactive)
REMARK    1  A    between atoms: C_1  and  C_2
REMARK    2  A    between atoms: C_5  and  C_8
REMARK    3  A    between atoms: C_8  and  C_10
REMARK    4  A    between atoms: C_8  and  N_17
REMARK    5  A    between atoms: N_12  and  C_13
REMARK    6  A    between atoms: C_13  and  C_14
REMARK    7  A    between atoms: C_13  and  C_15
REMARK    8  A    between atoms: C_13  and  C_16
REMARK    9  A    between atoms: N_17  and  C_18
REMARK   10  A    between atoms: C_18  and  C_19
REMARK   11  A    between atoms: C_25  and  C_27
REMARK   12  A    between atoms: C_27  and  N_28
REMARK   13  A    between atoms: C_30  and  C_33
REMARK                            x       y       z     vdW  Elec       q    Type
REMARK                         _______ _______ _______ _____ _____    ______ ____
ROOT
ATOM      1  N   UNL     1       3.820   0.973  -0.700  0.00  0.00    -0.282 N 
ATOM      2  C   UNL     1       3.986  -0.103  -1.494  0.00  0.00    +0.240 C 
ATOM      3  O   UNL     1       3.025  -0.764  -1.828  0.00  0.00    -0.273 OA
ENDROOT
BRANCH   1   4
ATOM      4  C   UNL     1       2.480   1.346  -0.241  0.00  0.00    +0.192 C 
BRANCH   4   9
ATOM      5  C   UNL     1       0.520   5.769  -3.401  0.00  0.00    +0.044 C 
ATOM      6  C   UNL     1       1.031   4.615  -2.577  0.00  0.00    -0.050 A 
ATOM      7  C   UNL     1       0.179   3.585  -2.227  0.00  0.00    +0.004 A 
ATOM      8  C   UNL     1       0.647   2.529  -1.467  0.00  0.00    +0.006 A 
ATOM      9  C   UNL     1       1.969   2.499  -1.065  0.00  0.00    -0.018 A 
ATOM     10  C   UNL     1       2.822   3.528  -1.419  0.00  0.00    +0.006 A 
ATOM     11  C   UNL     1       2.354   4.586  -2.175  0.00  0.00    +0.004 A 
ENDBRANCH   4   9
BRANCH   4  12
ATOM     12  C   UNL     1       2.541   1.752   1.209  0.00  0.00    +0.238 C 
ATOM     13  O   UNL     1       3.448   2.452   1.605  0.00  0.00    -0.273 OA
ATOM     14  N   UNL     1       1.587   1.337   2.066  0.00  0.00    -0.309 N 
ATOM     15  H   UNL     1       0.861   0.776   1.749  0.00  0.00    +0.149 HD
BRANCH  14  16
ATOM     16  C   UNL     1       1.646   1.732   3.475  0.00  0.00    +0.026 C 
ATOM     17  C   UNL     1       1.598   3.257   3.580  0.00  0.00    +0.031 C 
ATOM     18  C   UNL     1       0.454   1.131   4.223  0.00  0.00    +0.031 C 
ATOM     19  C   UNL     1       2.947   1.218   4.095  0.00  0.00    +0.031 C 
ENDBRANCH  14  16
ENDBRANCH   4  12
ENDBRANCH   1   4
BRANCH   1  20
ATOM     20  C   UNL     1       4.981   1.771  -0.297  0.00  0.00    +0.140 C 
BRANCH  20  21
ATOM     21  C   UNL     1       5.677   1.097   0.887  0.00  0.00    +0.136 C 
ATOM     22  C   UNL     1       6.740   2.039   1.494  0.00  0.00    +0.035 C 
ATOM     23  C   UNL     1       7.896   1.094   1.892  0.00  0.00    +0.031 C 
ATOM     24  C   UNL     1       7.394  -0.307   1.478  0.00  0.00    +0.160 C 
ATOM     25  O   UNL     1       6.417  -0.061   0.443  0.00  0.00    -0.375 OA
ENDBRANCH  20  21
ENDBRANCH   1  20
BRANCH   2  26
ATOM     26  C   UNL     1       5.365  -0.486  -1.967  0.00  0.00    +0.264 C 
BRANCH  26  27
ATOM     27  N   UNL     1       5.278  -1.681  -2.809  0.00  0.00    -0.154 N 
ATOM     28  N   UNL     1       5.361  -2.897  -2.390  0.00  0.00    -0.130 NA
ATOM     29  C   UNL     1       5.235  -3.693  -3.433  0.00  0.00    +0.205 A 
ATOM     30  N   UNL     1       5.081  -2.902  -4.504  0.00  0.00    -0.108 NA
ATOM     31  N   UNL     1       5.112  -1.682  -4.086  0.00  0.00    -0.045 NA
BRANCH  29  32
ATOM     32  C   UNL     1       5.264  -5.177  -3.424  0.00  0.00    +0.023 A 
ATOM     33  C   UNL     1       5.439  -5.865  -2.225  0.00  0.00    +0.013 A 
ATOM     34  C   UNL     1       5.459  -7.245  -2.221  0.00  0.00    +0.021 A 
ATOM     35  C   UNL     1       5.318  -7.945  -3.407  0.00  0.00    +0.041 A 
ATOM     36  C   UNL     1       5.150  -7.266  -4.601  0.00  0.00    +0.021 A 
ATOM     37  C   UNL     1       5.122  -5.886  -4.614  0.00  0.00    +0.013 A 
ATOM     38 CL   UNL     1       5.352  -9.681  -3.396  0.00  0.00    -0.084 Cl
ENDBRANCH  29  32
ENDBRANCH  26  27
ENDBRANCH   2  26
TORSDOF 9
