REMARK  Name = ZINC09535611
REMARK  14 active torsions:
REMARK  status: ('A' for Active; 'I' for Inactive)
REMARK    1  A    between atoms: C_1  and  C_2
REMARK    2  A    between atoms: C_2  and  O_3
REMARK    3  A    between atoms: O_3  and  C_4
REMARK    4  A    between atoms: C_4  and  C_6
REMARK    5  A    between atoms: C_7  and  C_34
REMARK    6  A    between atoms: C_8  and  C_30
REMARK    7  A    between atoms: C_10  and  N_11
REMARK    8  A    between atoms: C_12  and  C_14
REMARK    9  A    between atoms: C_14  and  N_62
REMARK   10  A    between atoms: C_15  and  C_17
REMARK   11  A    between atoms: C_15  and  C_24
REMARK   12  A    between atoms: C_15  and  N_62
REMARK   13  A    between atoms: C_17  and  C_18
REMARK   14  A    between atoms: N_32  and  C_33
REMARK                            x       y       z     vdW  Elec       q    Type
REMARK                         _______ _______ _______ _____ _____    ______ ____
ROOT
ATOM      1  N   UNL     1      -0.288   1.272  -2.443  0.00  0.00    -0.281 N 
ATOM      2  C   UNL     1      -0.742   1.585  -1.213  0.00  0.00    +0.201 C 
ATOM      3  O   UNL     1      -1.736   2.268  -1.089  0.00  0.00    -0.278 OA
ATOM      4  H   UNL     1       0.507   0.726  -2.543  0.00  0.00    +0.155 HD
ENDROOT
BRANCH   1   9
ATOM      5  C   UNL     1      -0.648   1.516  -4.910  0.00  0.00    +0.091 A 
ATOM      6  C   UNL     1      -1.481   2.087  -5.861  0.00  0.00    -0.015 A 
ATOM      7  C   UNL     1      -2.546   2.820  -5.414  0.00  0.00    +0.079 A 
ATOM      8  S   UNL     1      -2.388   2.704  -3.642  0.00  0.00    -0.068 S 
ATOM      9  C   UNL     1      -0.957   1.730  -3.562  0.00  0.00    +0.087 A 
ATOM     10  C   UNL     1      -1.220   1.907  -7.334  0.00  0.00    +0.046 C 
BRANCH   7  11
ATOM     11  C   UNL     1      -3.567   3.520  -6.197  0.00  0.00    +0.251 C 
ATOM     12  O   UNL     1      -3.527   3.490  -7.413  0.00  0.00    -0.270 OA
ATOM     13  N   UNL     1      -4.551   4.196  -5.571  0.00  0.00    -0.314 N 
ATOM     14  C   UNL     1      -5.572   4.896  -6.354  0.00  0.00    +0.128 C 
ATOM     15  H   UNL     1      -4.582   4.219  -4.602  0.00  0.00    +0.149 HD
ENDBRANCH   7  11
BRANCH   5  16
ATOM     16  C   UNL     1       0.517   0.716  -5.304  0.00  0.00    +0.342 C 
ATOM     17  O   UNL     1       0.404  -0.484  -5.466  0.00  0.00    -0.245 OA
BRANCH  16  18
ATOM     18  O   UNL     1       1.713   1.311  -5.486  0.00  0.00    -0.461 OA
BRANCH  18  20
ATOM     19  C   UNL     1       4.086   1.304  -6.033  0.00  0.00    +0.048 C 
ATOM     20  C   UNL     1       2.822   0.458  -5.875  0.00  0.00    +0.229 C 
ENDBRANCH  18  20
ENDBRANCH  16  18
ENDBRANCH   5  16
ENDBRANCH   1   9
BRANCH   2  21
ATOM     21  C   UNL     1      -0.013   1.086   0.008  0.00  0.00    +0.016 C 
BRANCH  21  22
ATOM     22  N   UNL     1      -0.709   1.566   1.217  0.00  0.00    +0.389 N 
ATOM     23  H   UNL     1      -1.672   1.210   1.216  0.00  0.00    -0.084 HD
ATOM     24  H   UNL     1      -0.723   2.592   1.214  0.00  0.00    -0.084 HD
BRANCH  22  25
ATOM     25  C   UNL     1      -0.016   1.091   2.429  0.00  0.00    -0.036 C 
BRANCH  25  26
ATOM     26  C   UNL     1      -0.499  -0.294   2.776  0.00  0.00    -0.061 A 
ATOM     27  C   UNL     1      -1.838  -0.612   2.644  0.00  0.00    +0.002 A 
ATOM     28  C   UNL     1      -2.281  -1.883   2.957  0.00  0.00    +0.000 A 
ATOM     29  C   UNL     1      -1.386  -2.834   3.411  0.00  0.00    +0.000 A 
ATOM     30  C   UNL     1      -0.048  -2.515   3.547  0.00  0.00    +0.000 A 
ATOM     31  C   UNL     1       0.395  -1.244   3.230  0.00  0.00    +0.002 A 
ENDBRANCH  25  26
BRANCH  25  32
ATOM     32  C   UNL     1      -0.323   2.043   3.588  0.00  0.00    +0.024 C 
BRANCH  32  33
ATOM     33  C   UNL     1       0.269   3.397   3.295  0.00  0.00    -0.049 A 
ATOM     34  C   UNL     1       1.555   3.693   3.704  0.00  0.00    +0.003 A 
ATOM     35  C   UNL     1       2.099   4.934   3.430  0.00  0.00    +0.000 A 
ATOM     36  C   UNL     1       1.353   5.883   2.758  0.00  0.00    +0.000 A 
ATOM     37  C   UNL     1       0.064   5.590   2.353  0.00  0.00    +0.000 A 
ATOM     38  C   UNL     1      -0.478   4.346   2.622  0.00  0.00    +0.003 A 
ENDBRANCH  32  33
ENDBRANCH  25  32
ENDBRANCH  22  25
ENDBRANCH  21  22
ENDBRANCH   2  21
TORSDOF 11
