REMARK  Name = ZINC52859159
REMARK  5 active torsions:
REMARK  status: ('A' for Active; 'I' for Inactive)
REMARK    1  A    between atoms: C_3  and  N_11
REMARK    2  A    between atoms: C_4  and  C_8
REMARK    3  A    between atoms: C_8  and  N_10
REMARK    4  A    between atoms: N_11  and  C_12
REMARK    5  A    between atoms: C_18  and  O_20
REMARK                            x       y       z     vdW  Elec       q    Type
REMARK                         _______ _______ _______ _____ _____    ______ ____
ROOT
ATOM      1  C   UNL     1      -0.013   1.359  -0.207  0.00  0.00    +0.022 A 
ATOM      2  C   UNL     1       1.158   2.088  -0.161  0.00  0.00    +0.025 A 
ATOM      3  C   UNL     1       2.372   1.445   0.042  0.00  0.00    +0.037 A 
ATOM      4  C   UNL     1       2.401   0.050   0.199  0.00  0.00    +0.025 A 
ATOM      5  C   UNL     1       1.208  -0.675   0.150  0.00  0.00    +0.032 A 
ATOM      6  C   UNL     1       0.012  -0.019  -0.053  0.00  0.00    +0.042 A 
ATOM      7 CL   UNL     1      -1.469  -0.922  -0.113  0.00  0.00    -0.084 Cl
ENDROOT
BRANCH   4   8
ATOM      8  C   UNL     1       3.682  -0.644   0.414  0.00  0.00    +0.079 C 
ATOM      9  S   UNL     1       4.240  -0.938   2.006  0.00  0.00    -0.035 S 
BRANCH   8  10
ATOM     10  N   UNL     1       4.415  -1.049  -0.642  0.00  0.00    -0.352 N 
ATOM     11  H   UNL     1       4.099  -0.882  -1.544  0.00  0.00    +0.143 HD
ATOM     12  H   UNL     1       5.259  -1.506  -0.500  0.00  0.00    +0.143 HD
ENDBRANCH   8  10
ENDBRANCH   4   8
BRANCH   3  13
ATOM     13  N   UNL     1       3.552   2.178   0.089  0.00  0.00    -0.338 N 
ATOM     14  H   UNL     1       4.405   1.721   0.151  0.00  0.00    +0.146 HD
BRANCH  13  15
ATOM     15  C   UNL     1       3.507   3.642   0.043  0.00  0.00    +0.099 C 
ATOM     16  C   UNL     1       3.449   4.106  -1.413  0.00  0.00    +0.025 C 
ATOM     17  C   UNL     1       4.691   3.610  -2.156  0.00  0.00    +0.002 C 
ATOM     18  C   UNL     1       5.945   4.180  -1.490  0.00  0.00    +0.003 C 
ATOM     19  C   UNL     1       6.003   3.716  -0.033  0.00  0.00    +0.033 C 
ATOM     20  C   UNL     1       4.761   4.211   0.710  0.00  0.00    +0.135 C 
BRANCH  20  21
ATOM     21  O   UNL     1       4.816   3.778   2.071  0.00  0.00    -0.390 OA
ATOM     22  H   UNL     1       5.587   4.102   2.556  0.00  0.00    +0.210 HD
ENDBRANCH  20  21
ENDBRANCH  13  15
ENDBRANCH   3  13
TORSDOF 5
