REMARK  Name = ZINC32598015
REMARK  4 active torsions:
REMARK  status: ('A' for Active; 'I' for Inactive)
REMARK    1  A    between atoms: C_6  and  N_7
REMARK    2  A    between atoms: C_8  and  C_10
REMARK    3  A    between atoms: C_10  and  C_11
REMARK    4  A    between atoms: C_11  and  N_12
REMARK                            x       y       z     vdW  Elec       q    Type
REMARK                         _______ _______ _______ _____ _____    ______ ____
ROOT
ATOM      1  N   UNL     1      -1.471  -1.920   1.096  0.00  0.00    -0.241 N 
ATOM      2  C   UNL     1      -1.804  -2.753   2.088  0.00  0.00    +0.226 C 
ATOM      3  O   UNL     1      -2.217  -2.417   3.178  0.00  0.00    -0.275 OA
ATOM      4  C   UNL     1      -1.586  -4.178   1.640  0.00  0.00    +0.092 C 
ATOM      5  C   UNL     1      -0.469  -4.823   2.503  0.00  0.00    +0.020 C 
ATOM      6  C   UNL     1       0.308  -5.646   1.406  0.00  0.00    +0.014 C 
ATOM      7  C   UNL     1       0.529  -4.414   0.430  0.00  0.00    +0.029 C 
ATOM      8  C   UNL     1      -0.994  -4.022   0.210  0.00  0.00    +0.095 C 
ATOM      9  C   UNL     1      -1.024  -2.524  -0.010  0.00  0.00    +0.226 C 
ATOM     10  O   UNL     1      -0.691  -1.960  -1.030  0.00  0.00    -0.275 OA
ATOM     11  C   UNL     1       1.019  -3.305   1.363  0.00  0.00    -0.051 C 
ATOM     12  C   UNL     1       1.590  -2.159   1.020  0.00  0.00    +0.018 C 
ATOM     13  C   UNL     1       1.717  -1.099   2.005  0.00  0.00    +0.047 A 
ATOM     14  C   UNL     1       1.018  -1.009   3.189  0.00  0.00    +0.091 A 
ATOM     15  N   UNL     1       1.291   0.083   3.955  0.00  0.00    -0.311 N 
ATOM     16  H   UNL     1       0.782   0.219   4.921  0.00  0.00    +0.170 HD
ATOM     17  C   UNL     1       2.186   1.004   3.537  0.00  0.00    +0.289 A 
ATOM     18  O   UNL     1       2.540   2.029   4.093  0.00  0.00    -0.260 OA
ATOM     19  S   UNL     1       2.707   0.364   2.008  0.00  0.00    -0.026 S 
ATOM     20  S   UNL     1      -0.146  -2.296   3.601  0.00  0.00    -0.099 S 
ATOM     21  C   UNL     1       0.598  -3.724   2.764  0.00  0.00    +0.083 C 
ENDROOT
BRANCH   1  22
ATOM     22  C   UNL     1      -1.592  -0.464   1.210  0.00  0.00    +0.125 C 
BRANCH  22  23
ATOM     23  C   UNL     1      -2.968  -0.026   0.705  0.00  0.00    +0.115 C 
BRANCH  23  25
ATOM     24  N   UNL     1      -4.268   2.073   0.552  0.00  0.00    -0.285 N 
ATOM     25  C   UNL     1      -3.095   1.471   0.831  0.00  0.00    +0.219 C 
ATOM     26  O   UNL     1      -2.144   2.133   1.188  0.00  0.00    -0.275 OA
ATOM     27  H   UNL     1      -5.155   1.466   0.314  0.00  0.00    +0.155 HD
BRANCH  24  33
ATOM     28  C   UNL     1      -3.278   4.241   0.159  0.00  0.00    +0.025 A 
ATOM     29  C   UNL     1      -3.372   5.618   0.167  0.00  0.00    +0.022 A 
ATOM     30  C   UNL     1      -4.538   6.231   0.592  0.00  0.00    +0.041 A 
ATOM     31  C   UNL     1      -5.614   5.465   1.004  0.00  0.00    +0.022 A 
ATOM     32  C   UNL     1      -5.528   4.087   0.991  0.00  0.00    +0.025 A 
ATOM     33  C   UNL     1      -4.359   3.470   0.566  0.00  0.00    +0.033 A 
ATOM     34 CL   UNL     1      -4.651   7.963   0.608  0.00  0.00    -0.084 Cl
ENDBRANCH  24  33
ENDBRANCH  23  25
ENDBRANCH  22  23
ENDBRANCH   1  22
TORSDOF 4
