REMARK  Name = ZINC33058409
REMARK  11 active torsions:
REMARK  status: ('A' for Active; 'I' for Inactive)
REMARK    1  A    between atoms: C_1  and  C_2
REMARK    2  A    between atoms: C_5  and  C_8
REMARK    3  A    between atoms: C_8  and  C_10
REMARK    4  A    between atoms: C_11  and  N_34
REMARK    5  A    between atoms: C_12  and  S_24
REMARK    6  A    between atoms: C_13  and  N_15
REMARK    7  A    between atoms: N_15  and  C_16
REMARK    8  A    between atoms: C_19  and  C_23
REMARK    9  A    between atoms: C_20  and  C_22
REMARK   10  A    between atoms: S_24  and  C_27
REMARK   11  A    between atoms: C_30  and  C_33
REMARK                            x       y       z     vdW  Elec       q    Type
REMARK                         _______ _______ _______ _____ _____    ______ ____
ROOT
ATOM      1  C   UNL     1       5.520   1.489  -0.094  0.00  0.00    +0.084 A 
ATOM      2  C   UNL     1       5.878   2.777   0.326  0.00  0.00    +0.070 A 
ATOM      3  C   UNL     1       4.922   3.760   0.286  0.00  0.00    +0.143 A 
ATOM      4  C   UNL     1       3.655   3.442  -0.162  0.00  0.00    +0.098 A 
ATOM      5  S   UNL     1       3.804   1.703  -0.535  0.00  0.00    -0.066 S 
ENDROOT
BRANCH   3   6
ATOM      6  S   UNL     1       5.304   5.402   0.798  0.00  0.00    +0.029 S 
ATOM      7  O   UNL     1       6.693   5.589   0.559  0.00  0.00    -0.164 OA
ATOM      8  O   UNL     1       4.313   6.246   0.230  0.00  0.00    -0.164 OA
BRANCH   6   9
ATOM      9  C   UNL     1       5.081   5.469   2.545  0.00  0.00    +0.094 A 
ATOM     10  C   UNL     1       3.851   5.816   3.071  0.00  0.00    +0.027 A 
ATOM     11  C   UNL     1       3.674   5.864   4.442  0.00  0.00    +0.005 A 
ATOM     12  C   UNL     1       4.730   5.573   5.285  0.00  0.00    -0.050 A 
ATOM     13  C   UNL     1       5.961   5.231   4.759  0.00  0.00    +0.005 A 
ATOM     14  C   UNL     1       6.137   5.179   3.389  0.00  0.00    +0.027 A 
ATOM     15  C   UNL     1       4.538   5.629   6.779  0.00  0.00    +0.044 C 
ENDBRANCH   6   9
ENDBRANCH   3   6
BRANCH   2  16
ATOM     16  N   UNL     1       7.167   3.051   0.770  0.00  0.00    -0.355 N 
ATOM     17  H   UNL     1       7.432   4.068   1.095  0.00  0.00    +0.142 HD
ATOM     18  H   UNL     1       7.921   2.251   0.795  0.00  0.00    +0.142 HD
ENDBRANCH   2  16
BRANCH   1  19
ATOM     19  C   UNL     1       6.308   0.326  -0.147  0.00  0.00    +0.202 C 
ATOM     20  O   UNL     1       7.504   0.388   0.085  0.00  0.00    -0.286 OA
BRANCH  19  25
ATOM     21  C   UNL     1       3.890  -4.731  -1.458  0.00  0.00    +0.044 C 
ATOM     22  C   UNL     1       4.523  -3.407  -1.115  0.00  0.00    -0.050 A 
ATOM     23  C   UNL     1       5.841  -3.164  -1.458  0.00  0.00    +0.004 A 
ATOM     24  C   UNL     1       6.426  -1.954  -1.147  0.00  0.00    +0.012 A 
ATOM     25  C   UNL     1       5.686  -0.975  -0.484  0.00  0.00    +0.023 A 
ATOM     26  C   UNL     1       4.359  -1.228  -0.134  0.00  0.00    +0.012 A 
ATOM     27  C   UNL     1       3.784  -2.440  -0.457  0.00  0.00    +0.004 A 
ENDBRANCH  19  25
ENDBRANCH   1  19
BRANCH   4  28
ATOM     28  N   UNL     1       2.548   4.262  -0.285  0.00  0.00    -0.307 N 
ATOM     29  H   UNL     1       2.584   5.295   0.093  0.00  0.00    +0.153 HD
BRANCH  28  30
ATOM     30  C   UNL     1       1.384   3.780  -0.888  0.00  0.00    +0.032 A 
ATOM     31  C   UNL     1       1.469   2.932  -1.986  0.00  0.00    +0.023 A 
ATOM     32  C   UNL     1       0.317   2.457  -2.580  0.00  0.00    +0.005 A 
ATOM     33  C   UNL     1      -0.921   2.829  -2.088  0.00  0.00    -0.047 A 
ATOM     34  C   UNL     1      -1.010   3.667  -0.992  0.00  0.00    -0.046 A 
ATOM     35  C   UNL     1       0.139   4.146  -0.393  0.00  0.00    +0.027 A 
ATOM     36  C   UNL     1      -2.360   4.065  -0.455  0.00  0.00    +0.044 C 
ATOM     37  C   UNL     1      -2.177   2.313  -2.743  0.00  0.00    +0.044 C 
ENDBRANCH  28  30
ENDBRANCH   4  28
TORSDOF 7
