REMARK  Name = ZINC32849694
REMARK  15 active torsions:
REMARK  status: ('A' for Active; 'I' for Inactive)
REMARK    1  A    between atoms: C_1  and  C_2
REMARK    2  A    between atoms: C_2  and  O_3
REMARK    3  A    between atoms: O_3  and  C_4
REMARK    4  A    between atoms: C_4  and  C_6
REMARK    5  A    between atoms: C_10  and  N_11
REMARK    6  A    between atoms: C_12  and  C_14
REMARK    7  A    between atoms: C_14  and  O_15
REMARK    8  A    between atoms: O_15  and  C_16
REMARK    9  A    between atoms: C_18  and  N_24
REMARK   10  A    between atoms: C_21  and  O_22
REMARK   11  A    between atoms: O_22  and  C_23
REMARK   12  A    between atoms: C_27  and  C_33
REMARK   13  A    between atoms: C_27  and  C_34
REMARK   14  A    between atoms: C_29  and  C_31
REMARK   15  A    between atoms: C_29  and  C_32
REMARK                            x       y       z     vdW  Elec       q    Type
REMARK                         _______ _______ _______ _____ _____    ______ ____
ROOT
ATOM      1  C   UNL     1      -3.981   0.940  -0.594  0.00  0.00    +0.091 A 
ATOM      2  C   UNL     1      -2.924   1.590   0.151  0.00  0.00    -0.024 A 
ATOM      3  C   UNL     1      -2.620   2.849  -0.243  0.00  0.00    -0.016 A 
ATOM      4  S   UNL     1      -3.716   3.170  -1.594  0.00  0.00    -0.079 S 
ATOM      5  C   UNL     1      -4.568   1.661  -1.629  0.00  0.00    +0.086 A 
ATOM      6  C   UNL     1      -1.583   3.741   0.356  0.00  0.00    -0.041 C 
ATOM      7  N   UNL     1      -0.750   3.032   1.322  0.00  0.00    +0.389 N 
ATOM      8  C   UNL     1      -0.729   1.580   1.268  0.00  0.00    -0.069 C 
ATOM      9  C   UNL     1      -2.143   0.986   1.311  0.00  0.00    +0.024 C 
ATOM     10  C   UNL     1      -0.013   1.086   0.008  0.00  0.00    -0.010 C 
ATOM     11  C   UNL     1       0.043   1.051   2.490  0.00  0.00    -0.010 C 
ATOM     12  C   UNL     1      -2.297   4.904   1.070  0.00  0.00    -0.005 C 
ATOM     13  C   UNL     1      -0.715   4.334  -0.763  0.00  0.00    -0.005 C 
ATOM     14  H   UNL     1       0.299   3.337   1.196  0.00  0.00    -0.084 HD
ATOM     15  H   UNL     1      -1.083   3.275   2.341  0.00  0.00    -0.084 HD
ENDROOT
BRANCH   5  16
ATOM     16  N   UNL     1      -5.588   1.267  -2.480  0.00  0.00    -0.277 N 
ATOM     17  C   UNL     1      -6.033   2.108  -3.434  0.00  0.00    +0.255 C 
ATOM     18  O   UNL     1      -5.540   3.211  -3.548  0.00  0.00    -0.272 OA
ATOM     19  H   UNL     1      -6.035   0.267  -2.378  0.00  0.00    +0.155 HD
BRANCH  17  20
ATOM     20  C   UNL     1      -7.142   1.680  -4.360  0.00  0.00    +0.325 C 
BRANCH  20  21
ATOM     21  O   UNL     1      -7.433   2.737  -5.276  0.00  0.00    -0.479 OA
BRANCH  21  22
ATOM     22  C   UNL     1      -8.418   2.511  -6.187  0.00  0.00    +0.165 A 
ATOM     23  C   UNL     1      -9.088   1.299  -6.198  0.00  0.00    +0.082 A 
ATOM     24  C   UNL     1     -10.088   1.071  -7.125  0.00  0.00    +0.130 A 
ATOM     25  C   UNL     1     -10.423   2.051  -8.041  0.00  0.00    +0.036 A 
ATOM     26  C   UNL     1      -9.758   3.263  -8.035  0.00  0.00    +0.051 A 
ATOM     27  C   UNL     1      -8.758   3.500  -7.106  0.00  0.00    +0.162 A 
BRANCH  24  28
ATOM     28  N   UNL     1     -10.803  -0.225  -7.136  0.00  0.00    +0.057 N 
ATOM     29  O   UNL     1     -10.510  -1.089  -6.329  0.00  0.00    -0.126 OA
ATOM     30  O   UNL     1     -11.685  -0.427  -7.951  0.00  0.00    -0.126 OA
ENDBRANCH  24  28
BRANCH  27  31
ATOM     31  O   UNL     1      -8.107   4.694  -7.095  0.00  0.00    -0.491 OA
ATOM     32  C   UNL     1      -8.509   5.661  -8.067  0.00  0.00    +0.277 C 
ENDBRANCH  27  31
ENDBRANCH  21  22
ENDBRANCH  20  21
ENDBRANCH  17  20
ENDBRANCH   5  16
BRANCH   1  33
ATOM     33  C   UNL     1      -4.425  -0.420  -0.281  0.00  0.00    +0.342 C 
ATOM     34  O   UNL     1      -5.321  -0.598   0.522  0.00  0.00    -0.245 OA
BRANCH  33  35
ATOM     35  O   UNL     1      -3.839  -1.476  -0.882  0.00  0.00    -0.461 OA
BRANCH  35  37
ATOM     36  C   UNL     1      -3.551  -3.857  -1.302  0.00  0.00    +0.048 C 
ATOM     37  C   UNL     1      -4.330  -2.795  -0.524  0.00  0.00    +0.229 C 
ENDBRANCH  35  37
ENDBRANCH  33  35
ENDBRANCH   1  33
TORSDOF 9
