REMARK  Name = ZINC08793453
REMARK  14 active torsions:
REMARK  status: ('A' for Active; 'I' for Inactive)
REMARK    1  A    between atoms: C_1  and  C_2
REMARK    2  A    between atoms: C_2  and  C_3
REMARK    3  A    between atoms: C_7  and  C_40
REMARK    4  A    between atoms: C_8  and  N_9
REMARK    5  A    between atoms: C_10  and  C_28
REMARK    6  A    between atoms: C_13  and  S_14
REMARK    7  A    between atoms: S_14  and  C_15
REMARK    8  A    between atoms: C_21  and  C_27
REMARK    9  A    between atoms: C_24  and  C_25
REMARK   10  A    between atoms: C_24  and  C_26
REMARK   11  A    between atoms: C_28  and  N_29
REMARK   12  A    between atoms: C_30  and  C_32
REMARK   13  A    between atoms: C_35  and  O_38
REMARK   14  A    between atoms: O_38  and  C_39
REMARK                            x       y       z     vdW  Elec       q    Type
REMARK                         _______ _______ _______ _____ _____    ______ ____
ROOT
ATOM      1  N   UNL     1       1.347   2.031   6.710  0.00  0.00    -0.272 N 
ATOM      2  C   UNL     1       2.229   1.013   6.958  0.00  0.00    +0.156 A 
ATOM      3  N   UNL     1       1.981   0.068   6.096  0.00  0.00    -0.132 NA
ATOM      4  N   UNL     1       1.009   0.411   5.329  0.00  0.00    -0.122 NA
ATOM      5  C   UNL     1       0.578   1.605   5.662  0.00  0.00    +0.197 A 
ENDROOT
BRANCH   1  11
ATOM      6  C   UNL     1       0.424   3.370   8.498  0.00  0.00    -0.023 A 
ATOM      7  C   UNL     1       0.331   4.576   9.166  0.00  0.00    +0.005 A 
ATOM      8  C   UNL     1       1.061   5.667   8.731  0.00  0.00    +0.001 A 
ATOM      9  C   UNL     1       1.885   5.554   7.626  0.00  0.00    +0.005 A 
ATOM     10  C   UNL     1       1.987   4.350   6.958  0.00  0.00    -0.026 A 
ATOM     11  C   UNL     1       1.251   3.254   7.389  0.00  0.00    +0.056 A 
ATOM     12  C   UNL     1       2.890   4.226   5.758  0.00  0.00    +0.046 C 
BRANCH   6  14
ATOM     13  C   UNL     1       0.498   1.322   9.894  0.00  0.00    +0.009 C 
ATOM     14  C   UNL     1      -0.371   2.182   8.974  0.00  0.00    +0.034 C 
ENDBRANCH   6  14
ENDBRANCH   1  11
BRANCH   5  15
ATOM     15  S   UNL     1      -0.738   2.495   4.898  0.00  0.00    -0.074 S 
BRANCH  15  16
ATOM     16  C   UNL     1      -1.229   1.301   3.629  0.00  0.00    +0.124 C 
ATOM     17  C   UNL     1      -2.447   1.839   2.817  0.00  0.00    +0.016 C 
ATOM     18  C   UNL     1      -2.042   3.296   2.435  0.00  0.00    +0.006 C 
ATOM     19  C   UNL     1      -0.878   3.125   1.402  0.00  0.00    +0.015 C 
ATOM     20  C   UNL     1      -0.729   1.579   1.267  0.00  0.00    +0.033 C 
ATOM     21  C   UNL     1      -0.119   1.132   2.603  0.00  0.00    +0.153 C 
ATOM     22  O   UNL     1       1.004   0.732   2.797  0.00  0.00    -0.296 OA
ATOM     23  C   UNL     1      -2.214   1.106   1.448  0.00  0.00    -0.019 C 
ATOM     24  C   UNL     1      -3.124   1.629   0.334  0.00  0.00    +0.012 C 
ATOM     25  C   UNL     1      -2.319  -0.412   1.602  0.00  0.00    +0.012 C 
ATOM     26  C   UNL     1      -0.013   1.086   0.008  0.00  0.00    +0.019 C 
ENDBRANCH  15  16
ENDBRANCH   5  15
BRANCH   2  27
ATOM     27  C   UNL     1       3.292   0.993   8.026  0.00  0.00    +0.181 C 
BRANCH  27  28
ATOM     28  N   UNL     1       4.534   1.556   7.489  0.00  0.00    -0.304 N 
ATOM     29  C   UNL     1       5.629   1.640   8.270  0.00  0.00    +0.244 C 
ATOM     30  O   UNL     1       5.586   1.248   9.421  0.00  0.00    -0.270 OA
ATOM     31  H   UNL     1       4.568   1.868   6.571  0.00  0.00    +0.149 HD
BRANCH  29  32
ATOM     32  C   UNL     1       6.880   2.207   7.729  0.00  0.00    +0.037 A 
ATOM     33  C   UNL     1       6.932   2.652   6.406  0.00  0.00    +0.016 A 
ATOM     34  C   UNL     1       8.100   3.185   5.907  0.00  0.00    +0.046 A 
ATOM     35  C   UNL     1       9.228   3.271   6.714  0.00  0.00    +0.120 A 
ATOM     36  C   UNL     1       9.181   2.824   8.030  0.00  0.00    +0.046 A 
ATOM     37  C   UNL     1       8.016   2.295   8.538  0.00  0.00    +0.016 A 
BRANCH  35  38
ATOM     38  O   UNL     1      10.378   3.792   6.217  0.00  0.00    -0.495 OA
ATOM     39  C   UNL     1      10.356   4.232   4.857  0.00  0.00    +0.277 C 
ENDBRANCH  35  38
ENDBRANCH  29  32
ENDBRANCH  27  28
ENDBRANCH   2  27
TORSDOF 8
