REMARK  Name = ZINC33599587
REMARK  11 active torsions:
REMARK  status: ('A' for Active; 'I' for Inactive)
REMARK    1  A    between atoms: C_1  and  C_2
REMARK    2  A    between atoms: C_2  and  C_3
REMARK    3  A    between atoms: C_7  and  C_40
REMARK    4  A    between atoms: C_8  and  N_9
REMARK    5  A    between atoms: C_14  and  C_32
REMARK    6  A    between atoms: C_17  and  C_22
REMARK    7  A    between atoms: C_17  and  C_29
REMARK    8  A    between atoms: C_22  and  C_23
REMARK    9  A    between atoms: C_34  and  C_39
REMARK   10  A    between atoms: C_37  and  C_38
REMARK   11  A    between atoms: C_40  and  C_41
REMARK                            x       y       z     vdW  Elec       q    Type
REMARK                         _______ _______ _______ _____ _____    ______ ____
ROOT
ATOM      1  N   UNL     1       4.340   3.124  -0.978  0.00  0.00    -0.209 N 
ATOM      2  C   UNL     1       3.703   4.281  -1.329  0.00  0.00    +0.229 C 
ATOM      3  O   UNL     1       4.081   5.109  -2.130  0.00  0.00    -0.275 OA
ATOM      4  C   UNL     1       2.443   4.316  -0.523  0.00  0.00    +0.077 C 
ATOM      5  C   UNL     1       1.122   4.758  -1.131  0.00  0.00    -0.026 C 
ATOM      6  N   UNL     1       0.106   3.781  -0.634  0.00  0.00    +0.395 N 
ATOM      7  C   UNL     1       0.839   2.680   0.082  0.00  0.00    +0.048 C 
ATOM      8  C   UNL     1       2.186   2.761  -0.509  0.00  0.00    +0.086 C 
ATOM      9  C   UNL     1       3.518   2.246  -0.315  0.00  0.00    +0.229 C 
ATOM     10  O   UNL     1       3.843   1.254   0.301  0.00  0.00    -0.275 OA
ATOM     11  H   UNL     1      -0.586   4.289   0.054  0.00  0.00    -0.083 HD
ATOM     12  H   UNL     1      -0.457   3.373  -1.486  0.00  0.00    -0.083 HD
ENDROOT
BRANCH   5  13
ATOM     13  C   UNL     1       1.197   4.712  -2.635  0.00  0.00    -0.057 A 
ATOM     14  C   UNL     1       0.880   3.547  -3.308  0.00  0.00    +0.005 A 
ATOM     15  C   UNL     1       0.949   3.505  -4.688  0.00  0.00    -0.050 A 
ATOM     16  C   UNL     1       1.334   4.629  -5.395  0.00  0.00    +0.003 A 
ATOM     17  C   UNL     1       1.650   5.794  -4.722  0.00  0.00    +0.004 A 
ATOM     18  C   UNL     1       1.577   5.837  -3.342  0.00  0.00    -0.049 A 
ATOM     19  C   UNL     1       1.917   7.109  -2.609  0.00  0.00    +0.044 C 
ATOM     20  C   UNL     1       0.603   2.235  -5.421  0.00  0.00    +0.044 C 
ENDBRANCH   5  13
BRANCH   1  26
ATOM     21  C   UNL     1       6.037   2.232  -2.451  0.00  0.00    -0.026 A 
ATOM     22  C   UNL     1       7.365   1.980  -2.732  0.00  0.00    +0.005 A 
ATOM     23  C   UNL     1       8.346   2.342  -1.827  0.00  0.00    +0.001 A 
ATOM     24  C   UNL     1       8.001   2.964  -0.641  0.00  0.00    +0.005 A 
ATOM     25  C   UNL     1       6.675   3.225  -0.357  0.00  0.00    -0.026 A 
ATOM     26  C   UNL     1       5.688   2.861  -1.264  0.00  0.00    +0.050 A 
BRANCH  21  28
ATOM     27  C   UNL     1       4.631   3.021  -4.335  0.00  0.00    +0.009 C 
ATOM     28  C   UNL     1       4.968   1.831  -3.434  0.00  0.00    +0.033 C 
ENDBRANCH  21  28
BRANCH  25  29
ATOM     29  C   UNL     1       6.299   3.902   0.936  0.00  0.00    +0.033 C 
ATOM     30  C   UNL     1       5.936   2.843   1.979  0.00  0.00    +0.009 C 
ENDBRANCH  25  29
ENDBRANCH   1  26
BRANCH   7  31
ATOM     31  C   UNL     1       0.208   1.342  -0.205  0.00  0.00    +0.346 C 
ATOM     32  O   UNL     1       0.902   0.359  -0.322  0.00  0.00    -0.248 OA
ATOM     33  O   UNL     1      -1.125   1.241  -0.330  0.00  0.00    -0.248 OA
ENDBRANCH   7  31
BRANCH   7  34
ATOM     34  C   UNL     1       0.884   2.946   1.588  0.00  0.00    +0.003 C 
BRANCH  34  35
ATOM     35  C   UNL     1      -0.522   2.804   2.173  0.00  0.00    -0.012 C 
ATOM     36  C   UNL     1      -1.429   3.892   1.592  0.00  0.00    +0.003 C 
ATOM     37  C   UNL     1      -2.835   3.750   2.178  0.00  0.00    +0.000 C 
ATOM     38  C   UNL     1      -2.772   3.898   3.699  0.00  0.00    +0.000 C 
ATOM     39  C   UNL     1      -1.866   2.810   4.280  0.00  0.00    +0.000 C 
ATOM     40  C   UNL     1      -0.459   2.952   3.695  0.00  0.00    +0.003 C 
ENDBRANCH  34  35
ENDBRANCH   7  34
TORSDOF 7
