REMARK  Name = ZINC16958158
REMARK  9 active torsions:
REMARK  status: ('A' for Active; 'I' for Inactive)
REMARK    1  A    between atoms: C_7  and  C_12
REMARK    2  A    between atoms: C_12  and  C_14
REMARK    3  A    between atoms: C_12  and  N_32
REMARK    4  A    between atoms: C_14  and  C_21
REMARK    5  A    between atoms: N_15  and  N_16
REMARK    6  A    between atoms: N_16  and  C_17
REMARK    7  A    between atoms: C_17  and  N_19
REMARK    8  A    between atoms: N_19  and  N_20
REMARK    9  A    between atoms: N_23  and  C_24
REMARK                            x       y       z     vdW  Elec       q    Type
REMARK                         _______ _______ _______ _____ _____    ______ ____
ROOT
ATOM      1  C   UNL     1       0.858  -4.071   1.376  0.00  0.00    +0.154 C 
ATOM      2  N   UNL     1       1.052  -4.677   0.241  0.00  0.00    -0.178 NA
ENDROOT
BRANCH   1   3
ATOM      3  C   UNL     1       0.454  -4.839   2.557  0.00  0.00    +0.266 C 
ATOM      4  O   UNL     1       0.415  -6.054   2.508  0.00  0.00    -0.268 OA
ATOM      5  N   UNL     1       0.126  -4.199   3.697  0.00  0.00    -0.280 N 
ATOM      6  H   UNL     1       0.272  -3.244   3.776  0.00  0.00    +0.155 HD
BRANCH   5   7
ATOM      7  C   UNL     1      -0.426  -4.914   4.765  0.00  0.00    +0.035 A 
ATOM      8  C   UNL     1      -1.225  -4.264   5.698  0.00  0.00    +0.025 A 
ATOM      9  C   UNL     1      -1.769  -4.971   6.752  0.00  0.00    +0.023 A 
ATOM     10  C   UNL     1      -1.519  -6.326   6.880  0.00  0.00    +0.059 A 
ATOM     11  C   UNL     1      -0.723  -6.977   5.953  0.00  0.00    +0.061 A 
ATOM     12  C   UNL     1      -0.181  -6.275   4.893  0.00  0.00    +0.044 A 
ATOM     13 CL   UNL     1      -0.411  -8.676   6.118  0.00  0.00    -0.082 Cl
ATOM     14 CL   UNL     1      -2.205  -7.212   8.207  0.00  0.00    -0.082 Cl
ENDBRANCH   5   7
ENDBRANCH   1   3
BRANCH   2  15
ATOM     15  N   UNL     1       1.071  -6.077   0.188  0.00  0.00    -0.217 N 
ATOM     16  H   UNL     1       0.835  -6.595   0.973  0.00  0.00    +0.176 HD
BRANCH  15  17
ATOM     17  C   UNL     1       1.419  -6.703  -0.954  0.00  0.00    +0.164 C 
ATOM     18  S   UNL     1       1.443  -8.414  -1.018  0.00  0.00    -0.016 S 
BRANCH  17  19
ATOM     19  N   UNL     1       1.747  -5.983  -2.045  0.00  0.00    -0.264 N 
ATOM     20  H   UNL     1       1.997  -6.434  -2.866  0.00  0.00    +0.168 HD
BRANCH  19  21
ATOM     21  N   UNL     1       1.728  -4.618  -1.993  0.00  0.00    -0.255 NA
ATOM     22  H   UNL     1       1.995  -4.219  -2.881  0.00  0.00    +0.140 HD
ATOM     23  H   UNL     1       0.823  -4.280  -1.703  0.00  0.00    +0.140 HD
ENDBRANCH  19  21
ENDBRANCH  17  19
ENDBRANCH  15  17
ENDBRANCH   2  15
BRANCH   1  24
ATOM     24  C   UNL     1       1.050  -2.579   1.477  0.00  0.00    +0.269 C 
BRANCH  24  31
ATOM     25  C   UNL     1       1.311   1.810   0.509  0.00  0.00    +0.000 A 
ATOM     26  C   UNL     1       2.631   2.060   0.179  0.00  0.00    +0.001 A 
ATOM     27  C   UNL     1       3.477   1.020  -0.144  0.00  0.00    +0.015 A 
ATOM     28  C   UNL     1       2.998  -0.292  -0.137  0.00  0.00    +0.066 A 
ATOM     29  C   UNL     1       1.663  -0.533   0.199  0.00  0.00    +0.009 A 
ATOM     30  C   UNL     1       0.829   0.512   0.519  0.00  0.00    +0.008 A 
ATOM     31  C   UNL     1       1.468  -2.026   0.113  0.00  0.00    +0.243 C 
ATOM     32  O   UNL     1       2.750  -2.586  -0.282  0.00  0.00    -0.450 OA
ATOM     33  C   UNL     1       3.638  -1.588  -0.428  0.00  0.00    +0.340 C 
ATOM     34  O   UNL     1       4.799  -1.733  -0.752  0.00  0.00    -0.245 OA
ENDBRANCH  24  31
BRANCH  24  35
ATOM     35  N   UNL     1      -0.207  -1.953   1.894  0.00  0.00    +0.036 N 
ATOM     36  O   UNL     1      -1.206  -2.076   1.207  0.00  0.00    -0.131 OA
ATOM     37  O   UNL     1      -0.253  -1.309   2.926  0.00  0.00    -0.131 OA
ENDBRANCH  24  35
ENDBRANCH   1  24
TORSDOF 9
