REMARK  Name = ZINC09309406
REMARK  10 active torsions:
REMARK  status: ('A' for Active; 'I' for Inactive)
REMARK    1  A    between atoms: C_1  and  C_2
REMARK    2  A    between atoms: C_2  and  O_3
REMARK    3  A    between atoms: O_3  and  C_4
REMARK    4  A    between atoms: C_7  and  N_10
REMARK    5  A    between atoms: C_11  and  C_29
REMARK    6  A    between atoms: C_14  and  S_15
REMARK    7  A    between atoms: S_15  and  C_16
REMARK    8  A    between atoms: C_16  and  C_17
REMARK    9  A    between atoms: N_19  and  C_20
REMARK   10  A    between atoms: C_23  and  C_26
REMARK                            x       y       z     vdW  Elec       q    Type
REMARK                         _______ _______ _______ _____ _____    ______ ____
ROOT
ATOM      1  N   UNL     1      -4.235   1.413  -0.219  0.00  0.00    -0.270 N 
ATOM      2  C   UNL     1      -3.012   0.781  -0.167  0.00  0.00    +0.169 A 
ATOM      3  N   UNL     1      -3.244  -0.490   0.067  0.00  0.00    -0.128 NA
ATOM      4  N   UNL     1      -4.509  -0.696   0.160  0.00  0.00    -0.122 NA
ATOM      5  C   UNL     1      -5.165   0.431  -0.010  0.00  0.00    +0.197 A 
ENDROOT
BRANCH   2   6
ATOM      6  C   UNL     1      -1.688   1.415  -0.337  0.00  0.00    +0.020 A 
ATOM      7  C   UNL     1      -1.584   2.670  -0.940  0.00  0.00    +0.013 A 
ATOM      8  C   UNL     1      -0.346   3.260  -1.091  0.00  0.00    +0.021 A 
ATOM      9  C   UNL     1       0.793   2.607  -0.650  0.00  0.00    +0.041 A 
ATOM     10  C   UNL     1       0.697   1.360  -0.056  0.00  0.00    +0.021 A 
ATOM     11  C   UNL     1      -0.535   0.760   0.100  0.00  0.00    +0.013 A 
ATOM     12 CL   UNL     1       2.348   3.355  -0.844  0.00  0.00    -0.084 Cl
ENDBRANCH   2   6
BRANCH   1  16
ATOM     13  C   UNL     1      -4.954   5.468  -0.881  0.00  0.00    +0.121 A 
ATOM     14  C   UNL     1      -5.333   4.532  -1.832  0.00  0.00    +0.047 A 
ATOM     15  C   UNL     1      -5.096   3.190  -1.614  0.00  0.00    +0.030 A 
ATOM     16  C   UNL     1      -4.477   2.777  -0.442  0.00  0.00    +0.051 A 
ATOM     17  C   UNL     1      -4.103   3.713   0.512  0.00  0.00    +0.030 A 
ATOM     18  C   UNL     1      -4.336   5.056   0.290  0.00  0.00    +0.047 A 
BRANCH  13  19
ATOM     19  O   UNL     1      -5.188   6.790  -1.097  0.00  0.00    -0.492 OA
BRANCH  19  21
ATOM     20  C   UNL     1      -5.116   9.129  -0.493  0.00  0.00    +0.048 C 
ATOM     21  C   UNL     1      -4.771   7.698  -0.075  0.00  0.00    +0.225 C 
ENDBRANCH  19  21
ENDBRANCH  13  19
ENDBRANCH   1  16
BRANCH   5  22
ATOM     22  S   UNL     1      -6.914   0.640   0.031  0.00  0.00    -0.076 S 
BRANCH  22  23
ATOM     23  C   UNL     1      -7.426  -1.066   0.356  0.00  0.00    +0.173 C 
BRANCH  23  24
ATOM     24  C   UNL     1      -8.930  -1.132   0.435  0.00  0.00    +0.227 C 
ATOM     25  O   UNL     1      -9.590  -0.126   0.286  0.00  0.00    -0.275 OA
ATOM     26  N   UNL     1      -9.540  -2.310   0.670  0.00  0.00    -0.285 N 
ATOM     27  H   UNL     1      -9.012  -3.102   0.857  0.00  0.00    +0.155 HD
BRANCH  26  28
ATOM     28  C   UNL     1     -10.932  -2.391   0.646  0.00  0.00    +0.033 A 
ATOM     29  C   UNL     1     -11.697  -1.328   1.116  0.00  0.00    +0.024 A 
ATOM     30  C   UNL     1     -13.072  -1.403   1.089  0.00  0.00    +0.015 A 
ATOM     31  C   UNL     1     -13.698  -2.552   0.598  0.00  0.00    +0.037 A 
ATOM     32  C   UNL     1     -12.927  -3.620   0.132  0.00  0.00    +0.015 A 
ATOM     33  C   UNL     1     -11.553  -3.537   0.157  0.00  0.00    +0.024 A 
BRANCH  31  34
ATOM     34  C   UNL     1     -15.172  -2.637   0.573  0.00  0.00    +0.242 C 
ATOM     35  O   UNL     1     -15.715  -3.637   0.145  0.00  0.00    -0.270 OA
ATOM     36  N   UNL     1     -15.914  -1.606   1.022  0.00  0.00    -0.325 N 
ATOM     37  H   UNL     1     -15.481  -0.808   1.363  0.00  0.00    +0.145 HD
ATOM     38  H   UNL     1     -16.883  -1.663   1.006  0.00  0.00    +0.145 HD
ENDBRANCH  31  34
ENDBRANCH  26  28
ENDBRANCH  23  24
ENDBRANCH  22  23
ENDBRANCH   5  22
TORSDOF 9
