REMARK  Name = ZINC36005438
REMARK  14 active torsions:
REMARK  status: ('A' for Active; 'I' for Inactive)
REMARK    1  A    between atoms: C_1  and  C_2
REMARK    2  A    between atoms: C_2  and  C_3
REMARK    3  A    between atoms: C_3  and  N_4
REMARK    4  A    between atoms: N_11  and  C_14
REMARK    5  A    between atoms: C_14  and  C_15
REMARK    6  A    between atoms: C_16  and  C_33
REMARK    7  A    between atoms: C_17  and  C_24
REMARK    8  A    between atoms: N_22  and  C_23
REMARK    9  A    between atoms: C_27  and  C_30
REMARK   10  A    between atoms: C_30  and  C_31
REMARK   11  A    between atoms: C_30  and  C_32
REMARK   12  A    between atoms: C_33  and  O_35
REMARK   13  A    between atoms: O_35  and  C_36
REMARK   14  A    between atoms: C_36  and  C_37
REMARK                            x       y       z     vdW  Elec       q    Type
REMARK                         _______ _______ _______ _____ _____    ______ ____
ROOT
ATOM      1  C   UNL     1       5.625  -6.449   3.201  0.00  0.00    +0.010 C 
ATOM      2  C   UNL     1       5.971  -7.742   3.021  0.00  0.00    +0.076 C 
ATOM      3  C   UNL     1       6.754  -8.423   4.125  0.00  0.00    +0.143 C 
ATOM      4  N   UNL     1       7.075  -7.614   5.312  0.00  0.00    -0.288 N 
ATOM      5  C   UNL     1       6.660  -6.332   5.346  0.00  0.00    +0.307 C 
ATOM      6  O   UNL     1       6.920  -5.655   6.322  0.00  0.00    -0.252 OA
ATOM      7  N   UNL     1       5.974  -5.778   4.338  0.00  0.00    -0.264 N 
ATOM      8  C   UNL     1       5.571  -4.375   4.465  0.00  0.00    +0.139 C 
ATOM      9  H   UNL     1       7.574  -7.994   6.053  0.00  0.00    +0.151 HD
ENDROOT
BRANCH   3  10
ATOM     10  C   UNL     1       8.050  -8.920   3.538  0.00  0.00    -0.022 A 
ATOM     11  C   UNL     1       9.106  -8.046   3.356  0.00  0.00    +0.006 A 
ATOM     12  C   UNL     1      10.294  -8.502   2.817  0.00  0.00    +0.004 A 
ATOM     13  C   UNL     1      10.427  -9.831   2.460  0.00  0.00    -0.045 A 
ATOM     14  C   UNL     1       9.371 -10.704   2.642  0.00  0.00    +0.004 A 
ATOM     15  C   UNL     1       8.184 -10.250   3.185  0.00  0.00    +0.006 A 
BRANCH  13  16
ATOM     16  C   UNL     1      11.723 -10.327   1.871  0.00  0.00    +0.013 C 
ATOM     17  C   UNL     1      12.302 -11.424   2.766  0.00  0.00    +0.012 C 
ATOM     18  C   UNL     1      11.464 -10.892   0.473  0.00  0.00    +0.012 C 
ENDBRANCH  13  16
ENDBRANCH   3  10
BRANCH   2  19
ATOM     19  C   UNL     1       5.614  -8.437   1.842  0.00  0.00    +0.339 C 
ATOM     20  O   UNL     1       5.027  -7.856   0.948  0.00  0.00    -0.245 OA
BRANCH  19  21
ATOM     21  O   UNL     1       5.925  -9.743   1.708  0.00  0.00    -0.462 OA
BRANCH  21  22
ATOM     22  C   UNL     1       5.534 -10.381   0.491  0.00  0.00    +0.229 C 
ATOM     23  C   UNL     1       5.968 -11.848   0.522  0.00  0.00    +0.048 C 
ENDBRANCH  21  22
ENDBRANCH  19  21
ENDBRANCH   2  19
BRANCH   1  24
ATOM     24  C   UNL     1       4.846  -5.733   2.128  0.00  0.00    -0.026 C 
BRANCH  24  32
ATOM     25  N   UNL     1       0.421  -3.803   4.547  0.00  0.00    -0.299 N 
ATOM     26  C   UNL     1       0.065  -4.266   3.332  0.00  0.00    +0.302 C 
ATOM     27  O   UNL     1      -0.749  -3.656   2.664  0.00  0.00    -0.253 OA
ATOM     28  N   UNL     1       0.609  -5.404   2.858  0.00  0.00    -0.287 N 
ATOM     29  C   UNL     1       0.277  -5.833   1.485  0.00  0.00    +0.107 C 
ATOM     30  C   UNL     1       1.523  -6.365   0.754  0.00  0.00    +0.000 C 
ATOM     31  C   UNL     1       2.716  -5.502   1.100  0.00  0.00    -0.077 C 
ATOM     32  N   UNL     1       3.425  -6.091   2.234  0.00  0.00    +0.384 N 
ATOM     33  C   UNL     1       2.957  -5.686   3.504  0.00  0.00    -0.059 C 
ATOM     34  C   UNL     1       1.504  -6.158   3.711  0.00  0.00    +0.091 C 
ATOM     35  H   UNL     1       1.013  -4.325   5.110  0.00  0.00    +0.150 HD
ATOM     36  H   UNL     1       3.348  -7.095   2.171  0.00  0.00    -0.081 HD
BRANCH  25  37
ATOM     37  C   UNL     1      -0.085  -2.511   5.016  0.00  0.00    +0.105 C 
BRANCH  37  39
ATOM     38  C   UNL     1      -0.062  -0.875   6.904  0.00  0.00    +0.005 C 
ATOM     39  C   UNL     1       0.467  -2.224   6.414  0.00  0.00    +0.015 C 
ENDBRANCH  37  39
ENDBRANCH  25  37
ENDBRANCH  24  32
ENDBRANCH   1  24
TORSDOF 9
