REMARK  Name = ZINC02961781
REMARK  13 active torsions:
REMARK  status: ('A' for Active; 'I' for Inactive)
REMARK    1  A    between atoms: C_1  and  C_2
REMARK    2  A    between atoms: C_2  and  N_3
REMARK    3  A    between atoms: N_3  and  C_4
REMARK    4  A    between atoms: N_3  and  C_6
REMARK    5  A    between atoms: C_4  and  C_5
REMARK    6  A    between atoms: C_6  and  C_7
REMARK    7  A    between atoms: C_7  and  N_8
REMARK    8  A    between atoms: C_21  and  S_22
REMARK    9  A    between atoms: S_22  and  C_23
REMARK   10  A    between atoms: C_23  and  C_24
REMARK   11  A    between atoms: N_26  and  C_27
REMARK   12  A    between atoms: C_27  and  C_28
REMARK   13  A    between atoms: C_28  and  C_29
REMARK                            x       y       z     vdW  Elec       q    Type
REMARK                         _______ _______ _______ _____ _____    ______ ____
ROOT
ATOM      1  N   UNL     1       1.354  -4.018  -2.684  0.00  0.00    -0.289 N 
ATOM      2  C   UNL     1       2.205  -4.836  -2.022  0.00  0.00    +0.269 A 
ATOM      3  O   UNL     1       3.094  -4.380  -1.322  0.00  0.00    -0.266 OA
ATOM      4  C   UNL     1       2.037  -6.217  -2.160  0.00  0.00    +0.103 A 
ATOM      5  C   UNL     1       1.025  -6.749  -2.956  0.00  0.00    +0.094 A 
ATOM      6  C   UNL     1       0.955  -8.220  -3.019  0.00  0.00    +0.015 A 
ATOM      7  C   UNL     1       0.032  -9.007  -3.747  0.00  0.00    +0.011 A 
ATOM      8  C   UNL     1       0.092 -10.365  -3.706  0.00  0.00    +0.001 A 
ATOM      9  C   UNL     1       1.055 -11.025  -2.955  0.00  0.00    +0.001 A 
ATOM     10  C   UNL     1       1.973 -10.291  -2.231  0.00  0.00    +0.016 A 
ATOM     11  C   UNL     1       1.920  -8.911  -2.265  0.00  0.00    +0.022 A 
ATOM     12  S   UNL     1       2.883  -7.630  -1.504  0.00  0.00    -0.081 S 
ATOM     13  N   UNL     1       0.213  -5.856  -3.588  0.00  0.00    -0.222 NA
ATOM     14  C   UNL     1       0.368  -4.564  -3.453  0.00  0.00    +0.173 A 
ENDROOT
BRANCH   1  15
ATOM     15  C   UNL     1       1.487  -2.563  -2.573  0.00  0.00    +0.109 C 
BRANCH  15  16
ATOM     16  C   UNL     1       0.648  -2.063  -1.395  0.00  0.00    -0.057 C 
BRANCH  16  17
ATOM     17  N   UNL     1       0.877  -0.624  -1.208  0.00  0.00    +0.380 N 
ATOM     18  H   UNL     1       1.865  -0.451  -1.102  0.00  0.00    -0.082 HD
BRANCH  17  20
ATOM     19  C   UNL     1       0.723   1.592  -2.239  0.00  0.00    -0.017 C 
ATOM     20  C   UNL     1       0.374   0.108  -2.378  0.00  0.00    -0.082 C 
ENDBRANCH  17  20
BRANCH  17  21
ATOM     21  C   UNL     1       0.169  -0.169  -0.004  0.00  0.00    -0.082 C 
ATOM     22  C   UNL     1       0.798  -0.814   1.233  0.00  0.00    -0.017 C 
ENDBRANCH  17  21
ENDBRANCH  16  17
ENDBRANCH  15  16
ENDBRANCH   1  15
BRANCH  14  23
ATOM     23  S   UNL     1      -0.737  -3.487  -4.303  0.00  0.00    -0.078 S 
BRANCH  23  24
ATOM     24  C   UNL     1      -1.858  -4.611  -5.180  0.00  0.00    +0.173 C 
BRANCH  24  25
ATOM     25  C   UNL     1      -2.868  -3.808  -5.959  0.00  0.00    +0.223 C 
ATOM     26  O   UNL     1      -2.834  -2.596  -5.925  0.00  0.00    -0.275 OA
ATOM     27  N   UNL     1      -3.808  -4.436  -6.692  0.00  0.00    -0.314 N 
ATOM     28  H   UNL     1      -3.835  -5.405  -6.719  0.00  0.00    +0.149 HD
BRANCH  27  29
ATOM     29  C   UNL     1      -4.789  -3.654  -7.449  0.00  0.00    +0.108 C 
BRANCH  29  30
ATOM     30  C   UNL     1      -5.735  -4.603  -8.189  0.00  0.00    +0.049 C 
BRANCH  30  31
ATOM     31  C   UNL     1      -6.745  -3.799  -8.967  0.00  0.00    -0.072 C 
ATOM     32  C   UNL     1      -6.497  -3.558 -10.214  0.00  0.00    -0.028 C 
ATOM     33  C   UNL     1      -7.401  -2.765 -11.113  0.00  0.00    +0.027 C 
ATOM     34  C   UNL     1      -8.797  -2.659 -10.496  0.00  0.00    +0.004 C 
ATOM     35  C   UNL     1      -8.650  -2.205  -9.038  0.00  0.00    +0.005 C 
ATOM     36  C   UNL     1      -7.977  -3.332  -8.249  0.00  0.00    +0.030 C 
ENDBRANCH  30  31
ENDBRANCH  29  30
ENDBRANCH  27  29
ENDBRANCH  24  25
ENDBRANCH  23  24
ENDBRANCH  14  23
TORSDOF 11
