REMARK  Name = ZINC14773559
REMARK  15 active torsions:
REMARK  status: ('A' for Active; 'I' for Inactive)
REMARK    1  A    between atoms: C_1  and  C_2
REMARK    2  A    between atoms: C_2  and  C_3
REMARK    3  A    between atoms: C_3  and  C_4
REMARK    4  A    between atoms: C_4  and  N_5
REMARK    5  A    between atoms: C_6  and  N_35
REMARK    6  A    between atoms: C_7  and  N_14
REMARK    7  A    between atoms: N_14  and  C_15
REMARK    8  A    between atoms: C_15  and  C_16
REMARK    9  A    between atoms: C_16  and  C_17
REMARK   10  A    between atoms: C_17  and  C_18
REMARK   11  A    between atoms: C_17  and  C_19
REMARK   12  A    between atoms: C_20  and  C_22
REMARK   13  A    between atoms: C_22  and  C_23
REMARK   14  A    between atoms: C_23  and  N_24
REMARK   15  A    between atoms: N_31  and  C_34
REMARK                            x       y       z     vdW  Elec       q    Type
REMARK                         _______ _______ _______ _____ _____    ______ ____
ROOT
ATOM      1  N   UNL     1      -1.365  -0.513   0.014  0.00  0.00    -0.264 N 
ATOM      2  C   UNL     1      -1.864  -0.845   1.223  0.00  0.00    +0.222 C 
ATOM      3  O   UNL     1      -2.956  -1.366   1.306  0.00  0.00    -0.275 OA
ENDROOT
BRANCH   1   6
ATOM      4  N   UNL     1      -2.602  -1.714  -3.231  0.00  0.00    -0.280 N 
ATOM      5  C   UNL     1      -1.809  -1.585  -2.114  0.00  0.00    +0.127 A 
ATOM      6  C   UNL     1      -2.157  -0.668  -1.143  0.00  0.00    +0.140 A 
ATOM      7  C   UNL     1      -3.319   0.105  -1.324  0.00  0.00    +0.277 A 
ATOM      8  O   UNL     1      -3.652   0.919  -0.480  0.00  0.00    -0.266 OA
ATOM      9  N   UNL     1      -4.058  -0.057  -2.439  0.00  0.00    -0.273 N 
ATOM     10  H   UNL     1      -4.879   0.498  -2.573  0.00  0.00    +0.173 HD
ATOM     11  C   UNL     1      -3.703  -0.956  -3.375  0.00  0.00    +0.331 A 
ATOM     12  O   UNL     1      -4.391  -1.085  -4.369  0.00  0.00    -0.246 OA
BRANCH   5  13
ATOM     13  N   UNL     1      -0.683  -2.360  -1.967  0.00  0.00    -0.343 N 
ATOM     14  H   UNL     1      -0.090  -2.215  -1.214  0.00  0.00    +0.144 HD
ATOM     15  H   UNL     1      -0.483  -3.052  -2.616  0.00  0.00    +0.144 HD
ENDBRANCH   5  13
BRANCH   4  16
ATOM     16  C   UNL     1      -2.244  -2.683  -4.269  0.00  0.00    +0.128 C 
BRANCH  16  17
ATOM     17  C   UNL     1      -2.902  -4.029  -3.959  0.00  0.00    +0.021 C 
BRANCH  17  19
ATOM     18  C   UNL     1      -3.187  -6.388  -4.734  0.00  0.00    +0.004 C 
ATOM     19  C   UNL     1      -2.529  -5.042  -5.044  0.00  0.00    -0.002 C 
ENDBRANCH  17  19
ENDBRANCH  16  17
ENDBRANCH   4  16
ENDBRANCH   1   6
BRANCH   1  20
ATOM     20  C   UNL     1      -0.000   0.009  -0.097  0.00  0.00    +0.114 C 
BRANCH  20  21
ATOM     21  C   UNL     1      -0.037   1.538  -0.091  0.00  0.00    +0.022 C 
BRANCH  21  22
ATOM     22  C   UNL     1       1.388   2.083  -0.207  0.00  0.00    -0.016 C 
ATOM     23  C   UNL     1       1.972   1.697  -1.568  0.00  0.00    +0.007 C 
ATOM     24  C   UNL     1       1.364   3.607  -0.077  0.00  0.00    +0.007 C 
ENDBRANCH  21  22
ENDBRANCH  20  21
ENDBRANCH   1  20
BRANCH   2  25
ATOM     25  C   UNL     1      -1.065  -0.568   2.470  0.00  0.00    +0.118 C 
BRANCH  25  26
ATOM     26  C   UNL     1      -1.852  -1.036   3.695  0.00  0.00    +0.136 C 
BRANCH  26  27
ATOM     27  N   UNL     1      -1.075  -0.767   4.908  0.00  0.00    -0.292 N 
ATOM     28  C   UNL     1      -1.123   0.402   5.663  0.00  0.00    +0.070 A 
ATOM     29  C   UNL     1      -1.841   1.583   5.546  0.00  0.00    +0.028 A 
ATOM     30  C   UNL     1      -1.669   2.587   6.477  0.00  0.00    +0.002 A 
ATOM     31  C   UNL     1      -0.783   2.421   7.528  0.00  0.00    +0.002 A 
ATOM     32  C   UNL     1      -0.064   1.249   7.654  0.00  0.00    +0.028 A 
ATOM     33  C   UNL     1      -0.230   0.234   6.723  0.00  0.00    +0.070 A 
ATOM     34  N   UNL     1       0.334  -1.031   6.578  0.00  0.00    -0.295 N 
ATOM     35  C   UNL     1      -0.198  -1.609   5.484  0.00  0.00    +0.330 A 
ATOM     36  O   UNL     1       0.077  -2.722   5.077  0.00  0.00    -0.246 OA
ATOM     37  C   UNL     1       1.329  -1.633   7.468  0.00  0.00    +0.154 C 
ENDBRANCH  26  27
ENDBRANCH  25  26
ENDBRANCH   2  25
TORSDOF 11
