REMARK  Name = ZINC39666149
REMARK  11 active torsions:
REMARK  status: ('A' for Active; 'I' for Inactive)
REMARK    1  A    between atoms: C_1  and  C_2
REMARK    2  A    between atoms: C_2  and  C_3
REMARK    3  A    between atoms: C_3  and  C_5
REMARK    4  A    between atoms: C_3  and  C_11
REMARK    5  A    between atoms: C_15  and  C_24
REMARK    6  A    between atoms: N_26  and  C_27
REMARK    7  A    between atoms: C_27  and  C_28
REMARK    8  A    between atoms: C_28  and  C_30
REMARK    9  A    between atoms: C_28  and  O_31
REMARK   10  A    between atoms: O_31  and  C_32
REMARK   11  A    between atoms: C_35  and  C_38
REMARK                            x       y       z     vdW  Elec       q    Type
REMARK                         _______ _______ _______ _____ _____    ______ ____
ROOT
ATOM      1  C   UNL     1       0.130  -0.044   2.360  0.00  0.00    +0.223 C 
ATOM      2  O   UNL     1      -0.124  -0.856   3.224  0.00  0.00    -0.275 OA
ATOM      3  N   UNL     1      -0.181   1.254   2.542  0.00  0.00    -0.300 N 
ATOM      4  C   UNL     1       0.133   2.397   1.652  0.00  0.00    +0.121 C 
ATOM      5  C   UNL     1      -1.130   3.285   1.696  0.00  0.00    +0.100 C 
ATOM      6  C   UNL     1      -1.813   2.931   3.028  0.00  0.00    -0.004 C 
ATOM      7  C   UNL     1      -0.921   1.861   3.674  0.00  0.00    +0.115 C 
ATOM      8  C   UNL     1      -1.896   4.163   3.923  0.00  0.00    -0.010 C 
ATOM      9  C   UNL     1      -2.630   3.800   5.217  0.00  0.00    -0.082 C 
ATOM     10  N   UNL     1      -3.977   3.312   4.897  0.00  0.00    +0.379 N 
ATOM     11  C   UNL     1      -3.888   2.074   4.113  0.00  0.00    -0.082 C 
ATOM     12  C   UNL     1      -3.207   2.364   2.773  0.00  0.00    -0.010 C 
ATOM     13  H   UNL     1      -4.480   3.131   5.753  0.00  0.00    -0.086 HD
ATOM     14  H   UNL     1      -4.469   4.012   4.363  0.00  0.00    -0.086 HD
ENDROOT
BRANCH   5  15
ATOM     15  C   UNL     1      -0.749   4.743   1.671  0.00  0.00    +0.218 C 
ATOM     16  O   UNL     1       0.342   5.091   2.072  0.00  0.00    -0.275 OA
ATOM     17  N   UNL     1      -1.618   5.659   1.202  0.00  0.00    -0.312 N 
ATOM     18  H   UNL     1      -2.490   5.381   0.881  0.00  0.00    +0.149 HD
BRANCH  17  19
ATOM     19  C   UNL     1      -1.247   7.076   1.177  0.00  0.00    +0.148 C 
BRANCH  19  20
ATOM     20  C   UNL     1      -2.404   7.897   0.603  0.00  0.00    +0.187 C 
ATOM     21  C   UNL     1      -2.016   9.377   0.577  0.00  0.00    +0.053 C 
BRANCH  20  22
ATOM     22  O   UNL     1      -2.687   7.455  -0.726  0.00  0.00    -0.488 OA
BRANCH  22  23
ATOM     23  C   UNL     1      -3.946   7.668  -1.192  0.00  0.00    +0.121 A 
ATOM     24  C   UNL     1      -4.325   7.164  -2.428  0.00  0.00    +0.046 A 
ATOM     25  C   UNL     1      -5.605   7.381  -2.898  0.00  0.00    +0.007 A 
ATOM     26  C   UNL     1      -6.509   8.100  -2.139  0.00  0.00    -0.050 A 
ATOM     27  C   UNL     1      -6.135   8.604  -0.907  0.00  0.00    +0.007 A 
ATOM     28  C   UNL     1      -4.857   8.385  -0.429  0.00  0.00    +0.046 A 
ATOM     29  C   UNL     1      -7.905   8.336  -2.655  0.00  0.00    +0.044 C 
ENDBRANCH  22  23
ENDBRANCH  20  22
ENDBRANCH  19  20
ENDBRANCH  17  19
ENDBRANCH   5  15
BRANCH   1  30
ATOM     30  C   UNL     1       0.793  -0.488   1.081  0.00  0.00    +0.105 C 
BRANCH  30  31
ATOM     31  C   UNL     1       2.286  -0.527   1.277  0.00  0.00    -0.036 A 
ATOM     32  C   UNL     1       2.836  -1.355   2.238  0.00  0.00    +0.004 A 
ATOM     33  C   UNL     1       4.206  -1.391   2.418  0.00  0.00    +0.000 A 
ATOM     34  C   UNL     1       5.027  -0.598   1.637  0.00  0.00    +0.000 A 
ATOM     35  C   UNL     1       4.477   0.229   0.675  0.00  0.00    +0.000 A 
ATOM     36  C   UNL     1       3.107   0.262   0.492  0.00  0.00    +0.004 A 
ENDBRANCH  30  31
BRANCH  30  38
ATOM     37  C   UNL     1      -1.200  -1.816   0.367  0.00  0.00    +0.005 C 
ATOM     38  C   UNL     1       0.291  -1.884   0.704  0.00  0.00    +0.014 C 
ENDBRANCH  30  38
ENDBRANCH   1  30
TORSDOF 8
