REMARK  Name = ZINC59122254
REMARK  13 active torsions:
REMARK  status: ('A' for Active; 'I' for Inactive)
REMARK    1  A    between atoms: C_1  and  C_2
REMARK    2  A    between atoms: C_2  and  O_3
REMARK    3  A    between atoms: O_3  and  C_4
REMARK    4  A    between atoms: C_4  and  C_6
REMARK    5  A    between atoms: C_6  and  S_18
REMARK    6  A    between atoms: N_7  and  N_8
REMARK    7  A    between atoms: N_8  and  C_9
REMARK    8  A    between atoms: C_12  and  N_15
REMARK    9  A    between atoms: S_18  and  C_19
REMARK   10  A    between atoms: C_22  and  C_30
REMARK   11  A    between atoms: N_23  and  C_24
REMARK   12  A    between atoms: C_30  and  C_32
REMARK   13  A    between atoms: C_30  and  O_38
REMARK                            x       y       z     vdW  Elec       q    Type
REMARK                         _______ _______ _______ _____ _____    ______ ____
ROOT
ATOM      1  C   UNL     1      -4.706  -4.281  -0.167  0.00  0.00    +0.203 A 
ATOM      2  N   UNL     1      -5.609  -3.320  -0.352  0.00  0.00    -0.122 NA
ATOM      3  N   UNL     1      -6.780  -3.846  -0.426  0.00  0.00    -0.130 NA
ATOM      4  C   UNL     1      -6.695  -5.158  -0.295  0.00  0.00    +0.172 A 
ATOM      5  N   UNL     1      -5.393  -5.473  -0.133  0.00  0.00    -0.272 N 
ENDROOT
BRANCH   5   6
ATOM      6  C   UNL     1      -4.851  -6.753   0.038  0.00  0.00    +0.050 A 
ATOM      7  C   UNL     1      -4.929  -7.684  -0.990  0.00  0.00    +0.026 A 
ATOM      8  C   UNL     1      -4.394  -8.946  -0.819  0.00  0.00    +0.002 A 
ATOM      9  C   UNL     1      -3.781  -9.283   0.375  0.00  0.00    +0.000 A 
ATOM     10  C   UNL     1      -3.703  -8.358   1.400  0.00  0.00    +0.002 A 
ATOM     11  C   UNL     1      -4.231  -7.093   1.233  0.00  0.00    +0.026 A 
ENDBRANCH   5   6
BRANCH   1  12
ATOM     12  S   UNL     1      -3.065  -4.080  -0.013  0.00  0.00    -0.021 S 
BRANCH  12  13
ATOM     13  C   UNL     1      -2.862  -2.433   0.009  0.00  0.00    +0.206 C 
ATOM     14  N   UNL     1      -3.163  -1.738   1.109  0.00  0.00    -0.168 NA
BRANCH  13  15
ATOM     15  C   UNL     1      -2.348  -1.735  -1.190  0.00  0.00    +0.366 C 
ATOM     16  O   UNL     1      -2.075  -2.367  -2.190  0.00  0.00    -0.243 OA
BRANCH  15  17
ATOM     17  O   UNL     1      -2.184  -0.398  -1.172  0.00  0.00    -0.460 OA
BRANCH  17  19
ATOM     18  C   UNL     1      -1.564   1.721  -2.156  0.00  0.00    +0.048 C 
ATOM     19  C   UNL     1      -1.683   0.210  -2.365  0.00  0.00    +0.229 C 
ENDBRANCH  17  19
ENDBRANCH  15  17
ENDBRANCH  13  15
BRANCH  14  20
ATOM     20  N   UNL     1      -3.694  -2.333   2.123  0.00  0.00    -0.237 N 
ATOM     21  H   UNL     1      -3.805  -3.296   2.116  0.00  0.00    +0.174 HD
BRANCH  20  22
ATOM     22  C   UNL     1      -4.105  -1.597   3.218  0.00  0.00    +0.048 A 
ATOM     23  C   UNL     1      -3.856  -0.225   3.275  0.00  0.00    +0.027 A 
ATOM     24  C   UNL     1      -4.268   0.504   4.370  0.00  0.00    +0.034 A 
ATOM     25  C   UNL     1      -4.929  -0.123   5.413  0.00  0.00    +0.126 A 
ATOM     26  C   UNL     1      -5.180  -1.484   5.363  0.00  0.00    +0.034 A 
ATOM     27  C   UNL     1      -4.777  -2.222   4.270  0.00  0.00    +0.027 A 
BRANCH  25  28
ATOM     28  N   UNL     1      -5.369   0.665   6.586  0.00  0.00    +0.056 N 
ATOM     29  O   UNL     1      -5.132   1.960   6.637  0.00  0.00    -0.126 OA
ATOM     30  O   UNL     1      -5.998   0.072   7.580  0.00  0.00    -0.126 OA
ENDBRANCH  25  28
ENDBRANCH  20  22
ENDBRANCH  14  20
ENDBRANCH  12  13
ENDBRANCH   1  12
BRANCH   4  31
ATOM     31  C   UNL     1      -7.846  -6.130  -0.326  0.00  0.00    +0.212 C 
BRANCH  31  32
ATOM     32  C   UNL     1      -8.320  -6.302  -1.746  0.00  0.00    -0.012 A 
ATOM     33  C   UNL     1      -9.145  -5.352  -2.319  0.00  0.00    +0.006 A 
ATOM     34  C   UNL     1      -9.579  -5.511  -3.622  0.00  0.00    +0.000 A 
ATOM     35  C   UNL     1      -9.189  -6.618  -4.351  0.00  0.00    +0.000 A 
ATOM     36  C   UNL     1      -8.364  -7.568  -3.778  0.00  0.00    +0.000 A 
ATOM     37  C   UNL     1      -7.926  -7.407  -2.476  0.00  0.00    +0.006 A 
ENDBRANCH  31  32
BRANCH  31  38
ATOM     38  O   UNL     1      -8.917  -5.625   0.476  0.00  0.00    -0.379 OA
ATOM     39  H   UNL     1      -9.258  -4.769   0.183  0.00  0.00    +0.211 HD
ENDBRANCH  31  38
ENDBRANCH   4  31
TORSDOF 12
