REMARK  Name = ZINC12364905
REMARK  14 active torsions:
REMARK  status: ('A' for Active; 'I' for Inactive)
REMARK    1  A    between atoms: C_1  and  C_2
REMARK    2  A    between atoms: C_2  and  C_3
REMARK    3  A    between atoms: C_2  and  C_4
REMARK    4  A    between atoms: C_2  and  O_36
REMARK    5  A    between atoms: C_5  and  C_6
REMARK    6  A    between atoms: C_9  and  C_11
REMARK    7  A    between atoms: N_13  and  C_14
REMARK    8  A    between atoms: C_20  and  N_22
REMARK    9  A    between atoms: C_23  and  C_25
REMARK   10  A    between atoms: C_28  and  C_30
REMARK   11  A    between atoms: C_31  and  C_32
REMARK   12  A    between atoms: C_32  and  C_33
REMARK   13  A    between atoms: C_32  and  C_34
REMARK   14  A    between atoms: C_32  and  O_35
REMARK                            x       y       z     vdW  Elec       q    Type
REMARK                         _______ _______ _______ _____ _____    ______ ____
ROOT
ATOM      1  C   UNL     1       2.515  -3.027  -9.507  0.00  0.00    +0.093 C 
ATOM      2  C   UNL     1       2.801  -3.725 -10.838  0.00  0.00    +0.024 C 
ATOM      3  C   UNL     1       3.539  -5.040 -10.576  0.00  0.00    +0.002 C 
ATOM      4  C   UNL     1       4.859  -4.749  -9.859  0.00  0.00    +0.002 C 
ATOM      5  C   UNL     1       4.573  -4.051  -8.528  0.00  0.00    +0.024 C 
ATOM      6  C   UNL     1       3.835  -2.737  -8.790  0.00  0.00    +0.093 C 
ENDROOT
BRANCH   1   9
ATOM      7  C   UNL     1       0.468  -1.765  -9.899  0.00  0.00    +0.251 C 
ATOM      8  O   UNL     1      -0.155  -2.807  -9.818  0.00  0.00    -0.270 OA
ATOM      9  N   UNL     1       1.808  -1.768  -9.757  0.00  0.00    -0.306 N 
ATOM     10  H   UNL     1       2.305  -0.938  -9.821  0.00  0.00    +0.149 HD
BRANCH   7  14
ATOM     11  C   UNL     1      -1.105   2.011 -10.593  0.00  0.00    +0.063 A 
ATOM     12  C   UNL     1      -2.037   0.984 -10.547  0.00  0.00    +0.025 A 
ATOM     13  C   UNL     1      -1.599  -0.290 -10.322  0.00  0.00    +0.022 A 
ATOM     14  C   UNL     1      -0.239  -0.506 -10.149  0.00  0.00    +0.075 A 
ATOM     15  S   UNL     1       0.428   1.143 -10.302  0.00  0.00    -0.075 S 
BRANCH  11  17
ATOM     16  C   UNL     1      -1.493   4.558 -10.989  0.00  0.00    -0.062 C 
ATOM     17  C   UNL     1      -1.318   3.411 -10.810  0.00  0.00    -0.056 C 
BRANCH  16  19
ATOM     18  C   UNL     1      -2.369   6.205 -12.579  0.00  0.00    +0.055 C 
ATOM     19  C   UNL     1      -1.712   5.996 -11.213  0.00  0.00    +0.121 C 
ATOM     20  C   UNL     1      -2.627   6.549 -10.118  0.00  0.00    +0.055 C 
BRANCH  19  21
ATOM     21  O   UNL     1      -0.459   6.680 -11.177  0.00  0.00    -0.377 OA
ATOM     22  H   UNL     1       0.014   6.591 -10.338  0.00  0.00    +0.211 HD
ENDBRANCH  19  21
ENDBRANCH  16  19
ENDBRANCH  11  17
ENDBRANCH   7  14
ENDBRANCH   1   9
BRANCH   6  23
ATOM     23  N   UNL     1       3.562  -2.068  -7.515  0.00  0.00    -0.306 N 
ATOM     24  C   UNL     1       4.499  -1.280  -6.953  0.00  0.00    +0.251 C 
ATOM     25  O   UNL     1       5.573  -1.123  -7.504  0.00  0.00    -0.270 OA
ATOM     26  H   UNL     1       2.706  -2.193  -7.076  0.00  0.00    +0.149 HD
BRANCH  24  27
ATOM     27  C   UNL     1       4.226  -0.611  -5.678  0.00  0.00    +0.075 A 
ATOM     28  C   UNL     1       5.047   0.231  -4.942  0.00  0.00    +0.022 A 
ATOM     29  C   UNL     1       4.576   0.745  -3.768  0.00  0.00    +0.025 A 
ATOM     30  C   UNL     1       3.294   0.404  -3.357  0.00  0.00    +0.063 A 
ATOM     31  S   UNL     1       2.754  -0.677  -4.670  0.00  0.00    -0.075 S 
BRANCH  30  32
ATOM     32  C   UNL     1       2.589   0.811  -2.179  0.00  0.00    -0.056 C 
ATOM     33  C   UNL     1       2.011   1.144  -1.213  0.00  0.00    -0.062 C 
BRANCH  33  34
ATOM     34  C   UNL     1       1.286   1.562  -0.002  0.00  0.00    +0.121 C 
ATOM     35  C   UNL     1       1.145   3.085   0.008  0.00  0.00    +0.055 C 
ATOM     36  C   UNL     1       2.064   1.114   1.238  0.00  0.00    +0.055 C 
BRANCH  34  37
ATOM     37  O   UNL     1      -0.011   0.963   0.007  0.00  0.00    -0.377 OA
ATOM     38  H   UNL     1       0.002  -0.004   0.002  0.00  0.00    +0.211 HD
ENDBRANCH  34  37
ENDBRANCH  33  34
ENDBRANCH  30  32
ENDBRANCH  24  27
ENDBRANCH   6  23
TORSDOF 10
