REMARK  Name = ZINC13014184
REMARK  7 active torsions:
REMARK  status: ('A' for Active; 'I' for Inactive)
REMARK    1  A    between atoms: C_9  and  C_12
REMARK    2  A    between atoms: C_15  and  S_18
REMARK    3  A    between atoms: N_16  and  N_17
REMARK    4  A    between atoms: S_18  and  C_19
REMARK    5  A    between atoms: C_19  and  C_20
REMARK    6  A    between atoms: N_22  and  C_23
REMARK    7  A    between atoms: C_24  and  C_33
REMARK                            x       y       z     vdW  Elec       q    Type
REMARK                         _______ _______ _______ _____ _____    ______ ____
ROOT
ATOM      1  C   UNL     1       0.002  -0.004   0.002  0.00  0.00    +0.195 A 
ATOM      2  N   UNL     1      -1.004  -0.788  -0.265  0.00  0.00    -0.128 NA
ATOM      3  N   UNL     1      -0.638  -2.018  -0.182  0.00  0.00    -0.121 NA
ATOM      4  C   UNL     1       0.632  -2.085   0.144  0.00  0.00    +0.209 A 
ATOM      5  N   UNL     1       1.081  -0.801   0.267  0.00  0.00    -0.225 N 
ENDROOT
BRANCH   1  14
ATOM      6  C   UNL     1      -1.845   5.959  -1.150  0.00  0.00    +0.004 A 
ATOM      7  C   UNL     1      -1.820   5.239  -2.330  0.00  0.00    +0.004 A 
ATOM      8  C   UNL     1      -1.441   3.910  -2.324  0.00  0.00    +0.049 A 
ATOM      9  C   UNL     1      -1.086   3.294  -1.132  0.00  0.00    +0.163 A 
ATOM     10  C   UNL     1      -1.110   4.018   0.054  0.00  0.00    +0.162 A 
ATOM     11  C   UNL     1      -1.491   5.352   0.040  0.00  0.00    +0.049 A 
ATOM     12  O   UNL     1      -0.761   3.435   1.233  0.00  0.00    -0.484 OA
ATOM     13  C   UNL     1      -0.749   2.004   1.264  0.00  0.00    +0.281 C 
ATOM     14  C   UNL     1      -0.018   1.503   0.010  0.00  0.00    +0.280 C 
ATOM     15  O   UNL     1      -0.722   1.982  -1.141  0.00  0.00    -0.474 OA
ENDBRANCH   1  14
BRANCH   5  16
ATOM     16  N   UNL     1       2.345  -0.398   0.591  0.00  0.00    -0.295 N 
ATOM     17  H   UNL     1       2.449  -0.299   1.589  0.00  0.00    +0.163 HD
ATOM     18  H   UNL     1       3.034  -1.032   0.216  0.00  0.00    +0.163 HD
ENDBRANCH   5  16
BRANCH   4  19
ATOM     19  S   UNL     1       1.578  -3.553   0.374  0.00  0.00    -0.075 S 
BRANCH  19  20
ATOM     20  C   UNL     1       0.311  -4.800   0.037  0.00  0.00    +0.173 C 
BRANCH  20  21
ATOM     21  C   UNL     1       0.910  -6.176   0.178  0.00  0.00    +0.228 C 
ATOM     22  O   UNL     1       2.078  -6.301   0.478  0.00  0.00    -0.275 OA
ATOM     23  N   UNL     1       0.147  -7.268  -0.028  0.00  0.00    -0.278 N 
ATOM     24  H   UNL     1      -0.788  -7.168  -0.268  0.00  0.00    +0.155 HD
BRANCH  23  25
ATOM     25  C   UNL     1       0.698  -8.535   0.102  0.00  0.00    +0.090 A 
ATOM     26  C   UNL     1       0.081  -9.763  -0.063  0.00  0.00    +0.084 A 
ATOM     27  C   UNL     1       0.889 -10.960   0.126  0.00  0.00    -0.018 A 
ATOM     28  C   UNL     1       2.177 -10.729   0.464  0.00  0.00    -0.004 A 
ATOM     29  S   UNL     1       2.324  -8.963   0.517  0.00  0.00    -0.077 S 
ATOM     30  C   UNL     1       3.244 -11.739   0.748  0.00  0.00    +0.043 C 
ATOM     31  C   UNL     1       3.258 -12.789  -0.371  0.00  0.00    +0.005 C 
ATOM     32  C   UNL     1       2.298 -13.912   0.009  0.00  0.00    +0.001 C 
ATOM     33  C   UNL     1       1.120 -13.351   0.804  0.00  0.00    +0.005 C 
ATOM     34  C   UNL     1       0.326 -12.365  -0.046  0.00  0.00    +0.037 C 
BRANCH  26  35
ATOM     35  C   UNL     1      -1.306  -9.854  -0.410  0.00  0.00    +0.102 C 
ATOM     36  N   UNL     1      -2.405  -9.927  -0.685  0.00  0.00    -0.191 NA
ENDBRANCH  26  35
ENDBRANCH  23  25
ENDBRANCH  20  21
ENDBRANCH  19  20
ENDBRANCH   4  19
TORSDOF 7
