REMARK  Name = ZINC63295546
REMARK  9 active torsions:
REMARK  status: ('A' for Active; 'I' for Inactive)
REMARK    1  A    between atoms: C_1  and  O_2
REMARK    2  A    between atoms: O_2  and  C_3
REMARK    3  A    between atoms: C_6  and  C_11
REMARK    4  A    between atoms: C_8  and  O_9
REMARK    5  A    between atoms: O_9  and  C_10
REMARK    6  A    between atoms: C_11  and  C_12
REMARK    7  A    between atoms: C_12  and  N_13
REMARK    8  A    between atoms: C_14  and  C_16
REMARK    9  A    between atoms: C_16  and  N_17
REMARK                            x       y       z     vdW  Elec       q    Type
REMARK                         _______ _______ _______ _____ _____    ______ ____
ROOT
ATOM      1  N   UNL     1       8.045  -4.527  -6.038  0.00  0.00    -0.291 N 
ATOM      2  C   UNL     1       8.847  -5.116  -6.947  0.00  0.00    +0.303 C 
ATOM      3  O   UNL     1       8.378  -5.555  -7.979  0.00  0.00    -0.253 OA
ATOM      4  N   UNL     1      10.171  -5.217  -6.712  0.00  0.00    -0.283 N 
ATOM      5  C   UNL     1      10.711  -4.796  -5.415  0.00  0.00    +0.114 C 
ATOM      6  C   UNL     1      11.451  -5.977  -4.760  0.00  0.00    +0.052 C 
ATOM      7  C   UNL     1      12.310  -6.598  -5.833  0.00  0.00    -0.035 C 
ATOM      8  C   UNL     1      13.603  -6.898  -5.859  0.00  0.00    +0.001 A 
ATOM      9  C   UNL     1      14.643  -6.836  -4.819  0.00  0.00    +0.030 A 
ATOM     10  C   UNL     1      15.895  -7.206  -5.201  0.00  0.00    +0.042 A 
ATOM     11  C   UNL     1      16.211  -7.626  -6.498  0.00  0.00    +0.022 A 
ATOM     12  C   UNL     1      15.315  -7.721  -7.513  0.00  0.00    +0.027 A 
ATOM     13  C   UNL     1      13.964  -7.367  -7.231  0.00  0.00    +0.043 A 
ATOM     14  N   UNL     1      12.912  -7.385  -7.996  0.00  0.00    -0.376 N 
ATOM     15  C   UNL     1      11.752  -6.993  -7.195  0.00  0.00    +0.124 C 
ATOM     16  C   UNL     1      11.056  -5.755  -7.756  0.00  0.00    +0.138 C 
ATOM     17 CL   UNL     1      17.166  -7.155  -4.020  0.00  0.00    -0.084 Cl
ATOM     18  H   UNL     1       8.406  -4.242  -5.184  0.00  0.00    +0.151 HD
ATOM     19  H   UNL     1      12.900  -7.619  -8.938  0.00  0.00    +0.160 HD
ENDROOT
BRANCH   1  20
ATOM     20  C   UNL     1       6.626  -4.319  -6.340  0.00  0.00    +0.201 C 
BRANCH  20  22
ATOM     21  N   UNL     1       4.642  -3.355  -5.220  0.00  0.00    -0.314 N 
ATOM     22  C   UNL     1       5.957  -3.647  -5.168  0.00  0.00    +0.230 C 
ATOM     23  O   UNL     1       6.601  -3.371  -4.178  0.00  0.00    -0.274 OA
ATOM     24  H   UNL     1       4.127  -3.576  -6.011  0.00  0.00    +0.149 HD
BRANCH  21  25
ATOM     25  C   UNL     1       3.992  -2.703  -4.081  0.00  0.00    +0.109 C 
BRANCH  25  26
ATOM     26  C   UNL     1       2.510  -2.485  -4.396  0.00  0.00    +0.054 C 
BRANCH  26  30
ATOM     27  C   UNL     1       0.612  -0.575  -1.074  0.00  0.00    +0.161 A 
ATOM     28  C   UNL     1       1.179   0.187  -2.083  0.00  0.00    +0.049 A 
ATOM     29  C   UNL     1       1.792  -0.433  -3.156  0.00  0.00    +0.007 A 
ATOM     30  C   UNL     1       1.841  -1.813  -3.224  0.00  0.00    -0.042 A 
ATOM     31  C   UNL     1       1.277  -2.579  -2.221  0.00  0.00    +0.053 A 
ATOM     32  C   UNL     1       0.666  -1.964  -1.140  0.00  0.00    +0.162 A 
BRANCH  27  34
ATOM     33  C   UNL     1      -0.010   1.463  -0.017  0.00  0.00    +0.277 C 
ATOM     34  O   UNL     1       0.009   0.034  -0.018  0.00  0.00    -0.491 OA
ENDBRANCH  27  34
BRANCH  32  35
ATOM     35  O   UNL     1       0.116  -2.715  -0.149  0.00  0.00    -0.491 OA
ATOM     36  C   UNL     1       0.210  -4.135  -0.284  0.00  0.00    +0.277 C 
ENDBRANCH  32  35
ENDBRANCH  26  30
ENDBRANCH  25  26
ENDBRANCH  21  25
ENDBRANCH  20  22
ENDBRANCH   1  20
TORSDOF 7
