REMARK  Name = ZINC36032783
REMARK  13 active torsions:
REMARK  status: ('A' for Active; 'I' for Inactive)
REMARK    1  A    between atoms: C_1  and  C_2
REMARK    2  A    between atoms: C_2  and  C_3
REMARK    3  A    between atoms: C_3  and  C_5
REMARK    4  A    between atoms: C_3  and  C_6
REMARK    5  A    between atoms: C_6  and  N_7
REMARK    6  A    between atoms: C_10  and  C_29
REMARK    7  A    between atoms: N_16  and  C_19
REMARK    8  A    between atoms: C_19  and  N_21
REMARK    9  A    between atoms: N_21  and  C_22
REMARK   10  A    between atoms: C_26  and  C_28
REMARK   11  A    between atoms: C_29  and  C_30
REMARK   12  A    between atoms: C_30  and  C_31
REMARK   13  A    between atoms: C_30  and  C_32
REMARK                            x       y       z     vdW  Elec       q    Type
REMARK                         _______ _______ _______ _____ _____    ______ ____
ROOT
ATOM      1  N   UNL     1      -2.880  -2.634  -0.399  0.00  0.00    -0.313 N 
ATOM      2  C   UNL     1      -3.775  -2.994   0.544  0.00  0.00    +0.200 C 
ATOM      3  O   UNL     1      -3.613  -2.911   1.743  0.00  0.00    -0.277 OA
ATOM      4  C   UNL     1      -5.016  -3.516  -0.146  0.00  0.00    +0.019 C 
ATOM      5  N   UNL     1      -4.585  -3.799  -1.536  0.00  0.00    +0.401 N 
ATOM      6  C   UNL     1      -3.449  -2.871  -1.729  0.00  0.00    +0.006 C 
ATOM      7  C   UNL     1      -2.407  -3.515  -2.642  0.00  0.00    +0.025 C 
ATOM      8  C   UNL     1      -1.215  -2.566  -2.802  0.00  0.00    +0.107 C 
ATOM      9  N   UNL     1      -1.709  -1.260  -3.261  0.00  0.00    -0.312 N 
ATOM     10  C   UNL     1      -2.767  -0.593  -2.490  0.00  0.00    +0.107 C 
ATOM     11  C   UNL     1      -3.946  -1.559  -2.333  0.00  0.00    +0.025 C 
ATOM     12  H   UNL     1      -4.286  -4.759  -1.628  0.00  0.00    -0.082 HD
ATOM     13  H   UNL     1      -5.326  -3.592  -2.189  0.00  0.00    -0.082 HD
ENDROOT
BRANCH   9  14
ATOM     14  C   UNL     1      -1.202  -0.686  -4.370  0.00  0.00    +0.137 C 
ATOM     15  S   UNL     1      -0.067  -1.534  -5.331  0.00  0.00    -0.018 S 
BRANCH  14  16
ATOM     16  N   UNL     1      -1.588   0.556  -4.722  0.00  0.00    -0.297 N 
ATOM     17  H   UNL     1      -2.164   0.685  -5.492  0.00  0.00    +0.154 HD
BRANCH  16  18
ATOM     18  C   UNL     1      -1.158   1.660  -3.978  0.00  0.00    +0.033 A 
ATOM     19  C   UNL     1      -0.242   1.490  -2.948  0.00  0.00    +0.023 A 
ATOM     20  C   UNL     1       0.181   2.582  -2.215  0.00  0.00    +0.002 A 
ATOM     21  C   UNL     1      -0.307   3.843  -2.506  0.00  0.00    +0.003 A 
ATOM     22  C   UNL     1      -1.219   4.015  -3.531  0.00  0.00    -0.049 A 
ATOM     23  C   UNL     1      -1.642   2.928  -4.271  0.00  0.00    +0.026 A 
ATOM     24  C   UNL     1      -1.748   5.391  -3.845  0.00  0.00    +0.044 C 
ENDBRANCH  16  18
ENDBRANCH  14  16
ENDBRANCH   9  14
BRANCH   1  25
ATOM     25  C   UNL     1      -1.548  -2.085  -0.135  0.00  0.00    +0.109 C 
BRANCH  25  26
ATOM     26  C   UNL     1      -0.609  -3.212   0.302  0.00  0.00    +0.003 C 
ATOM     27  C   UNL     1      -0.710  -4.372  -0.689  0.00  0.00    +0.009 C 
BRANCH  26  29
ATOM     28  C   UNL     1       1.751  -3.780   0.892  0.00  0.00    +0.004 C 
ATOM     29  C   UNL     1       0.830  -2.693   0.336  0.00  0.00    +0.001 C 
ENDBRANCH  26  29
ENDBRANCH  25  26
ENDBRANCH   1  25
BRANCH   4  30
ATOM     30  C   UNL     1      -5.506  -4.796   0.534  0.00  0.00    -0.004 C 
BRANCH  30  31
ATOM     31  C   UNL     1      -6.809  -5.257  -0.123  0.00  0.00    -0.018 C 
ATOM     32  C   UNL     1      -7.232  -6.601   0.472  0.00  0.00    +0.007 C 
ATOM     33  C   UNL     1      -7.903  -4.219   0.133  0.00  0.00    +0.007 C 
ENDBRANCH  30  31
ENDBRANCH   4  30
TORSDOF 8
