REMARK  Name = ZINC16994316
REMARK  12 active torsions:
REMARK  status: ('A' for Active; 'I' for Inactive)
REMARK    1  A    between atoms: C_1  and  C_2
REMARK    2  A    between atoms: C_4  and  C_36
REMARK    3  A    between atoms: C_5  and  S_9
REMARK    4  A    between atoms: C_6  and  C_8
REMARK    5  A    between atoms: S_9  and  N_12
REMARK    6  A    between atoms: N_12  and  C_13
REMARK    7  A    between atoms: C_16  and  N_19
REMARK    8  A    between atoms: C_22  and  C_35
REMARK    9  A    between atoms: C_24  and  N_26
REMARK   10  A    between atoms: N_26  and  C_27
REMARK   11  A    between atoms: C_30  and  O_33
REMARK   12  A    between atoms: O_33  and  C_34
REMARK                            x       y       z     vdW  Elec       q    Type
REMARK                         _______ _______ _______ _____ _____    ______ ____
ROOT
ATOM      1  C   UNL     1       4.254   3.510   1.263  0.00  0.00    +0.048 A 
ATOM      2  C   UNL     1       3.975   4.609   0.460  0.00  0.00    +0.026 A 
ATOM      3  C   UNL     1       4.574   4.728  -0.778  0.00  0.00    +0.025 A 
ATOM      4  C   UNL     1       5.445   3.744  -1.226  0.00  0.00    +0.034 A 
ATOM      5  C   UNL     1       5.719   2.643  -0.426  0.00  0.00    +0.025 A 
ATOM      6  C   UNL     1       5.125   2.526   0.815  0.00  0.00    +0.026 A 
ENDROOT
BRANCH   4   7
ATOM      7  N   UNL     1       6.047   3.862  -2.486  0.00  0.00    -0.284 N 
ATOM      8  C   UNL     1       5.321   4.353  -3.558  0.00  0.00    +0.221 A 
ATOM      9  N   UNL     1       4.027   4.593  -3.404  0.00  0.00    -0.219 NA
ATOM     10  C   UNL     1       3.299   5.068  -4.405  0.00  0.00    +0.045 A 
ATOM     11  C   UNL     1       3.901   5.302  -5.626  0.00  0.00    +0.067 A 
ATOM     12  C   UNL     1       5.265   5.034  -5.759  0.00  0.00    +0.128 A 
ATOM     13  N   UNL     1       5.935   4.564  -4.712  0.00  0.00    -0.199 NA
ATOM     14  C   UNL     1       1.830   5.343  -4.215  0.00  0.00    +0.066 C 
ATOM     15  H   UNL     1       6.973   3.600  -2.607  0.00  0.00    +0.155 HD
BRANCH  12  16
ATOM     16  N   UNL     1       5.911   5.255  -6.965  0.00  0.00    -0.299 N 
ATOM     17  H   UNL     1       5.430   5.654  -7.707  0.00  0.00    +0.154 HD
BRANCH  16  18
ATOM     18  C   UNL     1       7.258   4.902  -7.114  0.00  0.00    +0.033 A 
ATOM     19  C   UNL     1       7.752   3.769  -6.480  0.00  0.00    +0.027 A 
ATOM     20  C   UNL     1       9.080   3.419  -6.631  0.00  0.00    +0.047 A 
ATOM     21  C   UNL     1       9.921   4.204  -7.406  0.00  0.00    +0.120 A 
ATOM     22  C   UNL     1       9.429   5.338  -8.034  0.00  0.00    +0.047 A 
ATOM     23  C   UNL     1       8.101   5.687  -7.889  0.00  0.00    +0.027 A 
BRANCH  21  24
ATOM     24  O   UNL     1      11.229   3.861  -7.549  0.00  0.00    -0.495 OA
ATOM     25  C   UNL     1      11.668   2.680  -6.874  0.00  0.00    +0.277 C 
ENDBRANCH  21  24
ENDBRANCH  16  18
ENDBRANCH  12  16
ENDBRANCH   4   7
BRANCH   1  26
ATOM     26  N   UNL     1       3.652   3.392   2.521  0.00  0.00    -0.216 N 
ATOM     27  H   UNL     1       3.259   2.548   2.793  0.00  0.00    +0.174 HD
BRANCH  26  28
ATOM     28  S   UNL     1       3.610   4.693   3.545  0.00  0.00    +0.073 S 
ATOM     29  O   UNL     1       4.914   5.257   3.537  0.00  0.00    -0.150 OA
ATOM     30  O   UNL     1       2.979   4.250   4.738  0.00  0.00    -0.150 OA
BRANCH  28  35
ATOM     31  C   UNL     1      -0.060   8.796   1.074  0.00  0.00    +0.044 C 
ATOM     32  C   UNL     1       0.857   7.769   1.687  0.00  0.00    -0.050 A 
ATOM     33  C   UNL     1       0.327   6.685   2.364  0.00  0.00    +0.008 A 
ATOM     34  C   UNL     1       1.168   5.747   2.931  0.00  0.00    -0.023 A 
ATOM     35  C   UNL     1       2.539   5.890   2.822  0.00  0.00    +0.114 A 
ATOM     36  C   UNL     1       3.068   6.973   2.146  0.00  0.00    -0.023 A 
ATOM     37  C   UNL     1       2.228   7.912   1.578  0.00  0.00    +0.008 A 
ATOM     38  C   UNL     1       4.562   7.130   2.027  0.00  0.00    +0.046 C 
ATOM     39  C   UNL     1       0.591   4.565   3.667  0.00  0.00    +0.046 C 
ENDBRANCH  28  35
ENDBRANCH  26  28
ENDBRANCH   1  26
TORSDOF 7
