REMARK  Name = ZINC12619808
REMARK  6 active torsions:
REMARK  status: ('A' for Active; 'I' for Inactive)
REMARK    1  A    between atoms: C_1  and  C_2
REMARK    2  A    between atoms: C_3  and  C_19
REMARK    3  A    between atoms: C_4  and  C_10
REMARK    4  A    between atoms: C_15  and  N_16
REMARK    5  A    between atoms: N_21  and  C_22
REMARK    6  A    between atoms: C_27  and  C_28
REMARK                            x       y       z     vdW  Elec       q    Type
REMARK                         _______ _______ _______ _____ _____    ______ ____
ROOT
ATOM      1  C   UNL     1       0.623   2.708   0.147  0.00  0.00    +0.061 C 
ATOM      2  C   UNL     1      -0.384   2.377   1.218  0.00  0.00    +0.019 C 
ATOM      3  C   UNL     1       0.047   2.033   2.450  0.00  0.00    +0.056 C 
ATOM      4  C   UNL     1      -0.998   1.707   3.497  0.00  0.00    +0.144 C 
ATOM      5  N   UNL     1      -2.409   1.793   3.082  0.00  0.00    -0.288 N 
ATOM      6  C   UNL     1      -2.683   2.152   1.812  0.00  0.00    +0.304 C 
ATOM      7  O   UNL     1      -3.844   2.226   1.460  0.00  0.00    -0.252 OA
ATOM      8  N   UNL     1      -1.718   2.435   0.928  0.00  0.00    -0.273 N 
ATOM      9  H   UNL     1      -3.123   1.597   3.708  0.00  0.00    +0.151 HD
ATOM     10  H   UNL     1      -1.980   2.691   0.030  0.00  0.00    +0.156 HD
ENDROOT
BRANCH   4  11
ATOM     11  C   UNL     1      -0.744   0.305   3.987  0.00  0.00    +0.008 A 
ATOM     12  C   UNL     1       0.010  -0.568   3.224  0.00  0.00    +0.008 A 
ATOM     13  C   UNL     1       0.243  -1.854   3.674  0.00  0.00    +0.000 A 
ATOM     14  C   UNL     1      -0.276  -2.267   4.886  0.00  0.00    +0.002 A 
ATOM     15  C   UNL     1      -1.029  -1.395   5.649  0.00  0.00    +0.033 A 
ATOM     16  C   UNL     1      -1.259  -0.107   5.202  0.00  0.00    +0.131 A 
BRANCH  16  17
ATOM     17  N   UNL     1      -2.061   0.829   6.021  0.00  0.00    +0.057 N 
ATOM     18  O   UNL     1      -2.497   0.473   7.101  0.00  0.00    -0.126 OA
ATOM     19  O   UNL     1      -2.285   1.956   5.615  0.00  0.00    -0.126 OA
ENDBRANCH  16  17
ENDBRANCH   4  11
BRANCH   3  20
ATOM     20  C   UNL     1       1.430   1.979   2.753  0.00  0.00    +0.248 C 
ATOM     21  O   UNL     1       2.253   2.136   1.871  0.00  0.00    -0.270 OA
ATOM     22  N   UNL     1       1.833   1.753   4.019  0.00  0.00    -0.281 N 
ATOM     23  H   UNL     1       1.179   1.565   4.711  0.00  0.00    +0.155 HD
BRANCH  22  24
ATOM     24  C   UNL     1       3.195   1.789   4.336  0.00  0.00    +0.045 A 
ATOM     25  C   UNL     1       4.143   1.488   3.367  0.00  0.00    +0.024 A 
ATOM     26  C   UNL     1       5.487   1.525   3.682  0.00  0.00    +0.002 A 
ATOM     27  C   UNL     1       5.889   1.861   4.962  0.00  0.00    +0.001 A 
ATOM     28  C   UNL     1       4.948   2.161   5.930  0.00  0.00    +0.014 A 
ATOM     29  C   UNL     1       3.602   2.131   5.619  0.00  0.00    +0.076 A 
BRANCH  29  30
ATOM     30  C   UNL     1       2.577   2.464   6.672  0.00  0.00    +0.419 C 
ATOM     31  F   UNL     1       3.226   2.875   7.841  0.00  0.00    -0.166 F 
ATOM     32  F   UNL     1       1.752   3.495   6.210  0.00  0.00    -0.166 F 
ATOM     33  F   UNL     1       1.802   1.331   6.943  0.00  0.00    -0.166 F 
ENDBRANCH  29  30
ENDBRANCH  22  24
ENDBRANCH   3  20
TORSDOF 5
