REMARK  Name = ZINC06149342
REMARK  15 active torsions:
REMARK  status: ('A' for Active; 'I' for Inactive)
REMARK    1  A    between atoms: C_1  and  C_2
REMARK    2  A    between atoms: C_2  and  C_3
REMARK    3  A    between atoms: C_3  and  C_4
REMARK    4  A    between atoms: C_3  and  C_5
REMARK    5  A    between atoms: C_3  and  N_6
REMARK    6  A    between atoms: C_7  and  C_11
REMARK    7  A    between atoms: C_11  and  C_13
REMARK    8  A    between atoms: C_11  and  N_78
REMARK    9  A    between atoms: C_16  and  C_26
REMARK   10  A    between atoms: C_19  and  C_25
REMARK   11  A    between atoms: C_27  and  C_28
REMARK   12  A    between atoms: C_27  and  N_78
REMARK   13  A    between atoms: C_28  and  C_29
REMARK   14  A    between atoms: C_35  and  C_36
REMARK   15  A    between atoms: C_35  and  N_78
REMARK                            x       y       z     vdW  Elec       q    Type
REMARK                         _______ _______ _______ _____ _____    ______ ____
ROOT
ATOM      1  C   UNL     1      -1.785  -1.937   0.778  0.00  0.00    +0.039 C 
ENDROOT
BRANCH   1   2
ATOM      2  C   UNL     1      -3.185  -2.249   0.316  0.00  0.00    +0.011 A 
ATOM      3  C   UNL     1      -4.176  -2.415   1.227  0.00  0.00    +0.018 A 
ATOM      4  C   UNL     1      -5.526  -2.713   0.746  0.00  0.00    +0.002 A 
ATOM      5  C   UNL     1      -6.589  -2.891   1.637  0.00  0.00    -0.041 A 
ATOM      6  C   UNL     1      -7.836  -3.172   1.157  0.00  0.00    +0.004 A 
ATOM      7  C   UNL     1      -8.058  -3.284  -0.209  0.00  0.00    +0.005 A 
ATOM      8  C   UNL     1      -7.026  -3.114  -1.106  0.00  0.00    -0.026 A 
ATOM      9  C   UNL     1      -5.747  -2.826  -0.640  0.00  0.00    +0.052 A 
ATOM     10  N   UNL     1      -4.696  -2.651  -1.514  0.00  0.00    -0.322 N 
ATOM     11  H   UNL     1      -4.854  -2.731  -2.498  0.00  0.00    +0.169 HD
ATOM     12  C   UNL     1      -3.460  -2.373  -1.063  0.00  0.00    +0.251 A 
ATOM     13  O   UNL     1      -2.554  -2.224  -1.865  0.00  0.00    -0.268 OA
ATOM     14  C   UNL     1      -7.280  -3.239  -2.586  0.00  0.00    +0.046 C 
ATOM     15  C   UNL     1      -6.359  -2.773   3.122  0.00  0.00    +0.044 C 
ENDBRANCH   1   2
BRANCH   1  17
ATOM     16  N   UNL     1      -0.146  -3.804   1.355  0.00  0.00    -0.225 N 
ATOM     17  C   UNL     1      -0.883  -3.106   0.472  0.00  0.00    +0.143 A 
ATOM     18  N   UNL     1      -0.661  -3.635  -0.706  0.00  0.00    -0.115 NA
ATOM     19  N   UNL     1       0.166  -4.611  -0.554  0.00  0.00    -0.023 NA
ATOM     20  N   UNL     1       0.477  -4.718   0.690  0.00  0.00    -0.043 NA
BRANCH  16  21
ATOM     21  C   UNL     1      -0.067  -3.572   2.799  0.00  0.00    +0.061 C 
ATOM     22  C   UNL     1       0.448  -2.156   3.061  0.00  0.00    +0.036 C 
ATOM     23  C   UNL     1      -1.458  -3.732   3.417  0.00  0.00    +0.036 C 
BRANCH  21  25
ATOM     24  C   UNL     1       0.972  -4.345   4.936  0.00  0.00    +0.006 C 
ATOM     25  C   UNL     1       0.890  -4.587   3.427  0.00  0.00    +0.026 C 
ENDBRANCH  21  25
ENDBRANCH  16  21
ENDBRANCH   1  17
BRANCH   1  26
ATOM     26  N   UNL     1      -1.296  -0.748   0.050  0.00  0.00    +0.392 N 
ATOM     27  H   UNL     1      -1.395  -0.910  -0.959  0.00  0.00    -0.080 HD
BRANCH  26  28
ATOM     28  C   UNL     1      -2.095   0.438   0.426  0.00  0.00    -0.072 C 
BRANCH  28  29
ATOM     29  C   UNL     1      -1.720   1.599  -0.499  0.00  0.00    +0.016 C 
BRANCH  29  30
ATOM     30  C   UNL     1      -2.542   2.810  -0.142  0.00  0.00    -0.049 A 
ATOM     31  C   UNL     1      -3.762   3.024  -0.757  0.00  0.00    +0.003 A 
ATOM     32  C   UNL     1      -4.518   4.133  -0.426  0.00  0.00    +0.000 A 
ATOM     33  C   UNL     1      -4.050   5.033   0.512  0.00  0.00    +0.000 A 
ATOM     34  C   UNL     1      -2.829   4.822   1.124  0.00  0.00    +0.000 A 
ATOM     35  C   UNL     1      -2.075   3.711   0.797  0.00  0.00    +0.003 A 
ENDBRANCH  29  30
ENDBRANCH  28  29
ENDBRANCH  26  28
BRANCH  26  36
ATOM     36  C   UNL     1       0.130  -0.515   0.361  0.00  0.00    -0.042 C 
BRANCH  36  37
ATOM     37  C   UNL     1       0.968  -1.230  -0.667  0.00  0.00    -0.064 A 
ATOM     38  C   UNL     1       1.516  -2.466  -0.375  0.00  0.00    +0.002 A 
ATOM     39  C   UNL     1       2.280  -3.124  -1.321  0.00  0.00    +0.000 A 
ATOM     40  C   UNL     1       2.505  -2.542  -2.554  0.00  0.00    +0.000 A 
ATOM     41  C   UNL     1       1.961  -1.304  -2.845  0.00  0.00    +0.000 A 
ATOM     42  C   UNL     1       1.193  -0.649  -1.901  0.00  0.00    +0.002 A 
ENDBRANCH  36  37
ENDBRANCH  26  36
ENDBRANCH   1  26
TORSDOF 10
