REMARK  Name = ZINC00754195
REMARK  7 active torsions:
REMARK  status: ('A' for Active; 'I' for Inactive)
REMARK    1  A    between atoms: C_3  and  N_28
REMARK    2  A    between atoms: C_6  and  C_7
REMARK    3  A    between atoms: C_7  and  C_9
REMARK    4  A    between atoms: C_9  and  C_10
REMARK    5  A    between atoms: C_10  and  C_12
REMARK    6  A    between atoms: C_10  and  N_16
REMARK    7  A    between atoms: N_19  and  C_20
REMARK                            x       y       z     vdW  Elec       q    Type
REMARK                         _______ _______ _______ _____ _____    ______ ____
ROOT
ATOM      1  C   UNL     1       7.200   0.119  -0.381  0.00  0.00    +0.133 C 
ENDROOT
BRANCH   1   2
ATOM      2  N   UNL     1       5.945  -0.627  -0.263  0.00  0.00    -0.292 N 
ATOM      3  C   UNL     1       4.777   0.034  -0.146  0.00  0.00    +0.304 C 
ATOM      4  O   UNL     1       4.764   1.250  -0.139  0.00  0.00    -0.252 OA
ATOM      5  N   UNL     1       3.622  -0.653  -0.037  0.00  0.00    -0.269 N 
ATOM      6  H   UNL     1       5.955  -1.597  -0.268  0.00  0.00    +0.151 HD
ATOM      7  H   UNL     1       3.637  -1.621   0.025  0.00  0.00    +0.156 HD
BRANCH   5   8
ATOM      8  C   UNL     1       2.401   0.031  -0.013  0.00  0.00    +0.036 A 
ATOM      9  C   UNL     1       1.278  -0.530  -0.607  0.00  0.00    +0.025 A 
ATOM     10  C   UNL     1       0.074   0.146  -0.583  0.00  0.00    +0.023 A 
ATOM     11  C   UNL     1      -0.015   1.382   0.033  0.00  0.00    +0.059 A 
ATOM     12  C   UNL     1       1.103   1.944   0.626  0.00  0.00    +0.061 A 
ATOM     13  C   UNL     1       2.310   1.271   0.605  0.00  0.00    +0.044 A 
ATOM     14 CL   UNL     1       0.988   3.495   1.398  0.00  0.00    -0.082 Cl
ATOM     15 CL   UNL     1      -1.528   2.232   0.055  0.00  0.00    -0.082 Cl
ENDBRANCH   5   8
ENDBRANCH   1   2
BRANCH   1  16
ATOM     16  C   UNL     1       7.434   0.494  -1.846  0.00  0.00    +0.209 C 
ATOM     17 CL   UNL     1       6.069   1.517  -2.430  0.00  0.00    -0.081 Cl
ATOM     18 CL   UNL     1       8.979   1.413  -1.992  0.00  0.00    -0.081 Cl
ATOM     19 CL   UNL     1       7.531  -1.006  -2.842  0.00  0.00    -0.081 Cl
ENDBRANCH   1  16
BRANCH   1  20
ATOM     20  C   UNL     1       8.359  -0.749   0.115  0.00  0.00    +0.106 C 
BRANCH  20  21
ATOM     21  C   UNL     1       8.191  -1.016   1.588  0.00  0.00    +0.165 C 
ATOM     22  O   UNL     1       7.239  -0.557   2.183  0.00  0.00    -0.292 OA
BRANCH  21  28
ATOM     23  C   UNL     1      10.279  -2.369   1.621  0.00  0.00    +0.013 A 
ATOM     24  C   UNL     1      11.207  -3.129   2.301  0.00  0.00    +0.033 A 
ATOM     25  C   UNL     1      11.049  -3.373   3.655  0.00  0.00    +0.126 A 
ATOM     26  C   UNL     1       9.965  -2.850   4.338  0.00  0.00    +0.033 A 
ATOM     27  C   UNL     1       9.031  -2.083   3.673  0.00  0.00    +0.013 A 
ATOM     28  C   UNL     1       9.183  -1.833   2.305  0.00  0.00    +0.018 A 
BRANCH  25  29
ATOM     29  N   UNL     1      12.046  -4.196   4.376  0.00  0.00    +0.056 N 
ATOM     30  O   UNL     1      11.911  -4.411   5.567  0.00  0.00    -0.126 OA
ATOM     31  O   UNL     1      13.002  -4.657   3.778  0.00  0.00    -0.126 OA
ENDBRANCH  25  29
ENDBRANCH  21  28
ENDBRANCH  20  21
ENDBRANCH   1  20
TORSDOF 7
