REMARK  Name = ZINC63600709
REMARK  7 active torsions:
REMARK  status: ('A' for Active; 'I' for Inactive)
REMARK    1  A    between atoms: C_1  and  C_2
REMARK    2  A    between atoms: C_2  and  N_3
REMARK    3  A    between atoms: C_11  and  C_13
REMARK    4  A    between atoms: C_13  and  C_14
REMARK    5  A    between atoms: C_14  and  C_15
REMARK    6  A    between atoms: C_18  and  N_21
REMARK    7  A    between atoms: C_22  and  C_24
REMARK                            x       y       z     vdW  Elec       q    Type
REMARK                         _______ _______ _______ _____ _____    ______ ____
ROOT
ATOM      1  C   UNL     1      -1.706  -3.162  -4.149  0.00  0.00    -0.047 A 
ATOM      2  C   UNL     1      -0.873  -2.812  -5.195  0.00  0.00    +0.005 A 
ATOM      3  C   UNL     1      -0.273  -3.792  -5.961  0.00  0.00    +0.023 A 
ATOM      4  C   UNL     1      -0.507  -5.132  -5.678  0.00  0.00    +0.033 A 
ATOM      5  C   UNL     1      -1.344  -5.481  -4.626  0.00  0.00    +0.023 A 
ATOM      6  C   UNL     1      -1.937  -4.495  -3.862  0.00  0.00    +0.005 A 
ENDROOT
BRANCH   4   7
ATOM      7  N   UNL     1       0.099  -6.128  -6.452  0.00  0.00    -0.284 N 
ATOM      8  C   UNL     1       1.327  -5.926  -6.969  0.00  0.00    +0.244 C 
ATOM      9  O   UNL     1       1.947  -4.923  -6.685  0.00  0.00    -0.273 OA
ATOM     10  H   UNL     1      -0.365  -6.963  -6.617  0.00  0.00    +0.155 HD
BRANCH   8  11
ATOM     11  C   UNL     1       1.931  -6.947  -7.899  0.00  0.00    +0.190 C 
ATOM     12  C   UNL     1       2.111  -8.265  -7.180  0.00  0.00    +0.016 C 
ATOM     13  C   UNL     1       3.438  -8.526  -7.203  0.00  0.00    -0.002 A 
ATOM     14  C   UNL     1       4.241  -9.638  -6.680  0.00  0.00    +0.029 A 
ATOM     15  C   UNL     1       5.582  -9.620  -6.862  0.00  0.00    +0.042 A 
ATOM     16  C   UNL     1       6.221  -8.569  -7.537  0.00  0.00    +0.022 A 
ATOM     17  C   UNL     1       5.550  -7.514  -8.044  0.00  0.00    +0.027 A 
ATOM     18  C   UNL     1       4.136  -7.429  -7.911  0.00  0.00    +0.043 A 
ATOM     19  N   UNL     1       3.274  -6.524  -8.310  0.00  0.00    -0.370 N 
ATOM     20 CL   UNL     1       6.536 -10.933  -6.245  0.00  0.00    -0.084 Cl
ATOM     21  H   UNL     1       3.488  -5.712  -8.796  0.00  0.00    +0.161 HD
ENDBRANCH   8  11
ENDBRANCH   4   7
BRANCH   1  22
ATOM     22  C   UNL     1      -2.359  -2.090  -3.316  0.00  0.00    +0.038 C 
BRANCH  22  23
ATOM     23  C   UNL     1      -1.447  -1.730  -2.141  0.00  0.00    +0.047 C 
BRANCH  23  32
ATOM     24  N   UNL     1      -1.198  -0.200  -0.232  0.00  0.00    -0.310 N 
ATOM     25  C   UNL     1      -1.825  -0.467   0.993  0.00  0.00    +0.052 A 
ATOM     26  C   UNL     1      -1.395  -0.239   2.295  0.00  0.00    +0.025 A 
ATOM     27  C   UNL     1      -2.198  -0.591   3.362  0.00  0.00    +0.002 A 
ATOM     28  C   UNL     1      -3.433  -1.173   3.140  0.00  0.00    +0.002 A 
ATOM     29  C   UNL     1      -3.868  -1.403   1.849  0.00  0.00    +0.025 A 
ATOM     30  C   UNL     1      -3.068  -1.051   0.769  0.00  0.00    +0.050 A 
ATOM     31  N   UNL     1      -3.288  -1.184  -0.609  0.00  0.00    -0.324 N 
ATOM     32  C   UNL     1      -2.109  -0.641  -1.295  0.00  0.00    +0.159 C 
ATOM     33  H   UNL     1      -4.076  -1.561  -1.032  0.00  0.00    +0.148 HD
BRANCH  24  35
ATOM     34  C   UNL     1      -0.029   1.931  -0.503  0.00  0.00    +0.024 C 
ATOM     35  C   UNL     1       0.120   0.411  -0.418  0.00  0.00    +0.103 C 
ENDBRANCH  24  35
ENDBRANCH  23  32
ENDBRANCH  22  23
ENDBRANCH   1  22
TORSDOF 6
