REMARK  Name = ZINC01870883
REMARK  7 active torsions:
REMARK  status: ('A' for Active; 'I' for Inactive)
REMARK    1  A    between atoms: C_1  and  C_2
REMARK    2  A    between atoms: C_2  and  C_40
REMARK    3  A    between atoms: N_11  and  C_32
REMARK    4  A    between atoms: C_14  and  S_17
REMARK    5  A    between atoms: S_17  and  C_18
REMARK    6  A    between atoms: C_18  and  C_19
REMARK    7  A    between atoms: N_21  and  C_22
REMARK                            x       y       z     vdW  Elec       q    Type
REMARK                         _______ _______ _______ _____ _____    ______ ____
ROOT
ATOM      1  C   UNL     1      -0.276   1.957   0.224  0.00  0.00    +0.041 C 
ATOM      2  C   UNL     1      -0.239   0.428   0.185  0.00  0.00    +0.068 C 
ATOM      3  C   UNL     1       0.454  -0.030  -1.103  0.00  0.00    +0.071 C 
ATOM      4  C   UNL     1       0.698  -1.529  -0.994  0.00  0.00    -0.018 A 
ATOM      5  C   UNL     1       0.643  -2.140   0.209  0.00  0.00    +0.021 A 
ATOM      6  S   UNL     1       0.982  -3.838  -0.139  0.00  0.00    -0.072 S 
ATOM      7  C   UNL     1       1.186  -3.749  -1.797  0.00  0.00    +0.102 A 
ATOM      8  C   UNL     1       0.999  -2.409  -2.120  0.00  0.00    +0.075 A 
ATOM      9  C   UNL     1       1.128  -2.053  -3.551  0.00  0.00    +0.268 A 
ATOM     10  O   UNL     1       0.979  -0.898  -3.909  0.00  0.00    -0.266 OA
ATOM     11  N   UNL     1       1.411  -3.006  -4.454  0.00  0.00    -0.245 N 
ATOM     12  C   UNL     1       1.587  -4.328  -4.075  0.00  0.00    +0.245 A 
ATOM     13  N   UNL     1       1.475  -4.694  -2.759  0.00  0.00    -0.249 N 
ATOM     14  C   UNL     1       1.696  -6.043  -2.679  0.00  0.00    +0.198 A 
ATOM     15  N   UNL     1       1.932  -6.489  -3.889  0.00  0.00    -0.120 NA
ATOM     16  N   UNL     1       1.863  -5.405  -4.772  0.00  0.00    -0.109 NA
ATOM     17  C   UNL     1       0.357  -1.477   1.520  0.00  0.00    +0.203 C 
ATOM     18  O   UNL     1       0.472  -0.058   1.327  0.00  0.00    -0.368 OA
ATOM     19  C   UNL     1      -1.669  -0.115   0.209  0.00  0.00    +0.041 C 
ENDROOT
BRANCH  11  20
ATOM     20  C   UNL     1       1.530  -2.659  -5.804  0.00  0.00    +0.053 A 
ATOM     21  C   UNL     1       0.426  -2.186  -6.501  0.00  0.00    +0.026 A 
ATOM     22  C   UNL     1       0.547  -1.843  -7.834  0.00  0.00    +0.002 A 
ATOM     23  C   UNL     1       1.766  -1.971  -8.474  0.00  0.00    +0.000 A 
ATOM     24  C   UNL     1       2.868  -2.442  -7.783  0.00  0.00    +0.002 A 
ATOM     25  C   UNL     1       2.755  -2.780  -6.449  0.00  0.00    +0.026 A 
ENDBRANCH  11  20
BRANCH  14  26
ATOM     26  S   UNL     1       1.668  -7.011  -1.207  0.00  0.00    -0.076 S 
BRANCH  26  27
ATOM     27  C   UNL     1       2.032  -8.693  -1.780  0.00  0.00    +0.173 C 
BRANCH  27  28
ATOM     28  C   UNL     1       2.039  -9.635  -0.604  0.00  0.00    +0.228 C 
ATOM     29  O   UNL     1       1.819  -9.212   0.512  0.00  0.00    -0.275 OA
ATOM     30  N   UNL     1       2.288 -10.946  -0.791  0.00  0.00    -0.284 N 
ATOM     31  H   UNL     1       2.544 -11.270  -1.669  0.00  0.00    +0.155 HD
BRANCH  30  32
ATOM     32  C   UNL     1       2.179 -11.837   0.278  0.00  0.00    +0.041 A 
ATOM     33  C   UNL     1       1.226 -11.638   1.254  0.00  0.00    +0.024 A 
ATOM     34  C   UNL     1       1.109 -12.520   2.324  0.00  0.00    +0.002 A 
ATOM     35  C   UNL     1       1.928 -13.602   2.436  0.00  0.00    +0.008 A 
ATOM     36  C   UNL     1       2.912 -13.841   1.462  0.00  0.00    -0.016 A 
ATOM     37  C   UNL     1       3.038 -12.953   0.366  0.00  0.00    +0.003 A 
ATOM     38  C   UNL     1       4.018 -13.195  -0.609  0.00  0.00    +0.010 A 
ATOM     39  C   UNL     1       4.830 -14.282  -0.492  0.00  0.00    +0.001 A 
ATOM     40  C   UNL     1       4.704 -15.160   0.583  0.00  0.00    +0.001 A 
ATOM     41  C   UNL     1       3.772 -14.950   1.552  0.00  0.00    +0.008 A 
ENDBRANCH  30  32
ENDBRANCH  27  28
ENDBRANCH  26  27
ENDBRANCH  14  26
TORSDOF 5
