REMARK  Name = ZINC38984729
REMARK  12 active torsions:
REMARK  status: ('A' for Active; 'I' for Inactive)
REMARK    1  A    between atoms: C_1  and  C_2
REMARK    2  A    between atoms: C_5  and  C_8
REMARK    3  A    between atoms: C_10  and  C_14
REMARK    4  A    between atoms: C_18  and  S_22
REMARK    5  A    between atoms: N_20  and  N_21
REMARK    6  A    between atoms: S_22  and  C_23
REMARK    7  A    between atoms: C_23  and  C_24
REMARK    8  A    between atoms: N_26  and  C_27
REMARK    9  A    between atoms: C_28  and  C_36
REMARK   10  A    between atoms: C_32  and  C_33
REMARK   11  A    between atoms: C_33  and  C_34
REMARK   12  A    between atoms: C_33  and  C_35
REMARK                            x       y       z     vdW  Elec       q    Type
REMARK                         _______ _______ _______ _____ _____    ______ ____
ROOT
ATOM      1  C   UNL     1       1.456  -6.715   0.740  0.00  0.00    +0.185 C 
ATOM      2  N   UNL     1       0.994  -7.687   1.765  0.00  0.00    -0.234 NA
ATOM      3  N   UNL     1       1.600  -8.952   1.320  0.00  0.00    -0.228 NA
ATOM      4  C   UNL     1       1.510  -8.905  -0.157  0.00  0.00    +0.214 C 
ATOM      5  N   UNL     1       1.421  -7.476  -0.530  0.00  0.00    -0.197 NA
ATOM      6  H   UNL     1       1.325  -7.431   2.683  0.00  0.00    +0.143 HD
ATOM      7  H   UNL     1       2.560  -9.018   1.622  0.00  0.00    +0.143 HD
ENDROOT
BRANCH   1  10
ATOM      8  C   UNL     1       0.947  -3.532   1.654  0.00  0.00    +0.091 C 
ATOM      9  C   UNL     1       0.503  -4.759   1.988  0.00  0.00    +0.034 C 
ATOM     10  C   UNL     1       0.505  -5.517   0.672  0.00  0.00    +0.187 C 
ATOM     11  N   UNL     1       0.994  -4.516  -0.291  0.00  0.00    -0.176 NA
ATOM     12  N   UNL     1       1.204  -3.467   0.321  0.00  0.00    -0.154 NA
BRANCH   8  17
ATOM     13  C   UNL     1       1.637   0.830   5.351  0.00  0.00    +0.044 C 
ATOM     14  C   UNL     1       1.457  -0.311   4.383  0.00  0.00    -0.050 A 
ATOM     15  C   UNL     1       1.751  -0.132   3.044  0.00  0.00    +0.004 A 
ATOM     16  C   UNL     1       1.587  -1.174   2.153  0.00  0.00    +0.010 A 
ATOM     17  C   UNL     1       1.125  -2.408   2.607  0.00  0.00    +0.002 A 
ATOM     18  C   UNL     1       0.831  -2.583   3.957  0.00  0.00    +0.010 A 
ATOM     19  C   UNL     1       1.003  -1.536   4.840  0.00  0.00    +0.004 A 
ENDBRANCH   8  17
ENDBRANCH   1  10
BRANCH   5  20
ATOM     20  N   UNL     1       2.523  -7.091  -1.397  0.00  0.00    -0.264 NA
ATOM     21  H   UNL     1       2.500  -7.610  -2.263  0.00  0.00    +0.137 HD
ATOM     22  H   UNL     1       2.516  -6.098  -1.571  0.00  0.00    +0.137 HD
ENDBRANCH   5  20
BRANCH   4  23
ATOM     23  S   UNL     1       2.992  -9.648  -0.894  0.00  0.00    -0.115 S 
BRANCH  23  24
ATOM     24  C   UNL     1       4.356  -8.652  -0.232  0.00  0.00    +0.168 C 
BRANCH  24  25
ATOM     25  C   UNL     1       5.664  -9.170  -0.773  0.00  0.00    +0.227 C 
ATOM     26  O   UNL     1       5.675 -10.117  -1.530  0.00  0.00    -0.275 OA
ATOM     27  N   UNL     1       6.822  -8.581  -0.415  0.00  0.00    -0.284 N 
ATOM     28  H   UNL     1       6.811  -7.790   0.147  0.00  0.00    +0.155 HD
BRANCH  27  29
ATOM     29  C   UNL     1       8.041  -9.109  -0.854  0.00  0.00    +0.040 A 
ATOM     30  C   UNL     1       8.331 -10.452  -0.650  0.00  0.00    -0.029 A 
ATOM     31  C   UNL     1       9.535 -10.971  -1.084  0.00  0.00    +0.005 A 
ATOM     32  C   UNL     1      10.452 -10.154  -1.721  0.00  0.00    +0.001 A 
ATOM     33  C   UNL     1      10.167  -8.817  -1.925  0.00  0.00    +0.006 A 
ATOM     34  C   UNL     1       8.961  -8.294  -1.499  0.00  0.00    -0.023 A 
ATOM     35  C   UNL     1       7.333 -11.342   0.045  0.00  0.00    +0.045 C 
BRANCH  34  36
ATOM     36  C   UNL     1       8.648  -6.838  -1.728  0.00  0.00    +0.015 C 
ATOM     37  C   UNL     1       9.700  -5.973  -1.029  0.00  0.00    +0.012 C 
ATOM     38  C   UNL     1       8.662  -6.543  -3.229  0.00  0.00    +0.012 C 
ENDBRANCH  34  36
ENDBRANCH  27  29
ENDBRANCH  24  25
ENDBRANCH  23  24
ENDBRANCH   4  23
TORSDOF 8
