REMARK  Name = ZINC35374413
REMARK  7 active torsions:
REMARK  status: ('A' for Active; 'I' for Inactive)
REMARK    1  A    between atoms: C_1  and  C_2
REMARK    2  A    between atoms: C_2  and  C_3
REMARK    3  A    between atoms: C_3  and  C_5
REMARK    4  A    between atoms: C_3  and  C_6
REMARK    5  A    between atoms: C_6  and  N_7
REMARK    6  A    between atoms: C_8  and  C_10
REMARK    7  A    between atoms: C_21  and  C_23
REMARK                            x       y       z     vdW  Elec       q    Type
REMARK                         _______ _______ _______ _____ _____    ______ ____
ROOT
ATOM      1  C   UNL     1       1.851  -4.296  -4.089  0.00  0.00    +0.028 C 
ATOM      2  C   UNL     1       1.048  -3.680  -5.275  0.00  0.00    +0.061 C 
ATOM      3  S   UNL     1       1.532  -4.862  -6.609  0.00  0.00    -0.174 S 
ATOM      4  C   UNL     1       2.073  -6.255  -5.542  0.00  0.00    -0.016 C 
ATOM      5  N   UNL     1       1.772  -5.768  -4.180  0.00  0.00    +0.397 N 
ATOM      6  C   UNL     1       3.564  -6.493  -5.722  0.00  0.00    +0.017 C 
ATOM      7  C   UNL     1       4.013  -7.638  -4.807  0.00  0.00    +0.107 C 
ATOM      8  N   UNL     1       3.156  -8.805  -5.057  0.00  0.00    -0.298 N 
ATOM      9  C   UNL     1       1.698  -8.649  -4.953  0.00  0.00    +0.107 C 
ATOM     10  C   UNL     1       1.261  -7.498  -5.867  0.00  0.00    +0.017 C 
ATOM     11  C   UNL     1       3.696  -9.998  -5.376  0.00  0.00    +0.248 C 
ATOM     12  O   UNL     1       4.894 -10.092  -5.562  0.00  0.00    -0.270 OA
ATOM     13  H   UNL     1       2.433  -6.173  -3.535  0.00  0.00    -0.083 HD
ATOM     14  H   UNL     1       0.842  -6.063  -3.923  0.00  0.00    -0.083 HD
ENDROOT
BRANCH  11  15
ATOM     15  C   UNL     1       2.833 -11.190  -5.501  0.00  0.00    +0.055 A 
ATOM     16  C   UNL     1       1.989 -11.557  -4.450  0.00  0.00    +0.016 A 
ATOM     17  C   UNL     1       1.186 -12.671  -4.572  0.00  0.00    +0.021 A 
ATOM     18  C   UNL     1       1.216 -13.427  -5.733  0.00  0.00    +0.042 A 
ATOM     19  C   UNL     1       2.050 -13.070  -6.778  0.00  0.00    +0.040 A 
ATOM     20  C   UNL     1       2.854 -11.952  -6.672  0.00  0.00    +0.054 A 
ATOM     21 CL   UNL     1       3.895 -11.500  -7.986  0.00  0.00    -0.083 Cl
ATOM     22 CL   UNL     1       0.202 -14.829  -5.878  0.00  0.00    -0.083 Cl
ENDBRANCH  11  15
BRANCH   1  24
ATOM     23  N   UNL     1       1.227  -2.524  -2.481  0.00  0.00    -0.316 N 
ATOM     24  C   UNL     1       1.256  -3.837  -2.783  0.00  0.00    +0.200 C 
ATOM     25  O   UNL     1       0.805  -4.649  -2.003  0.00  0.00    -0.278 OA
ATOM     26  H   UNL     1       1.588  -1.874  -3.104  0.00  0.00    +0.149 HD
BRANCH  23  27
ATOM     27  C   UNL     1       0.649  -2.077  -1.210  0.00  0.00    +0.107 C 
BRANCH  27  28
ATOM     28  C   UNL     1       0.740  -0.553  -1.117  0.00  0.00    +0.003 C 
ATOM     29  C   UNL     1       2.209  -0.131  -1.064  0.00  0.00    +0.009 C 
BRANCH  28  31
ATOM     30  C   UNL     1       0.008   1.454   0.180  0.00  0.00    +0.004 C 
ATOM     31  C   UNL     1       0.026  -0.076   0.150  0.00  0.00    +0.001 C 
ENDBRANCH  28  31
ENDBRANCH  27  28
ENDBRANCH  23  27
ENDBRANCH   1  24
TORSDOF 5
