REMARK  Name = ZINC39671427
REMARK  4 active torsions:
REMARK  status: ('A' for Active; 'I' for Inactive)
REMARK    1  A    between atoms: C_6  and  C_11
REMARK    2  A    between atoms: C_11  and  N_12
REMARK    3  A    between atoms: C_13  and  C_15
REMARK    4  A    between atoms: C_26  and  C_28
REMARK                            x       y       z     vdW  Elec       q    Type
REMARK                         _______ _______ _______ _____ _____    ______ ____
ROOT
ATOM      1  C   UNL     1      -8.277   0.079   3.803  0.00  0.00    +0.100 C 
ATOM      2  C   UNL     1      -7.732   1.417   4.352  0.00  0.00    +0.121 C 
ATOM      3  N   UNL     1      -8.877   2.353   4.260  0.00  0.00    -0.296 N 
ATOM      4  C   UNL     1     -10.053   1.538   4.648  0.00  0.00    +0.115 C 
ATOM      5  C   UNL     1      -9.799   0.161   4.002  0.00  0.00    -0.004 C 
ATOM      6  C   UNL     1     -10.271  -0.953   4.932  0.00  0.00    -0.010 C 
ATOM      7  C   UNL     1     -11.795  -0.887   5.068  0.00  0.00    -0.082 C 
ATOM      8  N   UNL     1     -12.413  -1.031   3.744  0.00  0.00    +0.379 N 
ATOM      9  C   UNL     1     -12.028   0.095   2.886  0.00  0.00    -0.082 C 
ATOM     10  C   UNL     1     -10.514   0.070   2.657  0.00  0.00    -0.010 C 
ATOM     11  C   UNL     1      -8.854   3.653   3.903  0.00  0.00    +0.247 C 
ATOM     12  O   UNL     1      -7.826   4.152   3.488  0.00  0.00    -0.270 OA
ATOM     13  H   UNL     1     -12.105  -1.895   3.323  0.00  0.00    -0.086 HD
ATOM     14  H   UNL     1     -13.417  -1.049   3.844  0.00  0.00    -0.086 HD
ENDROOT
BRANCH  11  15
ATOM     15  C   UNL     1     -10.080   4.472   4.017  0.00  0.00    +0.040 A 
ATOM     16  C   UNL     1     -11.113   4.073   4.866  0.00  0.00    +0.033 A 
ATOM     17  C   UNL     1     -12.255   4.842   4.968  0.00  0.00    +0.043 A 
ATOM     18  C   UNL     1     -12.377   6.007   4.229  0.00  0.00    +0.040 A 
ATOM     19  C   UNL     1     -11.355   6.408   3.385  0.00  0.00    +0.043 A 
ATOM     20  C   UNL     1     -10.206   5.650   3.279  0.00  0.00    +0.033 A 
ATOM     21 CL   UNL     1     -11.518   7.869   2.462  0.00  0.00    -0.083 Cl
ATOM     22 CL   UNL     1     -13.542   4.348   6.023  0.00  0.00    -0.083 Cl
ENDBRANCH  11  15
BRANCH   1  24
ATOM     23  N   UNL     1      -7.883  -1.284   1.777  0.00  0.00    -0.309 N 
ATOM     24  C   UNL     1      -7.946  -0.061   2.340  0.00  0.00    +0.219 C 
ATOM     25  O   UNL     1      -7.735   0.927   1.668  0.00  0.00    -0.275 OA
ATOM     26  H   UNL     1      -8.052  -2.074   2.314  0.00  0.00    +0.149 HD
BRANCH  23  27
ATOM     27  C   UNL     1      -7.562  -1.420   0.354  0.00  0.00    +0.157 C 
BRANCH  27  33
ATOM     28  C   UNL     1      -6.975  -7.305  -1.079  0.00  0.00    +0.001 A 
ATOM     29  C   UNL     1      -8.348  -7.218  -1.266  0.00  0.00    +0.002 A 
ATOM     30  C   UNL     1      -9.011  -6.028  -1.059  0.00  0.00    +0.026 A 
ATOM     31  C   UNL     1      -8.300  -4.902  -0.659  0.00  0.00    +0.047 A 
ATOM     32  N   UNL     1      -8.661  -3.603  -0.378  0.00  0.00    -0.357 N 
ATOM     33  C   UNL     1      -7.556  -2.879  -0.022  0.00  0.00    +0.034 A 
ATOM     34  H   UNL     1      -9.565  -3.253  -0.426  0.00  0.00    +0.166 HD
ATOM     35  C   UNL     1      -6.466  -3.661  -0.059  0.00  0.00    +0.032 A 
ATOM     36  C   UNL     1      -6.909  -4.995  -0.471  0.00  0.00    -0.000 A 
ATOM     37  C   UNL     1      -6.258  -6.212  -0.681  0.00  0.00    +0.010 A 
ENDBRANCH  27  33
ENDBRANCH  23  27
ENDBRANCH   1  24
TORSDOF 4
