REMARK  Name = ZINC10769423
REMARK  5 active torsions:
REMARK  status: ('A' for Active; 'I' for Inactive)
REMARK    1  A    between atoms: C_5  and  S_6
REMARK    2  A    between atoms: S_6  and  N_9
REMARK    3  A    between atoms: C_13  and  C_16
REMARK    4  A    between atoms: N_18  and  C_19
REMARK    5  A    between atoms: C_20  and  C_29
REMARK                            x       y       z     vdW  Elec       q    Type
REMARK                         _______ _______ _______ _____ _____    ______ ____
ROOT
ATOM      1  C   UNL     1      -2.713   7.614   3.811  0.00  0.00    +0.222 C 
ATOM      2  O   UNL     1      -1.506   7.662   3.912  0.00  0.00    -0.275 OA
ATOM      3  N   UNL     1      -3.481   8.516   4.455  0.00  0.00    -0.279 N 
ATOM      4  H   UNL     1      -4.446   8.477   4.373  0.00  0.00    +0.155 HD
ENDROOT
BRANCH   3   5
ATOM      5  C   UNL     1      -2.889   9.499   5.234  0.00  0.00    +0.084 A 
ATOM      6  C   UNL     1      -3.503  10.504   5.965  0.00  0.00    +0.068 A 
ATOM      7  C   UNL     1      -2.648  11.417   6.711  0.00  0.00    -0.023 A 
ATOM      8  C   UNL     1      -1.324  11.182   6.594  0.00  0.00    -0.004 A 
ATOM      9  S   UNL     1      -1.205   9.764   5.536  0.00  0.00    -0.077 S 
ATOM     10  C   UNL     1      -0.199  11.945   7.219  0.00  0.00    +0.043 C 
ATOM     11  C   UNL     1      -0.486  12.134   8.715  0.00  0.00    +0.005 C 
ATOM     12  C   UNL     1      -1.272  13.428   8.897  0.00  0.00    +0.001 C 
ATOM     13  C   UNL     1      -2.182  13.664   7.693  0.00  0.00    +0.005 C 
ATOM     14  C   UNL     1      -3.208  12.543   7.571  0.00  0.00    +0.037 C 
BRANCH   6  15
ATOM     15  C   UNL     1      -4.962  10.642   5.987  0.00  0.00    +0.244 C 
ATOM     16  O   UNL     1      -5.616  10.061   6.833  0.00  0.00    -0.270 OA
ATOM     17  N   UNL     1      -5.580  11.413   5.069  0.00  0.00    -0.325 N 
ATOM     18  H   UNL     1      -5.059  11.876   4.395  0.00  0.00    +0.145 HD
ATOM     19  H   UNL     1      -6.545  11.505   5.084  0.00  0.00    +0.145 HD
ENDBRANCH   6  15
ENDBRANCH   3   5
BRANCH   1  24
ATOM     20  N   UNL     1      -2.913   4.548   1.633  0.00  0.00    -0.175 NA
ATOM     21  C   UNL     1      -3.890   3.718   2.352  0.00  0.00    +0.109 C 
ATOM     22  C   UNL     1      -4.954   4.623   2.969  0.00  0.00    +0.018 C 
ATOM     23  C   UNL     1      -4.276   5.688   3.835  0.00  0.00    +0.015 C 
ATOM     24  C   UNL     1      -3.356   6.546   2.964  0.00  0.00    +0.091 C 
ATOM     25  C   UNL     1      -2.269   5.659   2.348  0.00  0.00    +0.122 C 
BRANCH  20  26
ATOM     26  S   UNL     1      -2.551   4.243   0.047  0.00  0.00    +0.067 S 
ATOM     27  O   UNL     1      -2.072   5.463  -0.503  0.00  0.00    -0.152 OA
ATOM     28  O   UNL     1      -3.664   3.547  -0.497  0.00  0.00    -0.152 OA
BRANCH  26  33
ATOM     29  C   UNL     1      -1.213   1.762   0.017  0.00  0.00    +0.038 A 
ATOM     30  C   UNL     1      -0.013   1.076   0.008  0.00  0.00    +0.030 A 
ATOM     31  C   UNL     1       1.147   1.780   0.001  0.00  0.00    +0.080 A 
ATOM     32  S   UNL     1       0.555   3.465   0.015  0.00  0.00    -0.057 S 
ATOM     33  C   UNL     1      -1.196   3.117   0.029  0.00  0.00    +0.144 A 
ATOM     34 CL   UNL     1       2.781   1.196  -0.017  0.00  0.00    -0.076 Cl
ENDBRANCH  26  33
ENDBRANCH  20  26
ENDBRANCH   1  24
TORSDOF 5
