REMARK  Name = ZINC39640422
REMARK  11 active torsions:
REMARK  status: ('A' for Active; 'I' for Inactive)
REMARK    1  A    between atoms: C_1  and  C_2
REMARK    2  A    between atoms: C_2  and  O_3
REMARK    3  A    between atoms: O_3  and  C_4
REMARK    4  A    between atoms: C_4  and  C_6
REMARK    5  A    between atoms: C_7  and  C_20
REMARK    6  A    between atoms: C_12  and  C_14
REMARK    7  A    between atoms: C_20  and  O_21
REMARK    8  A    between atoms: O_21  and  C_22
REMARK    9  A    between atoms: C_22  and  C_24
REMARK   10  A    between atoms: C_24  and  N_25
REMARK   11  A    between atoms: C_26  and  C_28
REMARK                            x       y       z     vdW  Elec       q    Type
REMARK                         _______ _______ _______ _____ _____    ______ ____
ROOT
ATOM      1  C   UNL     1       1.570  -2.364   2.370  0.00  0.00    +0.081 C 
ATOM      2  C   UNL     1       1.513  -3.685   2.645  0.00  0.00    +0.061 C 
ATOM      3  N   UNL     1       2.064  -4.191   3.787  0.00  0.00    -0.269 N 
ATOM      4  C   UNL     1       2.689  -3.443   4.705  0.00  0.00    +0.304 C 
ATOM      5  O   UNL     1       3.148  -3.985   5.692  0.00  0.00    -0.252 OA
ATOM      6  N   UNL     1       2.825  -2.109   4.571  0.00  0.00    -0.288 N 
ATOM      7  C   UNL     1       2.271  -1.465   3.369  0.00  0.00    +0.144 C 
ATOM      8  H   UNL     1       1.999  -5.146   3.942  0.00  0.00    +0.156 HD
ATOM      9  H   UNL     1       3.282  -1.586   5.249  0.00  0.00    +0.151 HD
ENDROOT
BRANCH   7  10
ATOM     10  C   UNL     1       3.394  -0.761   2.652  0.00  0.00    -0.022 A 
ATOM     11  C   UNL     1       4.588  -1.420   2.423  0.00  0.00    +0.006 A 
ATOM     12  C   UNL     1       5.618  -0.774   1.766  0.00  0.00    +0.000 A 
ATOM     13  C   UNL     1       5.455   0.530   1.337  0.00  0.00    +0.000 A 
ATOM     14  C   UNL     1       4.261   1.188   1.566  0.00  0.00    +0.000 A 
ATOM     15  C   UNL     1       3.229   0.541   2.219  0.00  0.00    +0.006 A 
ENDBRANCH   7  10
BRANCH   1  16
ATOM     16  C   UNL     1       1.000  -1.838   1.187  0.00  0.00    +0.339 C 
ATOM     17  O   UNL     1      -0.079  -1.278   1.228  0.00  0.00    -0.245 OA
BRANCH  16  18
ATOM     18  O   UNL     1       1.654  -1.957   0.012  0.00  0.00    -0.462 OA
BRANCH  18  20
ATOM     19  C   UNL     1       1.905  -1.633  -2.369  0.00  0.00    +0.048 C 
ATOM     20  C   UNL     1       1.020  -1.403  -1.142  0.00  0.00    +0.229 C 
ENDBRANCH  18  20
ENDBRANCH  16  18
ENDBRANCH   1  16
BRANCH   2  21
ATOM     21  C   UNL     1       0.830  -4.615   1.676  0.00  0.00    +0.283 C 
BRANCH  21  22
ATOM     22  O   UNL     1       1.793  -5.509   1.115  0.00  0.00    -0.458 OA
BRANCH  22  23
ATOM     23  C   UNL     1       1.344  -6.409   0.226  0.00  0.00    +0.325 C 
ATOM     24  O   UNL     1       0.172  -6.436  -0.067  0.00  0.00    -0.249 OA
BRANCH  23  25
ATOM     25  C   UNL     1       2.302  -7.385  -0.408  0.00  0.00    +0.224 C 
BRANCH  25  26
ATOM     26  N   UNL     1       1.572  -8.254  -1.334  0.00  0.00    -0.304 N 
ATOM     27  C   UNL     1       2.228  -9.211  -2.020  0.00  0.00    +0.220 C 
ATOM     28  O   UNL     1       3.423  -9.353  -1.870  0.00  0.00    -0.275 OA
ATOM     29  H   UNL     1       0.616  -8.141  -1.454  0.00  0.00    +0.149 HD
BRANCH  27  30
ATOM     30  C   UNL     1       1.477 -10.105  -2.973  0.00  0.00    +0.048 C 
ATOM     31  C   UNL     1       0.822  -9.253  -4.062  0.00  0.00    +0.019 C 
ATOM     32  C   UNL     1       0.060 -10.160  -5.030  0.00  0.00    -0.009 C 
ATOM     33  C   UNL     1       1.032 -11.152  -5.673  0.00  0.00    +0.007 C 
ATOM     34  C   UNL     1       1.687 -12.003  -4.583  0.00  0.00    -0.009 C 
ATOM     35  C   UNL     1       2.449 -11.096  -3.616  0.00  0.00    +0.019 C 
ATOM     36  C   UNL     1       0.607 -12.771  -3.819  0.00  0.00    +0.007 C 
ATOM     37  C   UNL     1      -0.365 -11.780  -3.175  0.00  0.00    -0.009 C 
ATOM     38  C   UNL     1      -1.020 -10.929  -4.265  0.00  0.00    +0.007 C 
ATOM     39  C   UNL     1       0.398 -10.873  -2.208  0.00  0.00    +0.019 C 
ENDBRANCH  27  30
ENDBRANCH  25  26
ENDBRANCH  23  25
ENDBRANCH  22  23
ENDBRANCH  21  22
ENDBRANCH   2  21
TORSDOF 10
