REMARK  Name = ZINC35711683
REMARK  15 active torsions:
REMARK  status: ('A' for Active; 'I' for Inactive)
REMARK    1  A    between atoms: C_1  and  C_2
REMARK    2  A    between atoms: C_2  and  C_3
REMARK    3  A    between atoms: C_3  and  N_4
REMARK    4  A    between atoms: C_5  and  C_37
REMARK    5  A    between atoms: C_6  and  C_30
REMARK    6  A    between atoms: C_7  and  C_12
REMARK    7  A    between atoms: C_15  and  N_18
REMARK    8  A    between atoms: N_21  and  C_22
REMARK    9  A    between atoms: C_23  and  C_29
REMARK   10  A    between atoms: C_27  and  C_28
REMARK   11  A    between atoms: C_30  and  O_32
REMARK   12  A    between atoms: O_32  and  C_33
REMARK   13  A    between atoms: C_33  and  C_34
REMARK   14  A    between atoms: C_34  and  C_35
REMARK   15  A    between atoms: C_34  and  C_36
REMARK                            x       y       z     vdW  Elec       q    Type
REMARK                         _______ _______ _______ _____ _____    ______ ____
ROOT
ATOM      1  C   UNL     1       0.681  -7.270   3.511  0.00  0.00    -0.022 A 
ATOM      2  C   UNL     1       2.052  -7.384   3.652  0.00  0.00    +0.007 A 
ATOM      3  C   UNL     1       2.791  -8.067   2.706  0.00  0.00    +0.024 A 
ATOM      4  C   UNL     1       2.155  -8.640   1.612  0.00  0.00    +0.035 A 
ATOM      5  C   UNL     1       0.778  -8.524   1.473  0.00  0.00    +0.024 A 
ATOM      6  C   UNL     1       0.045  -7.844   2.426  0.00  0.00    +0.007 A 
ENDROOT
BRANCH   1  10
ATOM      7  N   UNL     1       0.883  -4.777   6.439  0.00  0.00    -0.259 N 
ATOM      8  C   UNL     1       0.509  -4.254   5.235  0.00  0.00    +0.024 C 
ATOM      9  C   UNL     1       0.009  -5.042   4.258  0.00  0.00    +0.078 C 
ATOM     10  C   UNL     1      -0.122  -6.524   4.546  0.00  0.00    +0.143 C 
ATOM     11  N   UNL     1       0.311  -6.987   5.875  0.00  0.00    -0.288 N 
ATOM     12  C   UNL     1       0.795  -6.078   6.744  0.00  0.00    +0.307 C 
ATOM     13  O   UNL     1       1.158  -6.450   7.843  0.00  0.00    -0.252 OA
ATOM     14  C   UNL     1       0.655  -2.774   4.991  0.00  0.00    +0.061 C 
ATOM     15  H   UNL     1       0.252  -7.924   6.118  0.00  0.00    +0.151 HD
BRANCH   9  16
ATOM     16  C   UNL     1      -0.381  -4.502   3.010  0.00  0.00    +0.339 C 
ATOM     17  O   UNL     1      -0.267  -3.308   2.802  0.00  0.00    -0.245 OA
BRANCH  16  18
ATOM     18  O   UNL     1      -0.878  -5.310   2.051  0.00  0.00    -0.461 OA
BRANCH  18  19
ATOM     19  C   UNL     1      -1.250  -4.697   0.815  0.00  0.00    +0.235 C 
BRANCH  19  20
ATOM     20  C   UNL     1      -1.788  -5.763  -0.141  0.00  0.00    +0.020 C 
ATOM     21  C   UNL     1      -3.082  -6.351   0.425  0.00  0.00    +0.010 C 
ATOM     22  C   UNL     1      -2.070  -5.130  -1.505  0.00  0.00    +0.010 C 
ENDBRANCH  19  20
ENDBRANCH  18  19
ENDBRANCH  16  18
ENDBRANCH   9  16
BRANCH   7  23
ATOM     23  C   UNL     1       1.418  -3.864   7.453  0.00  0.00    +0.114 C 
BRANCH  23  25
ATOM     24  C   UNL     1       0.820  -2.280   9.290  0.00  0.00    +0.005 C 
ATOM     25  C   UNL     1       0.262  -3.233   8.232  0.00  0.00    +0.016 C 
ENDBRANCH  23  25
ENDBRANCH   7  23
ENDBRANCH   1  10
BRANCH   4  26
ATOM     26  N   UNL     1       2.901  -9.332   0.651  0.00  0.00    -0.269 N 
ATOM     27  C   UNL     1       4.154  -8.934   0.355  0.00  0.00    +0.308 C 
ATOM     28  O   UNL     1       4.605  -7.923   0.857  0.00  0.00    -0.252 OA
ATOM     29  N   UNL     1       4.907  -9.658  -0.497  0.00  0.00    -0.269 N 
ATOM     30  H   UNL     1       2.515 -10.098   0.198  0.00  0.00    +0.156 HD
ATOM     31  H   UNL     1       4.534 -10.442  -0.928  0.00  0.00    +0.156 HD
BRANCH  29  32
ATOM     32  C   UNL     1       6.228  -9.277  -0.758  0.00  0.00    +0.041 A 
ATOM     33  C   UNL     1       7.270 -10.158  -0.499  0.00  0.00    -0.029 A 
ATOM     34  C   UNL     1       8.573  -9.779  -0.759  0.00  0.00    +0.005 A 
ATOM     35  C   UNL     1       8.840  -8.525  -1.276  0.00  0.00    +0.001 A 
ATOM     36  C   UNL     1       7.804  -7.646  -1.535  0.00  0.00    +0.005 A 
ATOM     37  C   UNL     1       6.499  -8.021  -1.283  0.00  0.00    -0.029 A 
ATOM     38  C   UNL     1       5.371  -7.064  -1.572  0.00  0.00    +0.045 C 
ATOM     39  C   UNL     1       6.980 -11.525   0.065  0.00  0.00    +0.045 C 
ENDBRANCH  29  32
ENDBRANCH   4  26
TORSDOF 9
