REMARK  Name = ZINC03305385
REMARK  13 active torsions:
REMARK  status: ('A' for Active; 'I' for Inactive)
REMARK    1  A    between atoms: C_1  and  C_2
REMARK    2  A    between atoms: C_2  and  N_3
REMARK    3  A    between atoms: N_3  and  C_4
REMARK    4  A    between atoms: N_3  and  S_6
REMARK    5  A    between atoms: C_4  and  C_5
REMARK    6  A    between atoms: S_6  and  C_9
REMARK    7  A    between atoms: C_12  and  C_15
REMARK    8  A    between atoms: N_17  and  C_18
REMARK    9  A    between atoms: C_19  and  C_37
REMARK   10  A    between atoms: C_20  and  C_30
REMARK   11  A    between atoms: C_21  and  C_23
REMARK   12  A    between atoms: C_26  and  C_29
REMARK   13  A    between atoms: C_33  and  C_36
REMARK                            x       y       z     vdW  Elec       q    Type
REMARK                         _______ _______ _______ _____ _____    ______ ____
ROOT
ATOM      1  C   UNL     1      -3.897  -0.708   0.026  0.00  0.00    +0.211 A 
ATOM      2  C   UNL     1      -4.679   0.421   0.213  0.00  0.00    +0.121 A 
ATOM      3  C   UNL     1      -3.748   1.562   0.131  0.00  0.00    +0.047 A 
ATOM      4  C   UNL     1      -2.515   1.019  -0.103  0.00  0.00    +0.146 A 
ATOM      5  O   UNL     1      -2.627  -0.322  -0.157  0.00  0.00    -0.439 OA
ENDROOT
BRANCH   4   6
ATOM      6  C   UNL     1      -1.261   1.780  -0.264  0.00  0.00    +0.018 A 
ATOM      7  C   UNL     1      -1.220   2.896  -1.104  0.00  0.00    +0.012 A 
ATOM      8  C   UNL     1      -0.046   3.605  -1.245  0.00  0.00    +0.004 A 
ATOM      9  C   UNL     1       1.091   3.211  -0.562  0.00  0.00    -0.050 A 
ATOM     10  C   UNL     1       1.059   2.105   0.269  0.00  0.00    +0.004 A 
ATOM     11  C   UNL     1      -0.108   1.386   0.420  0.00  0.00    +0.012 A 
ATOM     12  C   UNL     1       2.370   3.992  -0.722  0.00  0.00    +0.044 C 
ENDBRANCH   4   6
BRANCH   3  13
ATOM     13  C   UNL     1      -4.081   2.998   0.270  0.00  0.00    -0.013 A 
ATOM     14  C   UNL     1      -3.603   3.726   1.360  0.00  0.00    +0.009 A 
ATOM     15  C   UNL     1      -3.912   5.065   1.481  0.00  0.00    +0.004 A 
ATOM     16  C   UNL     1      -4.704   5.684   0.530  0.00  0.00    -0.050 A 
ATOM     17  C   UNL     1      -5.186   4.966  -0.550  0.00  0.00    +0.004 A 
ATOM     18  C   UNL     1      -4.880   3.628  -0.685  0.00  0.00    +0.009 A 
ATOM     19  C   UNL     1      -5.042   7.145   0.672  0.00  0.00    +0.044 C 
ENDBRANCH   3  13
BRANCH   1  22
ATOM     20  C   UNL     1      -3.485  -3.028  -0.166  0.00  0.00    +0.250 C 
ATOM     21  O   UNL     1      -2.305  -2.795  -0.344  0.00  0.00    -0.270 OA
ATOM     22  N   UNL     1      -4.350  -2.013   0.029  0.00  0.00    -0.251 N 
ATOM     23  H   UNL     1      -5.292  -2.199   0.171  0.00  0.00    +0.158 HD
BRANCH  20  27
ATOM     24  C   UNL     1      -4.879  -7.039  -0.157  0.00  0.00    +0.106 A 
ATOM     25  C   UNL     1      -3.536  -6.777  -0.361  0.00  0.00    +0.029 A 
ATOM     26  C   UNL     1      -3.076  -5.477  -0.365  0.00  0.00    +0.015 A 
ATOM     27  C   UNL     1      -3.970  -4.423  -0.163  0.00  0.00    +0.037 A 
ATOM     28  C   UNL     1      -5.323  -4.695   0.046  0.00  0.00    +0.015 A 
ATOM     29  C   UNL     1      -5.771  -6.000   0.043  0.00  0.00    +0.029 A 
BRANCH  24  30
ATOM     30  S   UNL     1      -5.458  -8.704  -0.154  0.00  0.00    +0.061 S 
ATOM     31  O   UNL     1      -6.838  -8.655  -0.486  0.00  0.00    -0.153 OA
ATOM     32  O   UNL     1      -4.519  -9.461  -0.905  0.00  0.00    -0.153 OA
BRANCH  30  33
ATOM     33  N   UNL     1      -5.366  -9.250   1.407  0.00  0.00    -0.177 NA
BRANCH  33  35
ATOM     34  C   UNL     1      -7.358 -10.353   2.301  0.00  0.00    +0.022 C 
ATOM     35  C   UNL     1      -6.507  -9.081   2.311  0.00  0.00    +0.106 C 
ENDBRANCH  33  35
BRANCH  33  36
ATOM     36  C   UNL     1      -4.144  -9.903   1.884  0.00  0.00    +0.106 C 
ATOM     37  C   UNL     1      -3.253  -8.872   2.579  0.00  0.00    +0.022 C 
ENDBRANCH  33  36
ENDBRANCH  30  33
ENDBRANCH  24  30
ENDBRANCH  20  27
ENDBRANCH   1  22
BRANCH   2  38
ATOM     38  C   UNL     1      -6.091   0.469   0.444  0.00  0.00    +0.105 C 
ATOM     39  N   UNL     1      -7.212   0.506   0.626  0.00  0.00    -0.191 NA
ENDBRANCH   2  38
TORSDOF 9
