REMARK  Name = ZINC63588582
REMARK  13 active torsions:
REMARK  status: ('A' for Active; 'I' for Inactive)
REMARK    1  A    between atoms: C_1  and  O_2
REMARK    2  A    between atoms: O_2  and  C_3
REMARK    3  A    between atoms: C_6  and  N_9
REMARK    4  A    between atoms: N_11  and  C_12
REMARK    5  A    between atoms: C_12  and  C_13
REMARK    6  A    between atoms: C_13  and  C_14
REMARK    7  A    between atoms: N_23  and  C_24
REMARK    8  A    between atoms: C_24  and  C_26
REMARK    9  A    between atoms: C_26  and  C_27
REMARK   10  A    between atoms: C_30  and  O_35
REMARK   11  A    between atoms: C_31  and  O_33
REMARK   12  A    between atoms: O_33  and  C_34
REMARK   13  A    between atoms: O_35  and  C_36
REMARK                            x       y       z     vdW  Elec       q    Type
REMARK                         _______ _______ _______ _____ _____    ______ ____
ROOT
ATOM      1  N   UNL     1       2.235  -2.852  -4.017  0.00  0.00    -0.328 N 
ATOM      2  C   UNL     1       2.466  -4.146  -4.380  0.00  0.00    +0.194 C 
ATOM      3  N   UNL     1       3.017  -4.425  -5.595  0.00  0.00    -0.357 N 
ATOM      4  N   UNL     1       2.154  -5.134  -3.551  0.00  0.00    -0.147 NA
ATOM      5  H   UNL     1       2.883  -5.296  -6.000  0.00  0.00    +0.162 HD
ATOM      6  H   UNL     1       2.477  -2.547  -3.129  0.00  0.00    +0.169 HD
ENDROOT
BRANCH   1  10
ATOM      7  C   UNL     1       0.488  -0.207  -6.726  0.00  0.00    +0.120 A 
ATOM      8  C   UNL     1       1.336   0.271  -5.738  0.00  0.00    +0.047 A 
ATOM      9  C   UNL     1       1.914  -0.604  -4.841  0.00  0.00    +0.029 A 
ATOM     10  C   UNL     1       1.647  -1.964  -4.927  0.00  0.00    +0.042 A 
ATOM     11  C   UNL     1       0.799  -2.442  -5.917  0.00  0.00    +0.029 A 
ATOM     12  C   UNL     1       0.217  -1.565  -6.810  0.00  0.00    +0.047 A 
BRANCH   7  14
ATOM     13  C   UNL     1       0.242   2.039  -7.465  0.00  0.00    +0.277 C 
ATOM     14  O   UNL     1      -0.082   0.655  -7.609  0.00  0.00    -0.495 OA
ENDBRANCH   7  14
ENDBRANCH   1  10
BRANCH   4  15
ATOM     15  C   UNL     1       1.659  -4.860  -2.346  0.00  0.00    +0.243 C 
ATOM     16  O   UNL     1       1.407  -3.711  -2.039  0.00  0.00    -0.273 OA
BRANCH  15  17
ATOM     17  C   UNL     1       1.411  -5.974  -1.362  0.00  0.00    +0.133 C 
BRANCH  17  18
ATOM     18  C   UNL     1       0.739  -5.419  -0.133  0.00  0.00    -0.035 A 
ATOM     19  C   UNL     1       1.502  -4.868   0.880  0.00  0.00    +0.008 A 
ATOM     20  C   UNL     1       0.890  -4.357   2.010  0.00  0.00    +0.049 A 
ATOM     21  C   UNL     1      -0.490  -4.396   2.129  0.00  0.00    +0.161 A 
ATOM     22  C   UNL     1      -1.257  -4.950   1.109  0.00  0.00    +0.162 A 
ATOM     23  C   UNL     1      -0.638  -5.456  -0.023  0.00  0.00    +0.053 A 
BRANCH  22  24
ATOM     24  O   UNL     1      -2.612  -4.991   1.220  0.00  0.00    -0.491 OA
ATOM     25  C   UNL     1      -3.335  -5.574   0.135  0.00  0.00    +0.277 C 
ENDBRANCH  22  24
BRANCH  21  26
ATOM     26  O   UNL     1      -1.093  -3.894   3.240  0.00  0.00    -0.491 OA
ATOM     27  C   UNL     1      -0.242  -3.341   4.246  0.00  0.00    +0.277 C 
ENDBRANCH  21  26
ENDBRANCH  17  18
ENDBRANCH  15  17
ENDBRANCH   4  15
BRANCH   3  28
ATOM     28  C   UNL     1       3.812  -3.409  -6.289  0.00  0.00    +0.120 C 
BRANCH  28  29
ATOM     29  C   UNL     1       4.214  -3.931  -7.670  0.00  0.00    +0.054 C 
BRANCH  29  30
ATOM     30  C   UNL     1       5.133  -2.938  -8.335  0.00  0.00    -0.040 C 
ATOM     31  C   UNL     1       6.484  -2.923  -8.288  0.00  0.00    -0.001 A 
ATOM     32  C   UNL     1       7.466  -3.792  -7.628  0.00  0.00    +0.010 A 
ATOM     33  C   UNL     1       8.783  -3.517  -7.766  0.00  0.00    +0.001 A 
ATOM     34  C   UNL     1       9.233  -2.425  -8.521  0.00  0.00    +0.002 A 
ATOM     35  C   UNL     1       8.392  -1.582  -9.156  0.00  0.00    +0.026 A 
ATOM     36  C   UNL     1       6.985  -1.777  -9.080  0.00  0.00    +0.043 A 
ATOM     37  N   UNL     1       5.982  -1.110  -9.596  0.00  0.00    -0.380 N 
ATOM     38  C   UNL     1       4.730  -1.761  -9.195  0.00  0.00    +0.144 C 
ATOM     39  H   UNL     1       6.055  -0.319 -10.154  0.00  0.00    +0.160 HD
ENDBRANCH  29  30
ENDBRANCH  28  29
ENDBRANCH   3  28
TORSDOF 10
