REMARK  Name = ZINC40740270
REMARK  14 active torsions:
REMARK  status: ('A' for Active; 'I' for Inactive)
REMARK    1  A    between atoms: C_1  and  C_2
REMARK    2  A    between atoms: C_2  and  O_3
REMARK    3  A    between atoms: O_3  and  C_4
REMARK    4  A    between atoms: C_6  and  C_20
REMARK    5  A    between atoms: C_9  and  O_10
REMARK    6  A    between atoms: O_10  and  C_11
REMARK    7  A    between atoms: C_11  and  C_12
REMARK    8  A    between atoms: C_17  and  C_18
REMARK    9  A    between atoms: C_20  and  N_21
REMARK   10  A    between atoms: N_21  and  C_22
REMARK   11  A    between atoms: C_22  and  C_24
REMARK   12  A    between atoms: C_22  and  C_25
REMARK   13  A    between atoms: C_25  and  C_26
REMARK   14  A    between atoms: C_26  and  C_27
REMARK                            x       y       z     vdW  Elec       q    Type
REMARK                         _______ _______ _______ _____ _____    ______ ____
ROOT
ATOM      1  C   UNL     1       0.777  -1.811  -1.336  0.00  0.00    +0.163 A 
ATOM      2  C   UNL     1       0.243  -2.669  -0.388  0.00  0.00    +0.051 A 
ATOM      3  C   UNL     1       0.352  -4.037  -0.554  0.00  0.00    -0.060 A 
ATOM      4  C   UNL     1       0.992  -4.553  -1.665  0.00  0.00    +0.021 A 
ATOM      5  C   UNL     1       1.527  -3.702  -2.616  0.00  0.00    +0.063 A 
ATOM      6  C   UNL     1       1.416  -2.329  -2.458  0.00  0.00    +0.176 A 
ATOM      7 BR   UNL     1       2.403  -4.412  -4.134  0.00  0.00    -0.046 Br
ENDROOT
BRANCH   1   8
ATOM      8  O   UNL     1       0.671  -0.465  -1.174  0.00  0.00    -0.489 OA
BRANCH   8  10
ATOM      9  C   UNL     1      -0.019   1.526   0.010  0.00  0.00    +0.048 C 
ATOM     10  C   UNL     1       0.002  -0.004   0.002  0.00  0.00    +0.226 C 
ENDBRANCH   8  10
ENDBRANCH   1   8
BRANCH   6  11
ATOM     11  O   UNL     1       1.936  -1.491  -3.394  0.00  0.00    -0.483 OA
BRANCH  11  12
ATOM     12  C   UNL     1       3.293  -1.080  -3.215  0.00  0.00    +0.265 C 
BRANCH  12  13
ATOM     13  C   UNL     1       3.692  -0.161  -4.341  0.00  0.00    -0.007 A 
ATOM     14  C   UNL     1       2.780   0.157  -5.330  0.00  0.00    +0.007 A 
ATOM     15  C   UNL     1       3.146   1.000  -6.362  0.00  0.00    +0.000 A 
ATOM     16  C   UNL     1       4.425   1.525  -6.406  0.00  0.00    +0.000 A 
ATOM     17  C   UNL     1       5.336   1.207  -5.417  0.00  0.00    +0.004 A 
ATOM     18  C   UNL     1       4.968   0.368  -4.381  0.00  0.00    -0.044 A 
ATOM     19  C   UNL     1       5.961   0.025  -3.300  0.00  0.00    +0.044 C 
ENDBRANCH  12  13
ENDBRANCH  11  12
ENDBRANCH   6  11
BRANCH   3  20
ATOM     20  C   UNL     1      -0.228  -4.968   0.479  0.00  0.00    -0.046 C 
BRANCH  20  21
ATOM     21  N   UNL     1      -1.619  -5.283   0.128  0.00  0.00    +0.383 N 
ATOM     22  H   UNL     1      -2.160  -4.432   0.101  0.00  0.00    -0.085 HD
ATOM     23  H   UNL     1      -1.646  -5.727  -0.777  0.00  0.00    -0.085 HD
BRANCH  21  24
ATOM     24  C   UNL     1      -2.185  -6.191   1.135  0.00  0.00    -0.074 C 
ATOM     25  C   UNL     1      -1.444  -7.528   1.090  0.00  0.00    -0.014 C 
BRANCH  24  26
ATOM     26  C   UNL     1      -3.669  -6.420   0.840  0.00  0.00    -0.011 C 
BRANCH  26  27
ATOM     27  C   UNL     1      -4.431  -5.104   1.007  0.00  0.00    +0.033 C 
BRANCH  27  28
ATOM     28  C   UNL     1      -5.892  -5.329   0.716  0.00  0.00    -0.047 A 
ATOM     29  C   UNL     1      -6.371  -5.181  -0.573  0.00  0.00    +0.003 A 
ATOM     30  C   UNL     1      -7.712  -5.388  -0.840  0.00  0.00    +0.000 A 
ATOM     31  C   UNL     1      -8.573  -5.743   0.181  0.00  0.00    +0.000 A 
ATOM     32  C   UNL     1      -8.094  -5.892   1.469  0.00  0.00    +0.000 A 
ATOM     33  C   UNL     1      -6.753  -5.690   1.736  0.00  0.00    +0.003 A 
ENDBRANCH  27  28
ENDBRANCH  26  27
ENDBRANCH  24  26
ENDBRANCH  21  24
ENDBRANCH  20  21
ENDBRANCH   3  20
TORSDOF 11
