REMARK  Name = ZINC29037878
REMARK  6 active torsions:
REMARK  status: ('A' for Active; 'I' for Inactive)
REMARK    1  A    between atoms: C_1  and  O_2
REMARK    2  A    between atoms: O_2  and  C_3
REMARK    3  A    between atoms: C_7  and  C_9
REMARK    4  A    between atoms: C_15  and  C_17
REMARK    5  A    between atoms: C_19  and  C_27
REMARK    6  A    between atoms: N_29  and  O_30
REMARK                            x       y       z     vdW  Elec       q    Type
REMARK                         _______ _______ _______ _____ _____    ______ ____
ROOT
ATOM      1  C   UNL     1      -0.652   3.637   6.588  0.00  0.00    -0.041 C 
ATOM      2  C   UNL     1      -0.942   3.911   7.837  0.00  0.00    -0.004 C 
ATOM      3  C   UNL     1      -1.892   5.003   8.246  0.00  0.00    +0.135 C 
ATOM      4  N   UNL     1      -2.211   5.830   7.074  0.00  0.00    -0.299 N 
ATOM      5  C   UNL     1      -2.482   5.131   5.807  0.00  0.00    +0.112 C 
ATOM      6  C   UNL     1      -1.216   4.369   5.407  0.00  0.00    +0.054 C 
ATOM      7  C   UNL     1      -2.253   7.175   7.156  0.00  0.00    +0.203 C 
ATOM      8  O   UNL     1      -2.441   7.838   6.158  0.00  0.00    -0.277 OA
ENDROOT
BRANCH   7   9
ATOM      9  C   UNL     1      -2.065   7.855   8.488  0.00  0.00    +0.028 C 
ATOM     10  C   UNL     1      -3.429   8.061   9.150  0.00  0.00    +0.072 C 
ATOM     11  C   UNL     1      -3.229   8.698  10.530  0.00  0.00    +0.016 C 
ATOM     12  C   UNL     1      -2.399   9.975  10.360  0.00  0.00    -0.044 C 
ATOM     13  C   UNL     1      -3.150  11.297  10.209  0.00  0.00    +0.005 C 
ATOM     14  C   UNL     1      -2.403  10.984  11.507  0.00  0.00    +0.005 C 
ATOM     15  C   UNL     1      -1.099   9.798   9.569  0.00  0.00    -0.075 C 
ATOM     16  N   UNL     1      -1.408   9.151   8.285  0.00  0.00    +0.387 N 
ATOM     17  H   UNL     1      -0.468   9.004   7.732  0.00  0.00    -0.085 HD
ATOM     18  H   UNL     1      -2.072   9.813   7.710  0.00  0.00    -0.085 HD
BRANCH  10  19
ATOM     19  C   UNL     1      -4.120   6.731   9.305  0.00  0.00    +0.237 C 
ATOM     20  O   UNL     1      -3.960   6.079  10.314  0.00  0.00    -0.273 OA
ATOM     21  N   UNL     1      -4.917   6.267   8.321  0.00  0.00    -0.197 N 
ATOM     22  H   UNL     1      -5.103   6.881   7.428  0.00  0.00    +0.182 HD
BRANCH  21  23
ATOM     23  O   UNL     1      -5.513   4.987   8.438  0.00  0.00    -0.295 OA
ATOM     24  H   UNL     1      -6.162   4.609   7.635  0.00  0.00    +0.241 HD
ENDBRANCH  21  23
ENDBRANCH  10  19
ENDBRANCH   7   9
BRANCH   1  29
ATOM     25  C   UNL     1       0.831   0.187   6.422  0.00  0.00    +0.121 A 
ATOM     26  C   UNL     1       2.063   0.453   5.840  0.00  0.00    +0.045 A 
ATOM     27  C   UNL     1       2.405   1.748   5.495  0.00  0.00    +0.004 A 
ATOM     28  C   UNL     1       1.528   2.785   5.737  0.00  0.00    +0.008 A 
ATOM     29  C   UNL     1       0.290   2.528   6.327  0.00  0.00    -0.019 A 
ATOM     30  C   UNL     1      -0.056   1.221   6.669  0.00  0.00    +0.053 A 
BRANCH  25  32
ATOM     31  C   UNL     1       1.462  -2.105   6.471  0.00  0.00    +0.277 C 
ATOM     32  O   UNL     1       0.498  -1.088   6.754  0.00  0.00    -0.495 OA
ENDBRANCH  25  32
ENDBRANCH   1  29
TORSDOF 5
