REMARK  Name = ZINC22414129
REMARK  7 active torsions:
REMARK  status: ('A' for Active; 'I' for Inactive)
REMARK    1  A    between atoms: C_6  and  C_7
REMARK    2  A    between atoms: C_7  and  C_9
REMARK    3  A    between atoms: C_7  and  N_26
REMARK    4  A    between atoms: C_9  and  C_10
REMARK    5  A    between atoms: N_12  and  C_13
REMARK    6  A    between atoms: C_13  and  C_14
REMARK    7  A    between atoms: C_14  and  N_20
REMARK                            x       y       z     vdW  Elec       q    Type
REMARK                         _______ _______ _______ _____ _____    ______ ____
ROOT
ATOM      1  C   UNL     1       1.558  -4.158  -1.464  0.00  0.00    +0.215 C 
ATOM      2  O   UNL     1       0.948  -3.590  -0.584  0.00  0.00    -0.276 OA
ATOM      3  N   UNL     1       0.955  -4.423  -2.640  0.00  0.00    -0.317 N 
ATOM      4  H   UNL     1       1.508  -4.938  -3.439  0.00  0.00    +0.149 HD
ENDROOT
BRANCH   1   5
ATOM      5  C   UNL     1       2.992  -4.567  -1.244  0.00  0.00    +0.122 C 
BRANCH   5   6
ATOM      6  C   UNL     1       3.431  -4.152   0.161  0.00  0.00    +0.113 C 
BRANCH   6  12
ATOM      7  C   UNL     1       5.909  -4.065  -0.177  0.00  0.00    +0.007 A 
ATOM      8  C   UNL     1       7.185  -4.535   0.069  0.00  0.00    +0.020 A 
ATOM      9  C   UNL     1       7.373  -5.617   0.911  0.00  0.00    +0.041 A 
ATOM     10  C   UNL     1       6.284  -6.223   1.511  0.00  0.00    +0.020 A 
ATOM     11  C   UNL     1       5.009  -5.748   1.268  0.00  0.00    +0.007 A 
ATOM     12  C   UNL     1       4.822  -4.668   0.426  0.00  0.00    -0.027 A 
ATOM     13 CL   UNL     1       8.975  -6.213   1.215  0.00  0.00    -0.084 Cl
ENDBRANCH   6  12
BRANCH   6  14
ATOM     14  N   UNL     1       3.425  -2.691   0.263  0.00  0.00    -0.292 N 
ATOM     15  C   UNL     1       3.296  -2.099   1.467  0.00  0.00    +0.298 C 
ATOM     16  O   UNL     1       3.273  -2.776   2.477  0.00  0.00    -0.253 OA
ATOM     17  N   UNL     1       3.193  -0.758   1.552  0.00  0.00    -0.313 N 
ATOM     18  H   UNL     1       3.526  -2.076  -0.644  0.00  0.00    +0.151 HD
ATOM     19  H   UNL     1       3.088  -0.276   2.534  0.00  0.00    +0.146 HD
ATOM     20  H   UNL     1       3.213  -0.146   0.638  0.00  0.00    +0.146 HD
ENDBRANCH   6  14
ENDBRANCH   5   6
ENDBRANCH   1   5
BRANCH   3  21
ATOM     21  C   UNL     1      -0.439  -4.025  -2.854  0.00  0.00    +0.092 C 
BRANCH  21  22
ATOM     22  C   UNL     1      -0.917  -4.551  -4.209  0.00  0.00    -0.050 C 
ATOM     23  C   UNL     1      -2.333  -4.039  -4.484  0.00  0.00    -0.010 C 
ATOM     24  C   UNL     1      -3.276  -4.532  -3.384  0.00  0.00    -0.001 C 
ATOM     25  C   UNL     1      -3.281  -6.062  -3.364  0.00  0.00    -0.000 C 
ATOM     26  C   UNL     1      -1.866  -6.573  -3.089  0.00  0.00    -0.001 C 
ATOM     27  C   UNL     1      -0.923  -6.081  -4.189  0.00  0.00    -0.010 C 
BRANCH  22  28
ATOM     28  N   UNL     1      -0.012  -4.078  -5.265  0.00  0.00    +0.384 N 
ATOM     29  C   UNL     1       0.085  -2.613  -5.258  0.00  0.00    -0.078 C 
ATOM     30  C   UNL     1       1.142  -2.165  -6.269  0.00  0.00    -0.019 C 
ATOM     31  C   UNL     1       0.751  -2.663  -7.663  0.00  0.00    -0.004 C 
ATOM     32  C   UNL     1       0.609  -4.187  -7.632  0.00  0.00    -0.019 C 
ATOM     33  C   UNL     1      -0.433  -4.576  -6.580  0.00  0.00    -0.078 C 
ATOM     34  H   UNL     1       0.990  -4.481  -5.058  0.00  0.00    -0.081 HD
ENDBRANCH  22  28
ENDBRANCH  21  22
ENDBRANCH   3  21
TORSDOF 7
