REMARK  Name = ZINC55119334
REMARK  11 active torsions:
REMARK  status: ('A' for Active; 'I' for Inactive)
REMARK    1  A    between atoms: C_1  and  C_2
REMARK    2  A    between atoms: C_5  and  C_7
REMARK    3  A    between atoms: C_11  and  O_13
REMARK    4  A    between atoms: O_13  and  C_14
REMARK    5  A    between atoms: C_14  and  C_15
REMARK    6  A    between atoms: N_20  and  C_22
REMARK    7  A    between atoms: N_26  and  C_28
REMARK    8  A    between atoms: C_28  and  C_29
REMARK    9  A    between atoms: C_32  and  O_36
REMARK   10  A    between atoms: C_34  and  O_35
REMARK   11  A    between atoms: O_36  and  C_37
REMARK                            x       y       z     vdW  Elec       q    Type
REMARK                         _______ _______ _______ _____ _____    ______ ____
ROOT
ATOM      1  C   UNL     1       1.039  -4.034  -0.025  0.00  0.00    -0.007 A 
ATOM      2  C   UNL     1       2.418  -4.257  -0.027  0.00  0.00    +0.017 A 
ATOM      3  C   UNL     1       2.901  -5.548  -0.042  0.00  0.00    +0.012 A 
ATOM      4  C   UNL     1       2.033  -6.622  -0.066  0.00  0.00    +0.166 A 
ATOM      5  C   UNL     1       0.656  -6.410  -0.052  0.00  0.00    +0.163 A 
ATOM      6  C   UNL     1       0.161  -5.118  -0.027  0.00  0.00    +0.058 A 
ATOM      7  O   UNL     1       2.527  -7.891  -0.135  0.00  0.00    -0.487 OA
ATOM      8  C   UNL     1       3.162  -8.236  -1.371  0.00  0.00    +0.244 C 
ATOM      9  C   UNL     1       4.615  -7.814  -1.366  0.00  0.00    +0.126 C 
ATOM     10  N   UNL     1       4.803  -6.367  -1.306  0.00  0.00    -0.291 NA
ATOM     11  C   UNL     1       4.396  -5.799  -0.016  0.00  0.00    +0.123 C 
ENDROOT
BRANCH   1  16
ATOM     12  C   UNL     1      -0.018   1.503   0.010  0.00  0.00    +0.051 C 
ATOM     13  C   UNL     1       0.002  -0.004   0.002  0.00  0.00    -0.013 A 
ATOM     14  C   UNL     1      -1.042  -0.872   0.002  0.00  0.00    +0.011 A 
ATOM     15  C   UNL     1      -0.789  -2.226  -0.007  0.00  0.00    +0.016 A 
ATOM     16  C   UNL     1       0.512  -2.653  -0.015  0.00  0.00    +0.020 A 
ATOM     17  S   UNL     1       1.405  -1.107  -0.018  0.00  0.00    -0.093 S 
ENDBRANCH   1  16
BRANCH   5  18
ATOM     18  O   UNL     1      -0.198  -7.468  -0.057  0.00  0.00    -0.488 OA
BRANCH  18  19
ATOM     19  C   UNL     1      -1.596  -7.174  -0.041  0.00  0.00    +0.231 C 
BRANCH  19  20
ATOM     20  C   UNL     1      -2.392  -8.480  -0.049  0.00  0.00    +0.010 C 
ATOM     21  C   UNL     1      -2.128  -9.248   1.250  0.00  0.00    +0.003 C 
ATOM     22  C   UNL     1      -2.989 -10.515   1.266  0.00  0.00    -0.018 C 
ATOM     23  C   UNL     1      -4.461 -10.127   1.112  0.00  0.00    -0.079 C 
ATOM     24  N   UNL     1      -4.653  -9.419  -0.160  0.00  0.00    +0.378 N 
ATOM     25  C   UNL     1      -3.886  -8.168  -0.156  0.00  0.00    -0.072 C 
ATOM     26  C   UNL     1      -6.079  -9.117  -0.340  0.00  0.00    -0.096 C 
ATOM     27  H   UNL     1      -4.336 -10.003  -0.919  0.00  0.00    -0.082 HD
ENDBRANCH  19  20
ENDBRANCH  18  19
ENDBRANCH   5  18
BRANCH  10  28
ATOM     28  C   UNL     1       6.189  -6.002  -1.629  0.00  0.00    +0.123 C 
BRANCH  28  29
ATOM     29  C   UNL     1       6.476  -6.342  -3.068  0.00  0.00    +0.008 A 
ATOM     30  C   UNL     1       7.155  -7.505  -3.381  0.00  0.00    +0.012 A 
ATOM     31  C   UNL     1       7.420  -7.819  -4.700  0.00  0.00    +0.046 A 
ATOM     32  C   UNL     1       7.004  -6.968  -5.715  0.00  0.00    +0.124 A 
ATOM     33  C   UNL     1       6.323  -5.802  -5.404  0.00  0.00    +0.091 A 
ATOM     34  C   UNL     1       6.053  -5.491  -4.080  0.00  0.00    +0.125 A 
BRANCH  34  35
ATOM     35  O   UNL     1       5.380  -4.351  -3.772  0.00  0.00    -0.506 OA
ATOM     36  H   UNL     1       5.951  -3.583  -3.633  0.00  0.00    +0.292 HD
ENDBRANCH  34  35
BRANCH  32  37
ATOM     37  O   UNL     1       7.265  -7.278  -7.012  0.00  0.00    -0.495 OA
ATOM     38  C   UNL     1       7.971  -8.495  -7.259  0.00  0.00    +0.277 C 
ENDBRANCH  32  37
ENDBRANCH  28  29
ENDBRANCH  10  28
TORSDOF 8
