REMARK  Name = ZINC39534454
REMARK  14 active torsions:
REMARK  status: ('A' for Active; 'I' for Inactive)
REMARK    1  A    between atoms: C_1  and  C_2
REMARK    2  A    between atoms: C_2  and  C_3
REMARK    3  A    between atoms: C_2  and  S_4
REMARK    4  A    between atoms: S_4  and  C_7
REMARK    5  A    between atoms: C_10  and  C_13
REMARK    6  A    between atoms: C_13  and  C_15
REMARK    7  A    between atoms: C_13  and  N_23
REMARK    8  A    between atoms: C_15  and  N_16
REMARK    9  A    between atoms: N_16  and  S_17
REMARK   10  A    between atoms: S_17  and  C_20
REMARK   11  A    between atoms: C_20  and  C_21
REMARK   12  A    between atoms: C_20  and  C_22
REMARK   13  A    between atoms: C_27  and  C_30
REMARK   14  A    between atoms: C_35  and  O_36
REMARK                            x       y       z     vdW  Elec       q    Type
REMARK                         _______ _______ _______ _____ _____    ______ ____
ROOT
ATOM      1  C   UNL     1       6.467   1.283  -1.931  0.00  0.00    +0.102 C 
ENDROOT
BRANCH   1   2
ATOM      2  N   UNL     1       6.391   0.925  -0.508  0.00  0.00    -0.297 NA
ATOM      3  C   UNL     1       6.352  -0.534  -0.334  0.00  0.00    +0.066 C 
ATOM      4  C   UNL     1       6.333  -0.866   1.160  0.00  0.00    -0.066 C 
ATOM      5  N   UNL     1       5.155  -0.250   1.784  0.00  0.00    +0.385 N 
ATOM      6  C   UNL     1       5.220   1.209   1.623  0.00  0.00    -0.023 C 
ATOM      7  C   UNL     1       5.229   1.558   0.133  0.00  0.00    +0.074 C 
ATOM      8  H   UNL     1       4.318  -0.600   1.341  0.00  0.00    -0.085 HD
ATOM      9  H   UNL     1       5.136  -0.479   2.766  0.00  0.00    -0.085 HD
BRANCH   6  10
ATOM     10  C   UNL     1       4.019   1.840   2.279  0.00  0.00    -0.019 A 
ATOM     11  C   UNL     1       2.893   1.082   2.537  0.00  0.00    +0.005 A 
ATOM     12  C   UNL     1       1.791   1.661   3.138  0.00  0.00    +0.000 A 
ATOM     13  C   UNL     1       1.813   3.000   3.483  0.00  0.00    +0.004 A 
ATOM     14  C   UNL     1       2.936   3.762   3.228  0.00  0.00    +0.045 A 
ATOM     15  C   UNL     1       4.045   3.182   2.629  0.00  0.00    +0.118 A 
BRANCH  15  16
ATOM     16  O   UNL     1       5.153   3.929   2.381  0.00  0.00    -0.507 OA
ATOM     17  H   UNL     1       5.152   4.359   1.515  0.00  0.00    +0.292 HD
ENDBRANCH  15  16
ENDBRANCH   6  10
ENDBRANCH   1   2
BRANCH   1  21
ATOM     18  C   UNL     1       3.303  -0.647  -4.055  0.00  0.00    +0.088 A 
ATOM     19  C   UNL     1       4.535  -1.262  -3.942  0.00  0.00    +0.027 A 
ATOM     20  C   UNL     1       5.559  -0.638  -3.254  0.00  0.00    +0.007 A 
ATOM     21  C   UNL     1       5.351   0.603  -2.681  0.00  0.00    -0.029 A 
ATOM     22  C   UNL     1       4.119   1.218  -2.795  0.00  0.00    +0.007 A 
ATOM     23  C   UNL     1       3.096   0.596  -3.486  0.00  0.00    +0.027 A 
BRANCH  18  24
ATOM     24  S   UNL     1       1.998  -1.443  -4.931  0.00  0.00    -0.001 S 
ATOM     25  O   UNL     1       0.806  -0.911  -4.368  0.00  0.00    -0.169 OA
ATOM     26  O   UNL     1       2.289  -2.830  -4.833  0.00  0.00    -0.169 OA
BRANCH  24  28
ATOM     27  C   UNL     1       3.554  -1.304  -7.176  0.00  0.00    +0.032 C 
ATOM     28  C   UNL     1       2.180  -0.886  -6.647  0.00  0.00    +0.130 C 
ATOM     29  C   UNL     1       1.088  -1.521  -7.509  0.00  0.00    +0.032 C 
ENDBRANCH  24  28
ENDBRANCH  18  24
ENDBRANCH   1  21
BRANCH   1  30
ATOM     30  C   UNL     1       7.813   0.831  -2.499  0.00  0.00    +0.129 C 
BRANCH  30  31
ATOM     31  N   UNL     1       8.899   1.449  -1.734  0.00  0.00    -0.192 NA
ATOM     32  H   UNL     1       8.710   2.186  -1.133  0.00  0.00    +0.148 HD
BRANCH  31  33
ATOM     33  S   UNL     1      10.449   0.890  -1.897  0.00  0.00    +0.032 S 
ATOM     34  O   UNL     1      10.700   0.916  -3.295  0.00  0.00    -0.158 OA
ATOM     35  O   UNL     1      11.218   1.690  -1.008  0.00  0.00    -0.158 OA
BRANCH  33  36
ATOM     36  C   UNL     1      10.391  -0.823  -1.304  0.00  0.00    +0.142 C 
ATOM     37  C   UNL     1      11.781  -1.451  -1.422  0.00  0.00    +0.033 C 
ATOM     38  C   UNL     1       9.946  -0.842   0.160  0.00  0.00    +0.033 C 
ENDBRANCH  33  36
ENDBRANCH  31  33
ENDBRANCH  30  31
ENDBRANCH   1  30
TORSDOF 10
