REMARK  Name = ZINC33369272
REMARK  9 active torsions:
REMARK  status: ('A' for Active; 'I' for Inactive)
REMARK    1  A    between atoms: C_1  and  C_2
REMARK    2  A    between atoms: C_4  and  O_5
REMARK    3  A    between atoms: C_14  and  C_16
REMARK    4  A    between atoms: C_16  and  C_18
REMARK    5  A    between atoms: C_16  and  N_22
REMARK    6  A    between atoms: C_18  and  C_19
REMARK    7  A    between atoms: C_23  and  O_25
REMARK    8  A    between atoms: O_25  and  C_26
REMARK    9  A    between atoms: C_26  and  C_27
REMARK                            x       y       z     vdW  Elec       q    Type
REMARK                         _______ _______ _______ _____ _____    ______ ____
ROOT
ATOM      1  C   UNL     1      -4.616   7.079  -3.171  0.00  0.00    +0.173 C 
ENDROOT
BRANCH   1  14
ATOM      2  C   UNL     1     -12.557  10.951  -1.977  0.00  0.00    +0.045 C 
ATOM      3  C   UNL     1     -11.248  10.891  -1.232  0.00  0.00    -0.033 A 
ATOM      4  C   UNL     1     -11.117  11.459  -0.005  0.00  0.00    +0.091 A 
ATOM      5  C   UNL     1      -9.883  11.389   0.672  0.00  0.00    +0.285 A 
ATOM      6  O   UNL     1      -8.819  10.770   0.136  0.00  0.00    -0.425 OA
ATOM      7  C   UNL     1      -8.882  10.185  -1.079  0.00  0.00    +0.141 A 
ATOM      8  C   UNL     1     -10.084  10.217  -1.811  0.00  0.00    +0.021 A 
ATOM      9  C   UNL     1     -10.155   9.612  -3.071  0.00  0.00    +0.013 A 
ATOM     10  C   UNL     1      -9.053   8.995  -3.589  0.00  0.00    +0.024 A 
ATOM     11  C   UNL     1      -7.861   8.954  -2.867  0.00  0.00    +0.037 A 
ATOM     12  C   UNL     1      -7.774   9.549  -1.617  0.00  0.00    +0.070 A 
ATOM     13  N   UNL     1      -6.745   8.315  -3.409  0.00  0.00    -0.284 N 
ATOM     14  C   UNL     1      -5.877   7.675  -2.600  0.00  0.00    +0.238 C 
ATOM     15  O   UNL     1      -6.111   7.578  -1.414  0.00  0.00    -0.273 OA
ATOM     16  H   UNL     1      -6.574   8.333  -4.495  0.00  0.00    +0.155 HD
BRANCH   5  17
ATOM     17  O   UNL     1      -9.779  11.903   1.771  0.00  0.00    -0.480 OA
ATOM     18  H   UNL     1      -8.822  11.857   2.312  0.00  0.00    +0.295 HD
ENDBRANCH   5  17
ENDBRANCH   1  14
BRANCH   1  19
ATOM     19  N   UNL     1      -3.847   6.444  -2.097  0.00  0.00    -0.269 N 
ATOM     20  C   UNL     1      -3.049   7.189  -1.308  0.00  0.00    +0.401 C 
ATOM     21  O   UNL     1      -2.900   8.373  -1.540  0.00  0.00    -0.226 OA
ATOM     22  H   UNL     1      -3.922   5.358  -1.935  0.00  0.00    +0.153 HD
BRANCH  20  23
ATOM     23  O   UNL     1      -2.416   6.623  -0.263  0.00  0.00    -0.449 OA
BRANCH  23  24
ATOM     24  C   UNL     1      -1.572   7.486   0.543  0.00  0.00    +0.246 C 
BRANCH  24  25
ATOM     25  C   UNL     1      -0.942   6.671   1.675  0.00  0.00    +0.088 C 
ATOM     26  C   UNL     1       0.054   5.686   1.113  0.00  0.00    -0.029 A 
ATOM     27  C   UNL     1      -0.080   4.636   0.230  0.00  0.00    +0.005 A 
ATOM     28  C   UNL     1       1.025   3.883  -0.124  0.00  0.00    +0.000 A 
ATOM     29  C   UNL     1       2.265   4.176   0.415  0.00  0.00    +0.001 A 
ATOM     30  C   UNL     1       2.409   5.225   1.299  0.00  0.00    +0.009 A 
ATOM     31  C   UNL     1       1.298   5.992   1.657  0.00  0.00    -0.014 A 
ATOM     32  C   UNL     1       1.167   7.155   2.568  0.00  0.00    -0.014 A 
ATOM     33  C   UNL     1      -0.160   7.577   2.594  0.00  0.00    -0.029 A 
ATOM     34  C   UNL     1      -0.534   8.650   3.374  0.00  0.00    +0.005 A 
ATOM     35  C   UNL     1       0.411   9.315   4.136  0.00  0.00    +0.000 A 
ATOM     36  C   UNL     1       1.731   8.904   4.117  0.00  0.00    +0.001 A 
ATOM     37  C   UNL     1       2.114   7.830   3.340  0.00  0.00    +0.009 A 
ENDBRANCH  24  25
ENDBRANCH  23  24
ENDBRANCH  20  23
ENDBRANCH   1  19
BRANCH   1  38
ATOM     38  C   UNL     1      -4.978   6.032  -4.226  0.00  0.00    +0.157 C 
BRANCH  38  39
ATOM     39  C   UNL     1      -3.720   5.519  -4.878  0.00  0.00    +0.358 C 
ATOM     40  O   UNL     1      -2.653   6.017  -4.606  0.00  0.00    -0.246 OA
ATOM     41  O   UNL     1      -3.784   4.510  -5.760  0.00  0.00    -0.246 OA
ENDBRANCH  38  39
ENDBRANCH   1  38
TORSDOF 8
