REMARK  Name = ZINC01372584
REMARK  12 active torsions:
REMARK  status: ('A' for Active; 'I' for Inactive)
REMARK    1  A    between atoms: C_1  and  C_2
REMARK    2  A    between atoms: C_2  and  O_3
REMARK    3  A    between atoms: O_3  and  C_4
REMARK    4  A    between atoms: C_7  and  C_10
REMARK    5  A    between atoms: C_10  and  C_12
REMARK    6  A    between atoms: C_10  and  N_22
REMARK    7  A    between atoms: N_14  and  C_15
REMARK    8  A    between atoms: C_15  and  C_16
REMARK    9  A    between atoms: N_22  and  C_23
REMARK   10  A    between atoms: C_28  and  C_29
REMARK   11  A    between atoms: C_30  and  C_32
REMARK   12  A    between atoms: C_32  and  N_33
REMARK                            x       y       z     vdW  Elec       q    Type
REMARK                         _______ _______ _______ _____ _____    ______ ____
ROOT
ATOM      1  C   UNL     1       0.865  -6.107  -1.742  0.00  0.00    +0.197 C 
ENDROOT
BRANCH   1   5
ATOM      2  C   UNL     1       2.284  -2.346  -3.192  0.00  0.00    +0.121 A 
ATOM      3  C   UNL     1       1.700  -2.431  -1.937  0.00  0.00    +0.046 A 
ATOM      4  C   UNL     1       1.241  -3.648  -1.471  0.00  0.00    +0.009 A 
ATOM      5  C   UNL     1       1.365  -4.781  -2.254  0.00  0.00    -0.018 A 
ATOM      6  C   UNL     1       1.947  -4.699  -3.505  0.00  0.00    +0.009 A 
ATOM      7  C   UNL     1       2.401  -3.483  -3.978  0.00  0.00    +0.046 A 
BRANCH   2   8
ATOM      8  O   UNL     1       2.735  -1.150  -3.653  0.00  0.00    -0.492 OA
BRANCH   8  10
ATOM      9  C   UNL     1       3.143   1.225  -3.475  0.00  0.00    +0.048 C 
ATOM     10  C   UNL     1       2.581  -0.022  -2.790  0.00  0.00    +0.225 C 
ENDBRANCH   8  10
ENDBRANCH   2   8
ENDBRANCH   1   5
BRANCH   1  11
ATOM     11  C   UNL     1      -0.322  -6.546  -2.561  0.00  0.00    +0.239 C 
ATOM     12  O   UNL     1      -0.155  -7.032  -3.660  0.00  0.00    -0.273 OA
ATOM     13  N   UNL     1      -1.569  -6.399  -2.072  0.00  0.00    -0.309 N 
ATOM     14  H   UNL     1      -1.703  -6.010  -1.194  0.00  0.00    +0.149 HD
BRANCH  13  15
ATOM     15  C   UNL     1      -2.723  -6.825  -2.868  0.00  0.00    +0.139 C 
BRANCH  15  16
ATOM     16  C   UNL     1      -3.991  -6.553  -2.101  0.00  0.00    -0.030 A 
ATOM     17  C   UNL     1      -4.506  -7.516  -1.253  0.00  0.00    +0.005 A 
ATOM     18  C   UNL     1      -5.669  -7.266  -0.549  0.00  0.00    +0.000 A 
ATOM     19  C   UNL     1      -6.317  -6.053  -0.692  0.00  0.00    +0.000 A 
ATOM     20  C   UNL     1      -5.802  -5.090  -1.539  0.00  0.00    +0.000 A 
ATOM     21  C   UNL     1      -4.636  -5.338  -2.240  0.00  0.00    +0.005 A 
ENDBRANCH  15  16
ENDBRANCH  13  15
ENDBRANCH   1  11
BRANCH   1  22
ATOM     22  N   UNL     1       1.930  -7.106  -1.853  0.00  0.00    -0.254 N 
ATOM     23  C   UNL     1       3.082  -6.942  -1.172  0.00  0.00    +0.242 C 
ATOM     24  O   UNL     1       3.236  -5.966  -0.468  0.00  0.00    -0.273 OA
BRANCH  22  25
ATOM     25  C   UNL     1       1.753  -8.232  -2.665  0.00  0.00    +0.040 A 
ATOM     26  C   UNL     1       2.211  -8.224  -3.976  0.00  0.00    +0.024 A 
ATOM     27  C   UNL     1       2.034  -9.336  -4.775  0.00  0.00    +0.002 A 
ATOM     28  C   UNL     1       1.401 -10.458  -4.271  0.00  0.00    +0.000 A 
ATOM     29  C   UNL     1       0.943 -10.469  -2.966  0.00  0.00    +0.005 A 
ATOM     30  C   UNL     1       1.123  -9.362  -2.160  0.00  0.00    -0.029 A 
ATOM     31  C   UNL     1       0.629  -9.377  -0.736  0.00  0.00    +0.045 C 
ENDBRANCH  22  25
BRANCH  23  32
ATOM     32  C   UNL     1       4.178  -7.970  -1.286  0.00  0.00    +0.242 C 
BRANCH  32  33
ATOM     33  N   UNL     1       5.316  -7.564  -0.457  0.00  0.00    -0.235 N 
ATOM     34  C   UNL     1       6.378  -6.782  -0.844  0.00  0.00    +0.090 A 
ATOM     35  C   UNL     1       6.733  -6.154  -2.033  0.00  0.00    +0.029 A 
ATOM     36  C   UNL     1       7.889  -5.428  -2.099  0.00  0.00    +0.002 A 
ATOM     37  C   UNL     1       8.714  -5.311  -0.988  0.00  0.00    +0.002 A 
ATOM     38  C   UNL     1       8.389  -5.917   0.190  0.00  0.00    +0.032 A 
ATOM     39  C   UNL     1       7.209  -6.667   0.284  0.00  0.00    +0.113 A 
ATOM     40  N   UNL     1       6.636  -7.363   1.286  0.00  0.00    -0.129 NA
ATOM     41  N   UNL     1       5.532  -7.891   0.890  0.00  0.00    -0.064 NA
ENDBRANCH  32  33
ENDBRANCH  23  32
ENDBRANCH   1  22
TORSDOF 10
