REMARK  Name = ZINC39624097
REMARK  9 active torsions:
REMARK  status: ('A' for Active; 'I' for Inactive)
REMARK    1  A    between atoms: C_1  and  C_2
REMARK    2  A    between atoms: C_2  and  C_3
REMARK    3  A    between atoms: C_3  and  C_4
REMARK    4  A    between atoms: C_4  and  N_5
REMARK    5  A    between atoms: C_6  and  C_8
REMARK    6  A    between atoms: C_19  and  C_21
REMARK    7  A    between atoms: C_21  and  O_22
REMARK    8  A    between atoms: O_22  and  C_23
REMARK    9  A    between atoms: C_33  and  C_34
REMARK                            x       y       z     vdW  Elec       q    Type
REMARK                         _______ _______ _______ _____ _____    ______ ____
ROOT
ATOM      1  C   UNL     1      -4.429  -4.420   0.021  0.00  0.00    +0.100 C 
ATOM      2  C   UNL     1      -5.211  -3.879  -1.197  0.00  0.00    +0.121 C 
ATOM      3  N   UNL     1      -5.091  -4.943  -2.222  0.00  0.00    -0.297 N 
ATOM      4  C   UNL     1      -5.216  -6.207  -1.458  0.00  0.00    +0.115 C 
ATOM      5  C   UNL     1      -4.437  -5.949  -0.152  0.00  0.00    -0.004 C 
ATOM      6  C   UNL     1      -5.147  -6.610   1.026  0.00  0.00    -0.010 C 
ATOM      7  C   UNL     1      -5.091  -8.131   0.861  0.00  0.00    -0.082 C 
ATOM      8  N   UNL     1      -3.691  -8.568   0.799  0.00  0.00    +0.379 N 
ATOM      9  C   UNL     1      -3.041  -8.001  -0.389  0.00  0.00    -0.082 C 
ATOM     10  C   UNL     1      -3.010  -6.474  -0.277  0.00  0.00    -0.010 C 
ATOM     11  C   UNL     1      -4.911  -4.794  -3.549  0.00  0.00    +0.253 C 
ATOM     12  O   UNL     1      -4.832  -5.771  -4.263  0.00  0.00    -0.272 OA
ATOM     13  H   UNL     1      -3.206  -8.255   1.627  0.00  0.00    -0.086 HD
ATOM     14  H   UNL     1      -3.655  -9.575   0.752  0.00  0.00    -0.086 HD
ENDROOT
BRANCH   1  16
ATOM     15  N   UNL     1      -2.345  -3.745   1.169  0.00  0.00    -0.315 N 
ATOM     16  C   UNL     1      -3.015  -3.899   0.010  0.00  0.00    +0.218 C 
ATOM     17  O   UNL     1      -2.481  -3.618  -1.042  0.00  0.00    -0.275 OA
ATOM     18  H   UNL     1      -2.772  -3.970   2.010  0.00  0.00    +0.149 HD
BRANCH  15  19
ATOM     19  C   UNL     1      -0.971  -3.238   1.159  0.00  0.00    +0.104 C 
BRANCH  19  20
ATOM     20  C   UNL     1      -0.445  -3.159   2.593  0.00  0.00    +0.018 C 
BRANCH  20  22
ATOM     21  C   UNL     1       1.516  -2.551   4.017  0.00  0.00    +0.004 C 
ATOM     22  C   UNL     1       0.990  -2.630   2.583  0.00  0.00    -0.002 C 
ENDBRANCH  20  22
ENDBRANCH  19  20
ENDBRANCH  15  19
ENDBRANCH   1  16
BRANCH  11  23
ATOM     23  C   UNL     1      -4.807  -3.414  -4.146  0.00  0.00    +0.324 C 
BRANCH  23  24
ATOM     24  O   UNL     1      -4.619  -3.519  -5.559  0.00  0.00    -0.479 OA
BRANCH  24  25
ATOM     25  C   UNL     1      -4.506  -2.356  -6.254  0.00  0.00    +0.164 A 
ATOM     26  C   UNL     1      -4.569  -1.143  -5.591  0.00  0.00    +0.049 A 
ATOM     27  C   UNL     1      -4.454   0.050  -6.290  0.00  0.00    +0.004 A 
ATOM     28  C   UNL     1      -4.277   0.044  -7.655  0.00  0.00    +0.012 A 
ATOM     29  C   UNL     1      -4.211  -1.174  -8.340  0.00  0.00    +0.024 A 
ATOM     30  C   UNL     1      -4.321  -2.383  -7.635  0.00  0.00    +0.181 A 
ATOM     31  O   UNL     1      -4.253  -3.558  -8.299  0.00  0.00    -0.418 OA
ATOM     32  C   UNL     1      -4.075  -3.602  -9.628  0.00  0.00    +0.338 A 
ATOM     33  O   UNL     1      -4.020  -4.684 -10.183  0.00  0.00    -0.245 OA
ATOM     34  C   UNL     1      -3.951  -2.426 -10.399  0.00  0.00    +0.096 A 
ATOM     35  C   UNL     1      -4.023  -1.213  -9.794  0.00  0.00    -0.033 A 
ATOM     36  C   UNL     1      -3.895   0.059 -10.592  0.00  0.00    +0.045 C 
ENDBRANCH  24  25
ENDBRANCH  23  24
ENDBRANCH  11  23
TORSDOF 7
