REMARK  Name = ZINC02637181
REMARK  11 active torsions:
REMARK  status: ('A' for Active; 'I' for Inactive)
REMARK    1  A    between atoms: C_1  and  C_2
REMARK    2  A    between atoms: C_2  and  O_3
REMARK    3  A    between atoms: O_3  and  C_4
REMARK    4  A    between atoms: C_4  and  C_6
REMARK    5  A    between atoms: C_7  and  C_28
REMARK    6  A    between atoms: C_8  and  C_27
REMARK    7  A    between atoms: C_10  and  N_11
REMARK    8  A    between atoms: C_12  and  C_14
REMARK    9  A    between atoms: C_14  and  S_15
REMARK   10  A    between atoms: S_15  and  C_16
REMARK   11  A    between atoms: C_31  and  C_34
REMARK                            x       y       z     vdW  Elec       q    Type
REMARK                         _______ _______ _______ _____ _____    ______ ____
ROOT
ATOM      1  C   UNL     1       1.207   2.256   0.003  0.00  0.00    +0.095 A 
ATOM      2  C   UNL     1      -0.018   1.478   0.010  0.00  0.00    +0.008 A 
ATOM      3  C   UNL     1      -1.183   2.174   0.019  0.00  0.00    -0.003 A 
ATOM      4  S   UNL     1      -0.646   3.872   0.029  0.00  0.00    -0.077 S 
ATOM      5  C   UNL     1       1.069   3.638   0.011  0.00  0.00    +0.087 A 
ATOM      6  C   UNL     1      -2.592   1.639   0.023  0.00  0.00    +0.052 C 
ENDROOT
BRANCH   2   7
ATOM      7  C   UNL     1       0.002  -0.004   0.002  0.00  0.00    -0.016 A 
ATOM      8  C   UNL     1       0.505  -0.691  -1.102  0.00  0.00    +0.009 A 
ATOM      9  C   UNL     1       0.526  -2.071  -1.102  0.00  0.00    +0.004 A 
ATOM     10  C   UNL     1       0.039  -2.772  -0.013  0.00  0.00    -0.050 A 
ATOM     11  C   UNL     1      -0.467  -2.096   1.082  0.00  0.00    +0.004 A 
ATOM     12  C   UNL     1      -0.488  -0.717   1.096  0.00  0.00    +0.009 A 
ATOM     13  C   UNL     1       0.060  -4.279  -0.022  0.00  0.00    +0.044 C 
ENDBRANCH   2   7
BRANCH   5  14
ATOM     14  N   UNL     1       2.067   4.599   0.008  0.00  0.00    -0.279 N 
ATOM     15  C   UNL     1       1.742   5.907   0.018  0.00  0.00    +0.228 C 
ATOM     16  O   UNL     1       0.576   6.242   0.030  0.00  0.00    -0.275 OA
ATOM     17  H   UNL     1       2.999   4.331  -0.002  0.00  0.00    +0.155 HD
BRANCH  15  18
ATOM     18  C   UNL     1       2.826   6.953   0.014  0.00  0.00    +0.172 C 
BRANCH  18  19
ATOM     19  S   UNL     1       2.075   8.604   0.030  0.00  0.00    -0.088 S 
BRANCH  19  20
ATOM     20  C   UNL     1       3.454   9.701   0.023  0.00  0.00    +0.156 C 
ATOM     21  N   UNL     1       4.724   9.417   0.016  0.00  0.00    -0.164 NA
ATOM     22  N   UNL     1       5.699  10.412   0.005  0.00  0.00    -0.197 N 
ATOM     23  C   UNL     1       7.145  10.086  -0.021  0.00  0.00    +0.159 C 
ATOM     24  C   UNL     1       7.925  11.157   0.746  0.00  0.00    +0.214 C 
ATOM     25  S   UNL     1       7.550  12.782   0.018  0.00  0.00    +0.073 S 
ATOM     26  O   UNL     1       7.953  13.823   0.897  0.00  0.00    -0.151 OA
ATOM     27  O   UNL     1       7.912  12.805  -1.355  0.00  0.00    -0.151 OA
ATOM     28  N   UNL     1       5.886  12.826   0.029  0.00  0.00    -0.109 NA
ATOM     29  C   UNL     1       5.233  11.705   0.021  0.00  0.00    +0.203 C 
ATOM     30  S   UNL     1       3.468  11.486   0.033  0.00  0.00    -0.023 S 
ENDBRANCH  19  20
ENDBRANCH  18  19
ENDBRANCH  15  18
ENDBRANCH   5  14
BRANCH   1  31
ATOM     31  C   UNL     1       2.522   1.616  -0.014  0.00  0.00    +0.342 C 
ATOM     32  O   UNL     1       3.059   1.356  -1.074  0.00  0.00    -0.245 OA
BRANCH  31  33
ATOM     33  O   UNL     1       3.140   1.314   1.147  0.00  0.00    -0.461 OA
BRANCH  33  35
ATOM     34  C   UNL     1       4.982   0.416   2.462  0.00  0.00    +0.048 C 
ATOM     35  C   UNL     1       4.443   0.680   1.054  0.00  0.00    +0.229 C 
ENDBRANCH  33  35
ENDBRANCH  31  33
ENDBRANCH   1  31
TORSDOF 8
