REMARK  Name = ZINC19988597
REMARK  3 active torsions:
REMARK  status: ('A' for Active; 'I' for Inactive)
REMARK    1  A    between atoms: C_1  and  C_2
REMARK    2  A    between atoms: C_5  and  C_8
REMARK    3  A    between atoms: C_16  and  O_17
REMARK                            x       y       z     vdW  Elec       q    Type
REMARK                         _______ _______ _______ _____ _____    ______ ____
ROOT
ATOM      1  C   UNL     1       0.058  -4.256  -0.021  0.00  0.00    +0.202 C 
ATOM      2  N   UNL     1       0.069  -5.043   1.066  0.00  0.00    -0.187 NA
ATOM      3  C   UNL     1       0.085  -6.307   0.704  0.00  0.00    +0.262 C 
ATOM      4  C   UNL     1       0.099  -7.466   1.614  0.00  0.00    +0.081 C 
ATOM      5  C   UNL     1       0.122  -8.764   1.096  0.00  0.00    +0.019 C 
ATOM      6  C   UNL     1       0.135  -9.844   1.948  0.00  0.00    +0.026 C 
ATOM      7  C   UNL     1       0.126  -9.649   3.327  0.00  0.00    +0.036 C 
ATOM      8  C   UNL     1       0.103  -8.363   3.851  0.00  0.00    +0.071 C 
ATOM      9  C   UNL     1       0.096  -7.270   3.003  0.00  0.00    +0.131 C 
ATOM     10  N   UNL     1       0.139 -10.748   4.183  0.00  0.00    -0.398 N 
ATOM     11  O   UNL     1       0.085  -6.359  -0.640  0.00  0.00    -0.332 OA
ATOM     12  N   UNL     1       0.062  -5.013  -1.092  0.00  0.00    -0.056 NA
ATOM     13  H   UNL     1       0.155 -11.646   3.818  0.00  0.00    +0.156 HD
ATOM     14  H   UNL     1       0.133 -10.614   5.143  0.00  0.00    +0.156 HD
ENDROOT
BRANCH   1  19
ATOM     15  C   UNL     1      -0.018   1.503   0.010  0.00  0.00    +0.044 C 
ATOM     16  C   UNL     1       0.002  -0.004   0.002  0.00  0.00    -0.050 A 
ATOM     17  C   UNL     1       0.006  -0.687  -1.201  0.00  0.00    +0.004 A 
ATOM     18  C   UNL     1       0.024  -2.067  -1.214  0.00  0.00    +0.012 A 
ATOM     19  C   UNL     1       0.039  -2.772  -0.013  0.00  0.00    +0.022 A 
ATOM     20  C   UNL     1       0.036  -2.080   1.196  0.00  0.00    +0.012 A 
ATOM     21  C   UNL     1       0.023  -0.700   1.198  0.00  0.00    +0.004 A 
ENDBRANCH   1  19
BRANCH   9  22
ATOM     22  O   UNL     1       0.080  -6.013   3.514  0.00  0.00    -0.506 OA
ATOM     23  H   UNL     1       0.079  -5.981   4.480  0.00  0.00    +0.292 HD
ENDBRANCH   9  22
TORSDOF 2
