REMARK  Name = ZINC14463381
REMARK  9 active torsions:
REMARK  status: ('A' for Active; 'I' for Inactive)
REMARK    1  A    between atoms: C_1  and  C_2
REMARK    2  A    between atoms: C_2  and  C_3
REMARK    3  A    between atoms: C_3  and  C_5
REMARK    4  A    between atoms: C_3  and  O_6
REMARK    5  A    between atoms: O_6  and  C_7
REMARK    6  A    between atoms: C_20  and  C_23
REMARK    7  A    between atoms: C_26  and  C_29
REMARK    8  A    between atoms: C_29  and  C_30
REMARK    9  A    between atoms: C_29  and  C_31
REMARK                            x       y       z     vdW  Elec       q    Type
REMARK                         _______ _______ _______ _____ _____    ______ ____
ROOT
ATOM      1  C   UNL     1      -5.109   5.709  -0.183  0.00  0.00    +0.121 A 
ATOM      2  C   UNL     1      -4.762   5.713   1.160  0.00  0.00    +0.047 A 
ATOM      3  C   UNL     1      -3.441   5.888   1.522  0.00  0.00    +0.027 A 
ATOM      4  C   UNL     1      -2.467   6.060   0.547  0.00  0.00    +0.032 A 
ATOM      5  C   UNL     1      -2.807   6.057  -0.796  0.00  0.00    -0.016 A 
ATOM      6  C   UNL     1      -4.137   5.879  -1.154  0.00  0.00    +0.051 A 
ATOM      7  C   UNL     1      -1.792   6.240  -1.879  0.00  0.00    +0.049 C 
ATOM      8  C   UNL     1      -1.483   4.936  -2.574  0.00  0.00    -0.023 C 
ATOM      9  C   UNL     1      -0.214   4.885  -2.899  0.00  0.00    -0.030 C 
ATOM     10  C   UNL     1       0.496   6.154  -2.468  0.00  0.00    +0.033 C 
ATOM     11  C   UNL     1      -0.427   6.721  -1.349  0.00  0.00    +0.029 C 
ATOM     12  C   UNL     1      -0.080   5.981  -0.054  0.00  0.00    +0.105 C 
ATOM     13  N   UNL     1      -1.132   6.236   0.935  0.00  0.00    -0.336 N 
ATOM     14  H   UNL     1      -0.909   6.519   1.836  0.00  0.00    +0.147 HD
ENDROOT
BRANCH  12  15
ATOM     15  C   UNL     1       0.008   4.501  -0.327  0.00  0.00    -0.027 A 
ATOM     16  C   UNL     1       1.243   3.899  -0.483  0.00  0.00    +0.006 A 
ATOM     17  C   UNL     1       1.324   2.542  -0.733  0.00  0.00    +0.004 A 
ATOM     18  C   UNL     1       0.170   1.787  -0.827  0.00  0.00    -0.045 A 
ATOM     19  C   UNL     1      -1.065   2.389  -0.676  0.00  0.00    +0.004 A 
ATOM     20  C   UNL     1      -1.146   3.746  -0.421  0.00  0.00    +0.006 A 
BRANCH  18  21
ATOM     21  C   UNL     1       0.258   0.307  -1.099  0.00  0.00    +0.013 C 
ATOM     22  C   UNL     1      -0.385  -0.463   0.056  0.00  0.00    +0.012 C 
ATOM     23  C   UNL     1      -0.478  -0.017  -2.401  0.00  0.00    +0.012 C 
ENDBRANCH  18  21
ENDBRANCH  12  15
BRANCH   1  24
ATOM     24  O   UNL     1      -6.408   5.537  -0.548  0.00  0.00    -0.489 OA
BRANCH  24  25
ATOM     25  C   UNL     1      -7.375   5.486   0.503  0.00  0.00    +0.170 C 
ATOM     26  C   UNL     1      -7.462   4.060   1.049  0.00  0.00    +0.052 C 
BRANCH  25  28
ATOM     27  C   UNL     1      -8.688   7.375  -0.472  0.00  0.00    +0.007 C 
ATOM     28  C   UNL     1      -8.742   5.908  -0.041  0.00  0.00    +0.041 C 
ENDBRANCH  25  28
ENDBRANCH  24  25
ENDBRANCH   1  24
TORSDOF 5
