REMARK  Name = ZINC09489977
REMARK  9 active torsions:
REMARK  status: ('A' for Active; 'I' for Inactive)
REMARK    1  A    between atoms: C_1  and  C_2
REMARK    2  A    between atoms: C_2  and  C_3
REMARK    3  A    between atoms: C_2  and  C_4
REMARK    4  A    between atoms: C_2  and  C_5
REMARK    5  A    between atoms: C_12  and  N_16
REMARK    6  A    between atoms: C_13  and  C_14
REMARK    7  A    between atoms: C_17  and  C_19
REMARK    8  A    between atoms: C_25  and  C_34
REMARK    9  A    between atoms: C_28  and  C_30
REMARK                            x       y       z     vdW  Elec       q    Type
REMARK                         _______ _______ _______ _____ _____    ______ ____
ROOT
ATOM      1  N   UNL     1       5.250  -0.619  -5.728  0.00  0.00    -0.275 N 
ATOM      2  C   UNL     1       6.537  -0.411  -5.389  0.00  0.00    +0.253 C 
ATOM      3  O   UNL     1       6.827  -0.129  -4.242  0.00  0.00    -0.270 OA
ATOM      4  H   UNL     1       5.019  -0.845  -6.643  0.00  0.00    +0.156 HD
ENDROOT
BRANCH   2   5
ATOM      5  C   UNL     1       7.591  -0.526  -6.405  0.00  0.00    +0.096 A 
ATOM      6  C   UNL     1       7.413  -0.840  -7.776  0.00  0.00    +0.149 A 
ATOM      7  N   UNL     1       8.586  -0.846  -8.349  0.00  0.00    -0.177 NA
ATOM      8  N   UNL     1       9.562  -0.542  -7.401  0.00  0.00    -0.238 N 
ATOM      9  C   UNL     1       8.947  -0.343  -6.210  0.00  0.00    +0.130 A 
ATOM     10  N   UNL     1       9.635  -0.021  -5.054  0.00  0.00    -0.319 N 
ATOM     11  C   UNL     1      11.102  -0.178  -5.102  0.00  0.00    +0.140 C 
ATOM     12  C   UNL     1      11.606   0.380  -6.438  0.00  0.00    +0.066 C 
ATOM     13  C   UNL     1      11.011  -0.436  -7.595  0.00  0.00    +0.215 C 
ATOM     14  H   UNL     1       9.179   0.291  -4.256  0.00  0.00    +0.148 HD
BRANCH  11  15
ATOM     15  C   UNL     1      11.459  -1.637  -4.991  0.00  0.00    +0.125 A 
ATOM     16  C   UNL     1      12.483  -2.145  -4.282  0.00  0.00    +0.046 A 
ATOM     17  C   UNL     1      12.447  -3.548  -4.457  0.00  0.00    +0.041 A 
ATOM     18  C   UNL     1      11.403  -3.813  -5.263  0.00  0.00    +0.195 A 
ATOM     19  O   UNL     1      10.805  -2.653  -5.579  0.00  0.00    -0.466 OA
ENDBRANCH  11  15
BRANCH  13  20
ATOM     20  C   UNL     1      11.301   0.281  -8.915  0.00  0.00    +0.412 C 
ATOM     21  F   UNL     1      10.741   1.562  -8.882  0.00  0.00    -0.168 F 
ATOM     22  F   UNL     1      12.684   0.381  -9.098  0.00  0.00    -0.168 F 
ATOM     23  F   UNL     1      10.742  -0.446  -9.972  0.00  0.00    -0.168 F 
ENDBRANCH  13  20
ENDBRANCH   2   5
BRANCH   1  30
ATOM     24  C   UNL     1       0.718  -0.497  -1.257  0.00  0.00    -0.000 C 
ATOM     25  C   UNL     1      -0.017   0.013  -2.499  0.00  0.00    +0.009 C 
ATOM     26  C   UNL     1       0.537  -0.670  -3.751  0.00  0.00    +0.037 C 
ATOM     27  C   UNL     1       2.051  -0.516  -3.760  0.00  0.00    -0.018 A 
ATOM     28  C   UNL     1       2.731  -0.199  -2.636  0.00  0.00    -0.004 A 
ATOM     29  S   UNL     1       4.425  -0.135  -3.141  0.00  0.00    -0.077 S 
ATOM     30  C   UNL     1       4.254  -0.511  -4.769  0.00  0.00    +0.090 A 
ATOM     31  C   UNL     1       2.890  -0.688  -4.933  0.00  0.00    +0.084 A 
ATOM     32  C   UNL     1       2.158   0.038  -1.273  0.00  0.00    +0.047 C 
BRANCH  24  34
ATOM     33  C   UNL     1      -0.019   1.526   0.010  0.00  0.00    +0.011 C 
ATOM     34  C   UNL     1       0.002  -0.004   0.002  0.00  0.00    -0.035 C 
ATOM     35  C   UNL     1       0.742  -0.511   1.242  0.00  0.00    +0.011 C 
ATOM     36  C   UNL     1      -1.433  -0.534   0.013  0.00  0.00    +0.011 C 
ENDBRANCH  24  34
BRANCH  31  37
ATOM     37  C   UNL     1       2.330  -1.027  -6.207  0.00  0.00    +0.102 C 
ATOM     38  N   UNL     1       1.885  -1.295  -7.217  0.00  0.00    -0.191 NA
ENDBRANCH  31  37
ENDBRANCH   1  30
TORSDOF 6
