REMARK  Name = ZINC12886661
REMARK  8 active torsions:
REMARK  status: ('A' for Active; 'I' for Inactive)
REMARK    1  A    between atoms: C_1  and  C_2
REMARK    2  A    between atoms: C_4  and  C_36
REMARK    3  A    between atoms: C_13  and  C_15
REMARK    4  A    between atoms: C_15  and  C_16
REMARK    5  A    between atoms: C_16  and  C_17
REMARK    6  A    between atoms: N_22  and  C_25
REMARK    7  A    between atoms: C_25  and  C_26
REMARK    8  A    between atoms: C_26  and  C_27
REMARK                            x       y       z     vdW  Elec       q    Type
REMARK                         _______ _______ _______ _____ _____    ______ ____
ROOT
ATOM      1  C   UNL     1       3.889   6.975   0.252  0.00  0.00    +0.044 C 
ATOM      2  C   UNL     1       3.827   5.722  -0.583  0.00  0.00    -0.050 A 
ATOM      3  C   UNL     1       4.848   5.428  -1.469  0.00  0.00    +0.008 A 
ATOM      4  C   UNL     1       4.797   4.282  -2.235  0.00  0.00    -0.029 A 
ATOM      5  C   UNL     1       3.716   3.411  -2.121  0.00  0.00    +0.039 A 
ATOM      6  C   UNL     1       2.695   3.717  -1.227  0.00  0.00    -0.027 A 
ATOM      7  C   UNL     1       2.750   4.862  -0.464  0.00  0.00    +0.008 A 
ATOM      8  C   UNL     1       1.698   2.598  -1.344  0.00  0.00    +0.050 C 
ATOM      9  C   UNL     1       1.489   1.886  -0.002  0.00  0.00    +0.088 C 
ATOM     10  C   UNL     1      -0.018   1.508   0.010  0.00  0.00    +0.073 C 
ATOM     11  C   UNL     1      -0.564   2.014  -1.342  0.00  0.00    -0.057 C 
ATOM     12  C   UNL     1       0.002  -0.004   0.002  0.00  0.00    +0.224 C 
ATOM     13  O   UNL     1      -0.978  -0.718   0.010  0.00  0.00    -0.275 OA
ATOM     14  N   UNL     1       1.270  -0.432  -0.017  0.00  0.00    -0.241 N 
ATOM     15  C   UNL     1       2.185   0.544  -0.021  0.00  0.00    +0.225 C 
ATOM     16  O   UNL     1       3.386   0.378  -0.038  0.00  0.00    -0.275 OA
ATOM     17  C   UNL     1       2.274   1.668  -2.376  0.00  0.00    +0.211 C 
ATOM     18  O   UNL     1       1.783   0.631  -2.771  0.00  0.00    -0.277 OA
ATOM     19  N   UNL     1       3.440   2.209  -2.777  0.00  0.00    -0.286 N 
ATOM     20  C   UNL     1       5.914   3.972  -3.197  0.00  0.00    +0.045 C 
ATOM     21  H   UNL     1       4.021   1.810  -3.443  0.00  0.00    +0.155 HD
ATOM     22  N   UNL     1       0.379   3.065  -1.733  0.00  0.00    +0.394 N 
ATOM     23  H   UNL     1       0.341   3.216  -2.748  0.00  0.00    -0.083 HD
ATOM     24  H   UNL     1       0.154   3.941  -1.247  0.00  0.00    -0.083 HD
ENDROOT
BRANCH  11  25
ATOM     25  C   UNL     1      -1.980   2.569  -1.171  0.00  0.00    -0.006 C 
BRANCH  25  26
ATOM     26  C   UNL     1      -2.547   2.949  -2.541  0.00  0.00    +0.094 C 
BRANCH  26  27
ATOM     27  C   UNL     1      -3.941   3.495  -2.372  0.00  0.00    +0.210 C 
ATOM     28  O   UNL     1      -4.433   3.574  -1.266  0.00  0.00    -0.276 OA
ATOM     29  N   UNL     1      -4.642   3.897  -3.451  0.00  0.00    -0.329 N 
ATOM     30  H   UNL     1      -4.249   3.835  -4.336  0.00  0.00    +0.145 HD
ATOM     31  H   UNL     1      -5.540   4.249  -3.343  0.00  0.00    +0.145 HD
ENDBRANCH  26  27
ENDBRANCH  25  26
ENDBRANCH  11  25
BRANCH  14  32
ATOM     32  C   UNL     1       1.627  -1.852  -0.030  0.00  0.00    +0.121 C 
BRANCH  32  33
ATOM     33  C   UNL     1       1.733  -2.338  -1.477  0.00  0.00    +0.054 C 
BRANCH  33  34
ATOM     34  C   UNL     1       2.100  -3.799  -1.491  0.00  0.00    -0.046 A 
ATOM     35  C   UNL     1       3.430  -4.178  -1.515  0.00  0.00    +0.004 A 
ATOM     36  C   UNL     1       3.766  -5.519  -1.524  0.00  0.00    +0.000 A 
ATOM     37  C   UNL     1       2.774  -6.481  -1.517  0.00  0.00    +0.000 A 
ATOM     38  C   UNL     1       1.444  -6.102  -1.498  0.00  0.00    +0.000 A 
ATOM     39  C   UNL     1       1.108  -4.761  -1.485  0.00  0.00    +0.004 A 
ENDBRANCH  33  34
ENDBRANCH  32  33
ENDBRANCH  14  32
TORSDOF 6
