REMARK  Name = ZINC40811512
REMARK  11 active torsions:
REMARK  status: ('A' for Active; 'I' for Inactive)
REMARK    1  A    between atoms: C_1  and  C_2
REMARK    2  A    between atoms: C_2  and  C_3
REMARK    3  A    between atoms: C_3  and  C_4
REMARK    4  A    between atoms: C_4  and  O_5
REMARK    5  A    between atoms: O_5  and  C_6
REMARK    6  A    between atoms: C_9  and  N_12
REMARK    7  A    between atoms: C_13  and  C_15
REMARK    8  A    between atoms: C_16  and  C_35
REMARK    9  A    between atoms: N_24  and  N_25
REMARK   10  A    between atoms: C_26  and  C_28
REMARK   11  A    between atoms: C_33  and  C_34
REMARK                            x       y       z     vdW  Elec       q    Type
REMARK                         _______ _______ _______ _____ _____    ______ ____
ROOT
ATOM      1  C   UNL     1       2.287  -9.922  -4.485  0.00  0.00    +0.193 A 
ATOM      2  C   UNL     1       2.867 -10.570  -5.540  0.00  0.00    +0.009 A 
ATOM      3  C   UNL     1       2.483 -11.912  -5.433  0.00  0.00    +0.042 A 
ATOM      4  C   UNL     1       1.684 -12.026  -4.320  0.00  0.00    +0.115 A 
ATOM      5  O   UNL     1       1.585 -10.822  -3.761  0.00  0.00    -0.454 OA
ATOM      6  C   UNL     1       1.070 -13.331  -3.880  0.00  0.00    +0.075 C 
ATOM      7  C   UNL     1       1.033 -14.300  -5.065  0.00  0.00    +0.014 C 
ATOM      8  C   UNL     1       2.421 -14.431  -5.701  0.00  0.00    +0.058 C 
ATOM      9  C   UNL     1       2.807 -13.079  -6.284  0.00  0.00    +0.070 C 
ATOM     10  N   UNL     1       3.378 -12.958  -7.443  0.00  0.00    -0.184 NA
ATOM     11  C   UNL     1       3.744  -9.962  -6.604  0.00  0.00    +0.048 C 
ENDROOT
BRANCH   1  13
ATOM     12  N   UNL     1       1.790  -7.972  -3.108  0.00  0.00    -0.279 N 
ATOM     13  C   UNL     1       2.410  -8.491  -4.186  0.00  0.00    +0.284 C 
ATOM     14  O   UNL     1       3.072  -7.772  -4.912  0.00  0.00    -0.266 OA
ATOM     15  H   UNL     1       1.325  -8.555  -2.488  0.00  0.00    +0.155 HD
BRANCH  12  19
ATOM     16  C   UNL     1       1.872  -3.858  -2.436  0.00  0.00    +0.121 A 
ATOM     17  C   UNL     1       1.883  -4.736  -1.362  0.00  0.00    +0.047 A 
ATOM     18  C   UNL     1       1.856  -6.099  -1.584  0.00  0.00    +0.027 A 
ATOM     19  C   UNL     1       1.817  -6.590  -2.882  0.00  0.00    +0.034 A 
ATOM     20  C   UNL     1       1.807  -5.710  -3.957  0.00  0.00    +0.027 A 
ATOM     21  C   UNL     1       1.828  -4.348  -3.733  0.00  0.00    +0.047 A 
BRANCH  16  22
ATOM     22  O   UNL     1       1.899  -2.517  -2.217  0.00  0.00    -0.492 OA
BRANCH  22  23
ATOM     23  C   UNL     1       1.944  -2.082  -0.856  0.00  0.00    +0.229 C 
BRANCH  23  24
ATOM     24  C   UNL     1       1.969  -0.553  -0.809  0.00  0.00    +0.041 C 
BRANCH  24  26
ATOM     25  C   UNL     1       2.042   1.441   0.694  0.00  0.00    +0.004 C 
ATOM     26  C   UNL     1       2.017  -0.088   0.647  0.00  0.00    -0.000 C 
ENDBRANCH  24  26
ENDBRANCH  23  24
ENDBRANCH  22  23
ENDBRANCH  16  22
ENDBRANCH  12  19
ENDBRANCH   1  13
BRANCH  10  27
ATOM     27  N   UNL     1       3.661 -14.098  -8.206  0.00  0.00    -0.203 N 
ATOM     28  C   UNL     1       4.255 -13.973  -9.410  0.00  0.00    +0.264 C 
ATOM     29  O   UNL     1       4.544 -12.870  -9.834  0.00  0.00    -0.268 OA
ATOM     30  H   UNL     1       3.431 -14.978  -7.869  0.00  0.00    +0.178 HD
BRANCH  28  31
ATOM     31  C   UNL     1       4.553 -15.176 -10.215  0.00  0.00    +0.041 A 
ATOM     32  C   UNL     1       4.346 -16.448  -9.679  0.00  0.00    +0.013 A 
ATOM     33  C   UNL     1       4.628 -17.566 -10.436  0.00  0.00    +0.001 A 
ATOM     34  C   UNL     1       5.114 -17.429 -11.724  0.00  0.00    +0.000 A 
ATOM     35  C   UNL     1       5.322 -16.172 -12.261  0.00  0.00    +0.004 A 
ATOM     36  C   UNL     1       5.039 -15.045 -11.518  0.00  0.00    -0.038 A 
ATOM     37  C   UNL     1       5.259 -13.675 -12.107  0.00  0.00    +0.044 C 
ENDBRANCH  28  31
ENDBRANCH  10  27
TORSDOF 8
