REMARK  Name = ZINC08791329
REMARK  8 active torsions:
REMARK  status: ('A' for Active; 'I' for Inactive)
REMARK    1  A    between atoms: C_1  and  C_2
REMARK    2  A    between atoms: C_4  and  C_36
REMARK    3  A    between atoms: C_13  and  C_15
REMARK    4  A    between atoms: C_15  and  C_16
REMARK    5  A    between atoms: C_16  and  C_17
REMARK    6  A    between atoms: N_22  and  C_25
REMARK    7  A    between atoms: C_25  and  C_26
REMARK    8  A    between atoms: C_26  and  C_27
REMARK                            x       y       z     vdW  Elec       q    Type
REMARK                         _______ _______ _______ _____ _____    ______ ____
ROOT
ATOM      1  C   UNL     1      -3.199   4.129   4.056  0.00  0.00    +0.044 C 
ATOM      2  C   UNL     1      -1.810   4.087   4.639  0.00  0.00    -0.050 A 
ATOM      3  C   UNL     1      -1.205   5.252   5.076  0.00  0.00    +0.008 A 
ATOM      4  C   UNL     1       0.066   5.218   5.611  0.00  0.00    -0.029 A 
ATOM      5  C   UNL     1       0.750   4.010   5.717  0.00  0.00    +0.039 A 
ATOM      6  C   UNL     1       0.132   2.844   5.276  0.00  0.00    -0.027 A 
ATOM      7  C   UNL     1      -1.137   2.882   4.741  0.00  0.00    +0.008 A 
ATOM      8  C   UNL     1       1.116   1.737   5.525  0.00  0.00    +0.050 C 
ATOM      9  C   UNL     1       1.484   1.006   4.229  0.00  0.00    +0.088 C 
ATOM     10  C   UNL     1       0.600  -0.272   4.234  0.00  0.00    +0.073 C 
ATOM     11  C   UNL     1      -0.236  -0.169   5.528  0.00  0.00    -0.057 C 
ATOM     12  C   UNL     1      -0.311  -0.071   3.044  0.00  0.00    +0.224 C 
ATOM     13  O   UNL     1      -1.170  -0.845   2.681  0.00  0.00    -0.275 OA
ATOM     14  N   UNL     1      -0.020   1.094   2.454  0.00  0.00    -0.241 N 
ATOM     15  C   UNL     1       0.967   1.782   3.039  0.00  0.00    +0.225 C 
ATOM     16  O   UNL     1       1.382   2.860   2.672  0.00  0.00    -0.275 OA
ATOM     17  C   UNL     1       2.315   2.410   6.136  0.00  0.00    +0.211 C 
ATOM     18  O   UNL     1       3.344   1.875   6.490  0.00  0.00    -0.277 OA
ATOM     19  N   UNL     1       2.023   3.723   6.214  0.00  0.00    -0.286 N 
ATOM     20  C   UNL     1       0.715   6.494   6.082  0.00  0.00    +0.045 C 
ATOM     21  H   UNL     1       2.627   4.391   6.573  0.00  0.00    +0.155 HD
ATOM     22  N   UNL     1       0.554   0.714   6.390  0.00  0.00    +0.394 N 
ATOM     23  H   UNL     1      -0.046   1.143   7.104  0.00  0.00    -0.083 HD
ATOM     24  H   UNL     1       1.305   0.183   6.847  0.00  0.00    -0.083 HD
ENDROOT
BRANCH  11  25
ATOM     25  C   UNL     1      -0.415  -1.551   6.159  0.00  0.00    -0.006 C 
BRANCH  25  26
ATOM     26  C   UNL     1      -1.284  -1.431   7.412  0.00  0.00    +0.094 C 
BRANCH  26  27
ATOM     27  C   UNL     1      -1.460  -2.793   8.033  0.00  0.00    +0.210 C 
ATOM     28  O   UNL     1      -0.942  -3.764   7.524  0.00  0.00    -0.276 OA
ATOM     29  N   UNL     1      -2.194  -2.932   9.155  0.00  0.00    -0.329 N 
ATOM     30  H   UNL     1      -2.609  -2.156   9.563  0.00  0.00    +0.145 HD
ATOM     31  H   UNL     1      -2.308  -3.809   9.555  0.00  0.00    +0.145 HD
ENDBRANCH  26  27
ENDBRANCH  25  26
ENDBRANCH  11  25
BRANCH  14  32
ATOM     32  C   UNL     1      -0.729   1.579   1.267  0.00  0.00    +0.121 C 
BRANCH  32  33
ATOM     33  C   UNL     1      -0.013   1.086   0.008  0.00  0.00    +0.054 C 
BRANCH  33  34
ATOM     34  C   UNL     1      -0.742   1.585  -1.213  0.00  0.00    -0.046 A 
ATOM     35  C   UNL     1      -1.750   0.825  -1.775  0.00  0.00    +0.004 A 
ATOM     36  C   UNL     1      -2.422   1.285  -2.892  0.00  0.00    +0.000 A 
ATOM     37  C   UNL     1      -2.078   2.501  -3.453  0.00  0.00    +0.000 A 
ATOM     38  C   UNL     1      -1.066   3.259  -2.894  0.00  0.00    +0.000 A 
ATOM     39  C   UNL     1      -0.398   2.801  -1.774  0.00  0.00    +0.004 A 
ENDBRANCH  33  34
ENDBRANCH  32  33
ENDBRANCH  14  32
TORSDOF 6
