REMARK  Name = ZINC13008418
REMARK  5 active torsions:
REMARK  status: ('A' for Active; 'I' for Inactive)
REMARK    1  A    between atoms: C_1  and  C_2
REMARK    2  A    between atoms: C_5  and  N_9
REMARK    3  A    between atoms: N_9  and  C_10
REMARK    4  A    between atoms: C_10  and  C_12
REMARK    5  A    between atoms: C_10  and  P_17
REMARK                            x       y       z     vdW  Elec       q    Type
REMARK                         _______ _______ _______ _____ _____    ______ ____
ROOT
ATOM      1  N   UNL     1       2.140   5.252  -0.783  0.00  0.00    -0.327 N 
ATOM      2  H   UNL     1       2.881   4.651  -0.608  0.00  0.00    +0.147 HD
ENDROOT
BRANCH   1   7
ATOM      3  C   UNL     1       2.618   9.245  -4.784  0.00  0.00    +0.047 C 
ATOM      4  C   UNL     1       2.490   8.184  -3.720  0.00  0.00    -0.015 A 
ATOM      5  C   UNL     1       3.483   7.233  -3.572  0.00  0.00    +0.008 A 
ATOM      6  C   UNL     1       3.369   6.259  -2.600  0.00  0.00    +0.023 A 
ATOM      7  C   UNL     1       2.256   6.236  -1.768  0.00  0.00    +0.031 A 
ATOM      8  C   UNL     1       1.258   7.188  -1.921  0.00  0.00    +0.061 A 
ATOM      9  C   UNL     1       1.379   8.164  -2.894  0.00  0.00    +0.128 A 
ATOM     10  F   UNL     1       0.411   9.095  -3.041  0.00  0.00    -0.205 F 
ENDBRANCH   1   7
BRANCH   1  11
ATOM     11  C   UNL     1       0.899   5.128  -0.015  0.00  0.00    +0.227 C 
BRANCH  11  12
ATOM     12  C   UNL     1       0.531   3.672   0.113  0.00  0.00    +0.022 A 
ATOM     13  C   UNL     1      -0.698   3.100   0.129  0.00  0.00    +0.013 A 
ATOM     14  C   UNL     1      -0.797   1.727   0.252  0.00  0.00    +0.008 A 
ATOM     15  C   UNL     1       0.337   0.994   0.364  0.00  0.00    +0.045 A 
ATOM     16  S   UNL     1       1.600   2.253   0.284  0.00  0.00    -0.099 S 
ENDBRANCH  11  12
BRANCH  11  17
ATOM     17  P   UNL     1       1.137   5.843   1.645  0.00  0.00    +0.411 P 
ATOM     18  O   UNL     1       1.380   7.298   1.524  0.00  0.00    -0.252 OA
ATOM     19  O   UNL     1      -0.182   5.590   2.533  0.00  0.00    -0.137 OA
ATOM     20  O   UNL     1       2.403   5.145   2.353  0.00  0.00    -0.137 OA
ENDBRANCH  11  17
ENDBRANCH   1  11
TORSDOF 4
