REMARK  Name = ZINC27369052
REMARK  11 active torsions:
REMARK  status: ('A' for Active; 'I' for Inactive)
REMARK    1  A    between atoms: C_1  and  C_2
REMARK    2  A    between atoms: C_5  and  C_7
REMARK    3  A    between atoms: C_7  and  N_8
REMARK    4  A    between atoms: N_8  and  C_9
REMARK    5  A    between atoms: N_8  and  C_17
REMARK    6  A    between atoms: C_9  and  C_10
REMARK    7  A    between atoms: C_10  and  C_11
REMARK    8  A    between atoms: C_17  and  C_18
REMARK    9  A    between atoms: C_24  and  S_31
REMARK   10  A    between atoms: C_28  and  C_30
REMARK   11  A    between atoms: S_31  and  N_34
REMARK                            x       y       z     vdW  Elec       q    Type
REMARK                         _______ _______ _______ _____ _____    ______ ____
ROOT
ATOM      1  C   UNL     1      -2.602  -1.969   1.291  0.00  0.00    +0.020 C 
ENDROOT
BRANCH   1   2
ATOM      2  C   UNL     1      -3.728  -1.019   0.970  0.00  0.00    +0.203 C 
ATOM      3  O   UNL     1      -3.509   0.170   0.875  0.00  0.00    -0.277 OA
ATOM      4  N   UNL     1      -4.977  -1.491   0.788  0.00  0.00    -0.270 N 
ATOM      5  C   UNL     1      -5.344  -2.838   0.867  0.00  0.00    +0.040 A 
ATOM      6  C   UNL     1      -4.556  -3.955   1.150  0.00  0.00    +0.026 A 
ATOM      7  C   UNL     1      -5.120  -5.212   1.187  0.00  0.00    +0.030 A 
ATOM      8  C   UNL     1      -6.473  -5.376   0.951  0.00  0.00    +0.105 A 
ATOM      9  C   UNL     1      -7.261  -4.274   0.676  0.00  0.00    +0.034 A 
ATOM     10  C   UNL     1      -6.699  -3.012   0.637  0.00  0.00    -0.022 A 
ATOM     11  C   UNL     1      -7.319  -1.659   0.365  0.00  0.00    +0.059 C 
ATOM     12  C   UNL     1      -6.148  -0.669   0.473  0.00  0.00    +0.083 C 
ATOM     13  C   UNL     1      -6.406   0.339   1.595  0.00  0.00    +0.029 C 
BRANCH   8  14
ATOM     14  S   UNL     1      -7.190  -6.984   0.999  0.00  0.00    +0.056 S 
ATOM     15  O   UNL     1      -6.343  -7.782   1.815  0.00  0.00    -0.153 OA
ATOM     16  O   UNL     1      -8.571  -6.805   1.282  0.00  0.00    -0.153 OA
BRANCH  14  17
ATOM     17  N   UNL     1      -7.097  -7.608  -0.532  0.00  0.00    -0.204 NA
ATOM     18  H   UNL     1      -7.537  -8.617  -0.544  0.00  0.00    +0.144 HD
ATOM     19  H   UNL     1      -6.043  -7.663  -0.842  0.00  0.00    +0.144 HD
ENDBRANCH  14  17
ENDBRANCH   8  14
ENDBRANCH   1   2
BRANCH   1  20
ATOM     20  N   UNL     1      -1.351  -1.213   1.440  0.00  0.00    +0.389 N 
ATOM     21  H   UNL     1      -1.532  -0.399   2.158  0.00  0.00    -0.081 HD
BRANCH  20  22
ATOM     22  C   UNL     1      -0.946  -0.609   0.164  0.00  0.00    -0.035 C 
BRANCH  22  27
ATOM     23  C   UNL     1       2.216   3.956   1.285  0.00  0.00    +0.051 C 
ATOM     24  C   UNL     1       1.606   2.619   0.952  0.00  0.00    -0.013 A 
ATOM     25  C   UNL     1       2.222   1.453   0.640  0.00  0.00    +0.011 A 
ATOM     26  C   UNL     1       1.451   0.339   0.366  0.00  0.00    +0.009 A 
ATOM     27  C   UNL     1       0.100   0.446   0.418  0.00  0.00    -0.026 A 
ATOM     28  S   UNL     1      -0.118   2.160   0.864  0.00  0.00    -0.100 S 
ENDBRANCH  22  27
ENDBRANCH  20  22
BRANCH  20  29
ATOM     29  C   UNL     1      -0.284  -2.064   1.983  0.00  0.00    -0.073 C 
BRANCH  29  30
ATOM     30  C   UNL     1      -0.573  -2.369   3.454  0.00  0.00    +0.016 C 
BRANCH  30  31
ATOM     31  C   UNL     1       0.561  -3.175   4.033  0.00  0.00    -0.049 A 
ATOM     32  C   UNL     1       0.522  -4.556   3.985  0.00  0.00    +0.003 A 
ATOM     33  C   UNL     1       1.565  -5.295   4.511  0.00  0.00    +0.000 A 
ATOM     34  C   UNL     1       2.642  -4.654   5.095  0.00  0.00    +0.000 A 
ATOM     35  C   UNL     1       2.678  -3.273   5.147  0.00  0.00    +0.000 A 
ATOM     36  C   UNL     1       1.638  -2.534   4.617  0.00  0.00    +0.003 A 
ENDBRANCH  30  31
ENDBRANCH  29  30
ENDBRANCH  20  29
ENDBRANCH   1  20
TORSDOF 9
