REMARK  Name = ZINC01899392
REMARK  12 active torsions:
REMARK  status: ('A' for Active; 'I' for Inactive)
REMARK    1  A    between atoms: C_1  and  C_2
REMARK    2  A    between atoms: C_3  and  C_14
REMARK    3  A    between atoms: C_4  and  C_13
REMARK    4  A    between atoms: N_5  and  C_7
REMARK    5  A    between atoms: N_15  and  N_16
REMARK    6  A    between atoms: C_17  and  C_19
REMARK    7  A    between atoms: C_19  and  S_20
REMARK    8  A    between atoms: S_20  and  C_21
REMARK    9  A    between atoms: C_24  and  C_33
REMARK   10  A    between atoms: N_25  and  C_26
REMARK   11  A    between atoms: C_36  and  O_39
REMARK   12  A    between atoms: O_39  and  C_40
REMARK                            x       y       z     vdW  Elec       q    Type
REMARK                         _______ _______ _______ _____ _____    ______ ____
ROOT
ATOM      1  S   UNL     1      -1.471   4.835  -5.819  0.00  0.00    -0.076 S 
ENDROOT
BRANCH   1   2
ATOM      2  C   UNL     1      -1.706   5.204  -7.526  0.00  0.00    +0.197 A 
ATOM      3  N   UNL     1      -1.692   4.343  -8.519  0.00  0.00    -0.122 NA
ATOM      4  N   UNL     1      -1.897   4.950  -9.633  0.00  0.00    -0.128 NA
ATOM      5  C   UNL     1      -2.055   6.236  -9.423  0.00  0.00    +0.169 A 
ATOM      6  N   UNL     1      -1.943   6.439  -8.065  0.00  0.00    -0.270 N 
BRANCH   6   7
ATOM      7  C   UNL     1      -2.046   7.658  -7.378  0.00  0.00    +0.051 A 
ATOM      8  C   UNL     1      -3.253   8.344  -7.358  0.00  0.00    +0.028 A 
ATOM      9  C   UNL     1      -3.353   9.543  -6.681  0.00  0.00    +0.022 A 
ATOM     10  C   UNL     1      -2.251  10.062  -6.023  0.00  0.00    +0.041 A 
ATOM     11  C   UNL     1      -1.047   9.380  -6.043  0.00  0.00    +0.022 A 
ATOM     12  C   UNL     1      -0.944   8.177  -6.713  0.00  0.00    +0.028 A 
ATOM     13 CL   UNL     1      -2.380  11.570  -5.174  0.00  0.00    -0.084 Cl
ENDBRANCH   6   7
BRANCH   5  14
ATOM     14  C   UNL     1      -2.310   7.269 -10.448  0.00  0.00    +0.020 A 
ATOM     15  C   UNL     1      -2.142   8.620 -10.137  0.00  0.00    +0.015 A 
ATOM     16  C   UNL     1      -2.381   9.581 -11.096  0.00  0.00    +0.046 A 
ATOM     17  C   UNL     1      -2.788   9.207 -12.370  0.00  0.00    +0.120 A 
ATOM     18  C   UNL     1      -2.957   7.864 -12.683  0.00  0.00    +0.046 A 
ATOM     19  C   UNL     1      -2.714   6.897 -11.731  0.00  0.00    +0.015 A 
BRANCH  17  20
ATOM     20  O   UNL     1      -3.023  10.157 -13.313  0.00  0.00    -0.495 OA
ATOM     21  C   UNL     1      -3.439   9.703 -14.602  0.00  0.00    +0.277 C 
ENDBRANCH  17  20
ENDBRANCH   5  14
ENDBRANCH   1   2
BRANCH   1  22
ATOM     22  C   UNL     1      -1.207   3.040  -5.791  0.00  0.00    +0.174 C 
BRANCH  22  24
ATOM     23  N   UNL     1      -0.772   1.283  -4.104  0.00  0.00    -0.206 N 
ATOM     24  C   UNL     1      -0.990   2.587  -4.370  0.00  0.00    +0.242 C 
ATOM     25  O   UNL     1      -1.012   3.395  -3.465  0.00  0.00    -0.273 OA
ATOM     26  H   UNL     1      -0.755   0.637  -4.827  0.00  0.00    +0.177 HD
BRANCH  23  28
ATOM     27  C   UNL     1      -0.361  -0.393  -2.528  0.00  0.00    +0.142 C 
ATOM     28  N   UNL     1      -0.571   0.862  -2.783  0.00  0.00    -0.188 NA
BRANCH  27  31
ATOM     29  C   UNL     1      -0.360   1.476   0.035  0.00  0.00    +0.068 C 
ATOM     30  C   UNL     1      -0.147  -0.016   0.013  0.00  0.00    +0.069 A 
ATOM     31  C   UNL     1      -0.149  -0.836  -1.137  0.00  0.00    +0.038 A 
ATOM     32  C   UNL     1       0.083  -2.129  -0.718  0.00  0.00    +0.051 A 
ATOM     33  N   UNL     1       0.221  -2.098   0.625  0.00  0.00    -0.236 N 
ATOM     34  N   UNL     1       0.079  -0.773   1.053  0.00  0.00    -0.171 NA
ATOM     35  C   UNL     1       0.167  -3.351  -1.596  0.00  0.00    +0.066 C 
BRANCH  33  36
ATOM     36  C   UNL     1       0.469  -3.204   1.450  0.00  0.00    +0.066 A 
ATOM     37  C   UNL     1      -0.207  -3.338   2.655  0.00  0.00    +0.028 A 
ATOM     38  C   UNL     1       0.039  -4.430   3.465  0.00  0.00    +0.002 A 
ATOM     39  C   UNL     1       0.958  -5.387   3.078  0.00  0.00    +0.000 A 
ATOM     40  C   UNL     1       1.633  -5.256   1.878  0.00  0.00    +0.002 A 
ATOM     41  C   UNL     1       1.387  -4.170   1.060  0.00  0.00    +0.028 A 
ENDBRANCH  33  36
ENDBRANCH  27  31
ENDBRANCH  23  28
ENDBRANCH  22  24
ENDBRANCH   1  22
TORSDOF 9
