REMARK  Name = ZINC14199988
REMARK  8 active torsions:
REMARK  status: ('A' for Active; 'I' for Inactive)
REMARK    1  A    between atoms: C_3  and  C_26
REMARK    2  A    between atoms: C_6  and  C_7
REMARK    3  A    between atoms: C_7  and  N_8
REMARK    4  A    between atoms: C_9  and  C_11
REMARK    5  A    between atoms: C_11  and  N_12
REMARK    6  A    between atoms: C_13  and  C_15
REMARK    7  A    between atoms: C_15  and  C_16
REMARK    8  A    between atoms: C_26  and  N_71
REMARK                            x       y       z     vdW  Elec       q    Type
REMARK                         _______ _______ _______ _____ _____    ______ ____
ROOT
ATOM      1  N   UNL     1      -0.011   0.966   0.007  0.00  0.00    -0.310 N 
ATOM      2  C   UNL     1       1.147   1.655   0.000  0.00  0.00    +0.230 C 
ATOM      3  O   UNL     1       1.130   2.868   0.007  0.00  0.00    -0.274 OA
ATOM      4  H   UNL     1       0.002  -0.004   0.002  0.00  0.00    +0.149 HD
ENDROOT
BRANCH   1   5
ATOM      5  C   UNL     1      -1.290   1.681   0.017  0.00  0.00    +0.139 C 
BRANCH   5  11
ATOM      6  C   UNL     1      -2.950   0.241  -1.180  0.00  0.00    +0.005 A 
ATOM      7  C   UNL     1      -3.986  -0.675  -1.180  0.00  0.00    +0.002 A 
ATOM      8  C   UNL     1      -4.499  -1.138   0.017  0.00  0.00    -0.064 A 
ATOM      9  C   UNL     1      -3.974  -0.689   1.214  0.00  0.00    +0.002 A 
ATOM     10  C   UNL     1      -2.935   0.224   1.214  0.00  0.00    +0.005 A 
ATOM     11  C   UNL     1      -2.422   0.686   0.017  0.00  0.00    -0.030 A 
BRANCH   8  12
ATOM     12  C   UNL     1      -5.630  -2.134   0.017  0.00  0.00    -0.043 C 
BRANCH  12  18
ATOM     13  C   UNL     1      -7.091  -0.678   1.284  0.00  0.00    -0.078 C 
ATOM     14  C   UNL     1      -8.364   0.169   1.202  0.00  0.00    -0.019 C 
ATOM     15  C   UNL     1      -9.565  -0.747   0.952  0.00  0.00    -0.004 C 
ATOM     16  C   UNL     1      -9.332  -1.541  -0.336  0.00  0.00    -0.019 C 
ATOM     17  C   UNL     1      -8.031  -2.338  -0.210  0.00  0.00    -0.078 C 
ATOM     18  N   UNL     1      -6.911  -1.398   0.005  0.00  0.00    +0.382 N 
ATOM     19  H   UNL     1      -6.897  -0.716  -0.762  0.00  0.00    -0.081 HD
ENDBRANCH  12  18
ENDBRANCH   8  12
ENDBRANCH   5  11
ENDBRANCH   1   5
BRANCH   2  20
ATOM     20  C   UNL     1       2.462   0.920  -0.017  0.00  0.00    +0.200 C 
BRANCH  20  21
ATOM     21  N   UNL     1       3.562   1.887  -0.022  0.00  0.00    -0.307 N 
ATOM     22  C   UNL     1       4.839   1.455  -0.036  0.00  0.00    +0.214 C 
ATOM     23  O   UNL     1       5.077   0.266  -0.045  0.00  0.00    -0.276 OA
ATOM     24  H   UNL     1       3.372   2.838  -0.015  0.00  0.00    +0.149 HD
BRANCH  22  25
ATOM     25  C   UNL     1       5.971   2.450  -0.042  0.00  0.00    +0.102 C 
BRANCH  25  26
ATOM     26  C   UNL     1       7.306   1.703  -0.059  0.00  0.00    -0.020 C 
ATOM     27  C   UNL     1       7.411   0.818   1.185  0.00  0.00    +0.011 C 
ATOM     28  C   UNL     1       8.746   0.071   1.168  0.00  0.00    -0.010 C 
ATOM     29  C   UNL     1       9.896   1.081   1.163  0.00  0.00    +0.007 C 
ATOM     30  C   UNL     1       9.791   1.966  -0.081  0.00  0.00    -0.010 C 
ATOM     31  C   UNL     1       8.456   2.713  -0.064  0.00  0.00    +0.011 C 
ATOM     32  C   UNL     1       9.872   1.094  -1.336  0.00  0.00    +0.007 C 
ATOM     33  C   UNL     1       8.723   0.084  -1.330  0.00  0.00    -0.010 C 
ATOM     34  C   UNL     1       8.827  -0.801  -0.086  0.00  0.00    +0.007 C 
ATOM     35  C   UNL     1       7.387   0.831  -1.313  0.00  0.00    +0.011 C 
ENDBRANCH  25  26
ENDBRANCH  22  25
ENDBRANCH  20  21
ENDBRANCH   2  20
TORSDOF 8
