REMARK  Name = ZINC12412662
REMARK  11 active torsions:
REMARK  status: ('A' for Active; 'I' for Inactive)
REMARK    1  A    between atoms: C_1  and  C_2
REMARK    2  A    between atoms: C_2  and  O_3
REMARK    3  A    between atoms: O_3  and  C_4
REMARK    4  A    between atoms: C_4  and  C_6
REMARK    5  A    between atoms: C_7  and  C_33
REMARK    6  A    between atoms: C_11  and  C_13
REMARK    7  A    between atoms: C_15  and  C_18
REMARK    8  A    between atoms: C_18  and  S_19
REMARK    9  A    between atoms: S_19  and  C_20
REMARK   10  A    between atoms: C_29  and  C_31
REMARK   11  A    between atoms: C_29  and  C_32
REMARK                            x       y       z     vdW  Elec       q    Type
REMARK                         _______ _______ _______ _____ _____    ______ ____
ROOT
ATOM      1  C   UNL     1      -0.682  -0.490  -1.240  0.00  0.00    +0.154 C 
ATOM      2  C   UNL     1      -1.934  -0.976  -1.203  0.00  0.00    +0.031 C 
ATOM      3  N   UNL     1      -2.617  -1.043  -0.021  0.00  0.00    -0.260 NA
ATOM      4  C   UNL     1      -1.947  -1.006   1.173  0.00  0.00    +0.049 C 
ATOM      5  C   UNL     1      -0.692  -0.515   1.240  0.00  0.00    +0.025 C 
ATOM      6  C   UNL     1       0.002  -0.004   0.002  0.00  0.00    +0.080 C 
ATOM      7  C   UNL     1       0.005  -0.466   2.460  0.00  0.00    +0.162 C 
ATOM      8  O   UNL     1       1.139  -0.031   2.483  0.00  0.00    -0.292 OA
ATOM      9  C   UNL     1      -0.629  -0.943   3.738  0.00  0.00    +0.086 C 
ATOM     10  C   UNL     1      -2.148  -0.767   3.637  0.00  0.00    -0.023 C 
ATOM     11  C   UNL     1      -2.645  -1.525   2.406  0.00  0.00    +0.062 C 
ATOM     12  C   UNL     1      -2.485   0.719   3.494  0.00  0.00    +0.011 C 
ATOM     13  C   UNL     1      -2.820  -1.327   4.893  0.00  0.00    +0.011 C 
ATOM     14  C   UNL     1      -2.591  -1.452  -2.474  0.00  0.00    +0.061 C 
ENDROOT
BRANCH   6  15
ATOM     15  C   UNL     1      -0.019   1.503   0.010  0.00  0.00    -0.001 A 
ATOM     16  C   UNL     1       1.023   2.371   0.005  0.00  0.00    +0.016 A 
ATOM     17  C   UNL     1       0.763   3.729   0.014  0.00  0.00    -0.030 A 
ATOM     18  C   UNL     1      -0.524   4.152   0.028  0.00  0.00    +0.050 A 
ATOM     19  S   UNL     1      -1.421   2.608   0.021  0.00  0.00    -0.101 S 
BRANCH  17  20
ATOM     20  C   UNL     1       1.896   4.723   0.009  0.00  0.00    +0.112 C 
BRANCH  20  21
ATOM     21  S   UNL     1       2.335   5.131  -1.703  0.00  0.00    -0.092 S 
BRANCH  21  22
ATOM     22  C   UNL     1       3.654   6.288  -1.541  0.00  0.00    +0.160 A 
ATOM     23  N   UNL     1       4.216   6.767  -0.448  0.00  0.00    -0.133 NA
ATOM     24  N   UNL     1       5.247   7.673  -0.549  0.00  0.00    -0.125 NA
ATOM     25  C   UNL     1       5.668   8.058  -1.738  0.00  0.00    +0.180 A 
ATOM     26  S   UNL     1       4.593   7.119  -2.813  0.00  0.00    -0.025 S 
ATOM     27  N   UNL     1       6.681   8.951  -2.067  0.00  0.00    -0.336 N 
ATOM     28  H   UNL     1       7.188   9.388  -1.366  0.00  0.00    +0.144 HD
ATOM     29  H   UNL     1       6.880   9.137  -2.998  0.00  0.00    +0.144 HD
ENDBRANCH  21  22
ENDBRANCH  20  21
ENDBRANCH  17  20
ENDBRANCH   6  15
BRANCH   1  30
ATOM     30  C   UNL     1       0.007  -0.440  -2.475  0.00  0.00    +0.317 C 
ATOM     31  O   UNL     1      -0.535  -0.836  -3.490  0.00  0.00    -0.250 OA
BRANCH  30  32
ATOM     32  O   UNL     1       1.265   0.045  -2.527  0.00  0.00    -0.464 OA
BRANCH  32  34
ATOM     33  C   UNL     1       3.309   0.646  -3.667  0.00  0.00    +0.048 C 
ATOM     34  C   UNL     1       1.900   0.066  -3.807  0.00  0.00    +0.229 C 
ENDBRANCH  32  34
ENDBRANCH  30  32
ENDBRANCH   1  30
TORSDOF 7
