REMARK  Name = ZINC06177922
REMARK  10 active torsions:
REMARK  status: ('A' for Active; 'I' for Inactive)
REMARK    1  A    between atoms: C_1  and  C_2
REMARK    2  A    between atoms: C_4  and  C_40
REMARK    3  A    between atoms: C_9  and  C_14
REMARK    4  A    between atoms: C_14  and  C_16
REMARK    5  A    between atoms: C_14  and  N_72
REMARK    6  A    between atoms: N_20  and  C_21
REMARK    7  A    between atoms: C_27  and  C_28
REMARK    8  A    between atoms: C_27  and  N_72
REMARK    9  A    between atoms: C_34  and  C_35
REMARK   10  A    between atoms: C_34  and  N_72
REMARK                            x       y       z     vdW  Elec       q    Type
REMARK                         _______ _______ _______ _____ _____    ______ ____
ROOT
ATOM      1  C   UNL     1      -2.374   4.440   0.144  0.00  0.00    +0.040 C 
ENDROOT
BRANCH   1  10
ATOM      2  C   UNL     1       2.382  -1.204   1.213  0.00  0.00    +0.044 C 
ATOM      3  C   UNL     1       2.086   0.273   1.156  0.00  0.00    -0.050 A 
ATOM      4  C   UNL     1       3.101   1.188   1.402  0.00  0.00    +0.008 A 
ATOM      5  C   UNL     1       2.854   2.543   1.355  0.00  0.00    -0.026 A 
ATOM      6  C   UNL     1       1.574   3.001   1.059  0.00  0.00    +0.052 A 
ATOM      7  C   UNL     1       0.547   2.070   0.811  0.00  0.00    -0.001 A 
ATOM      8  C   UNL     1       0.822   0.699   0.864  0.00  0.00    +0.013 A 
ATOM      9  C   UNL     1      -0.798   2.561   0.506  0.00  0.00    +0.017 A 
ATOM     10  C   UNL     1      -1.003   3.901   0.462  0.00  0.00    +0.011 A 
ATOM     11  C   UNL     1       0.061   4.792   0.719  0.00  0.00    +0.251 A 
ATOM     12  O   UNL     1      -0.147   5.992   0.680  0.00  0.00    -0.268 OA
ATOM     13  N   UNL     1       1.298   4.350   1.005  0.00  0.00    -0.322 N 
ATOM     14  H   UNL     1       2.006   4.990   1.176  0.00  0.00    +0.169 HD
ATOM     15  C   UNL     1       3.965   3.525   1.624  0.00  0.00    +0.046 C 
ENDBRANCH   1  10
BRANCH   1  16
ATOM     16  C   UNL     1      -2.918   5.170   1.346  0.00  0.00    +0.143 A 
ATOM     17  N   UNL     1      -2.556   6.355   1.772  0.00  0.00    -0.115 NA
ATOM     18  N   UNL     1      -3.249   6.630   2.822  0.00  0.00    -0.023 NA
ATOM     19  N   UNL     1      -4.045   5.650   3.078  0.00  0.00    -0.044 NA
ATOM     20  N   UNL     1      -3.874   4.733   2.187  0.00  0.00    -0.227 N 
BRANCH  20  21
ATOM     21  C   UNL     1      -4.585   3.454   2.107  0.00  0.00    +0.111 C 
ATOM     22  C   UNL     1      -6.085   3.713   1.950  0.00  0.00    +0.027 C 
ATOM     23  C   UNL     1      -6.827   2.378   1.866  0.00  0.00    +0.002 C 
ATOM     24  C   UNL     1      -6.579   1.576   3.145  0.00  0.00    +0.000 C 
ATOM     25  C   UNL     1      -5.080   1.317   3.302  0.00  0.00    +0.002 C 
ATOM     26  C   UNL     1      -4.337   2.652   3.386  0.00  0.00    +0.027 C 
ENDBRANCH  20  21
ENDBRANCH   1  16
BRANCH   1  27
ATOM     27  N   UNL     1      -2.272   5.391  -0.983  0.00  0.00    +0.397 N 
ATOM     28  H   UNL     1      -1.802   6.244  -0.658  0.00  0.00    -0.079 HD
BRANCH  27  29
ATOM     29  C   UNL     1      -1.478   4.793  -2.077  0.00  0.00    -0.039 C 
BRANCH  29  30
ATOM     30  C   UNL     1      -1.066   5.886  -3.029  0.00  0.00    -0.046 A 
ATOM     31  C   UNL     1      -1.896   6.255  -4.076  0.00  0.00    +0.005 A 
ATOM     32  C   UNL     1      -1.478   7.269  -4.924  0.00  0.00    +0.020 A 
ATOM     33  C   UNL     1      -0.251   7.868  -4.704  0.00  0.00    +0.111 A 
ATOM     34  N   UNL     1       0.515   7.487  -3.701  0.00  0.00    -0.263 NA
ATOM     35  C   UNL     1       0.147   6.530  -2.872  0.00  0.00    +0.112 A 
ENDBRANCH  29  30
ENDBRANCH  27  29
BRANCH  27  36
ATOM     36  C   UNL     1      -3.622   5.742  -1.471  0.00  0.00    -0.001 C 
BRANCH  36  37
ATOM     37  C   UNL     1      -4.299   4.535  -2.067  0.00  0.00    +0.089 A 
ATOM     38  C   UNL     1      -5.139   3.706  -1.423  0.00  0.00    +0.042 A 
ATOM     39  C   UNL     1      -5.535   2.719  -2.354  0.00  0.00    +0.041 A 
ATOM     40  C   UNL     1      -4.913   3.004  -3.512  0.00  0.00    +0.195 A 
ATOM     41  O   UNL     1      -4.170   4.108  -3.334  0.00  0.00    -0.470 OA
ENDBRANCH  36  37
ENDBRANCH  27  36
ENDBRANCH   1  27
TORSDOF 8
