REMARK  Name = ZINC63930775
REMARK  6 active torsions:
REMARK  status: ('A' for Active; 'I' for Inactive)
REMARK    1  A    between atoms: C_7  and  C_10
REMARK    2  A    between atoms: C_13  and  S_22
REMARK    3  A    between atoms: N_14  and  C_15
REMARK    4  A    between atoms: S_22  and  C_23
REMARK    5  A    between atoms: C_23  and  C_24
REMARK    6  A    between atoms: N_26  and  C_27
REMARK                            x       y       z     vdW  Elec       q    Type
REMARK                         _______ _______ _______ _____ _____    ______ ____
ROOT
ATOM      1  C   UNL     1       0.681  -3.135   0.077  0.00  0.00    +0.168 A 
ATOM      2  N   UNL     1      -0.643  -3.071   0.072  0.00  0.00    -0.128 NA
ATOM      3  N   UNL     1      -1.137  -4.257   0.055  0.00  0.00    -0.122 NA
ATOM      4  C   UNL     1      -0.164  -5.156   0.048  0.00  0.00    +0.197 A 
ATOM      5  N   UNL     1       1.019  -4.479   0.057  0.00  0.00    -0.270 N 
ENDROOT
BRANCH   1  12
ATOM      6  C   UNL     1      -0.006   1.349   0.144  0.00  0.00    +0.001 A 
ATOM      7  C   UNL     1       1.174   2.095   0.156  0.00  0.00    +0.002 A 
ATOM      8  C   UNL     1       2.394   1.504   0.147  0.00  0.00    +0.026 A 
ATOM      9  C   UNL     1       2.492   0.088   0.126  0.00  0.00    +0.043 A 
ATOM     10  N   UNL     1       3.539  -0.713   0.114  0.00  0.00    -0.380 N 
ATOM     11  C   UNL     1       3.082  -2.106   0.093  0.00  0.00    +0.152 C 
ATOM     12  C   UNL     1       1.570  -2.050   0.094  0.00  0.00    +0.025 C 
ATOM     13  C   UNL     1       1.245  -0.693   0.115  0.00  0.00    +0.006 A 
ATOM     14  C   UNL     1       0.011  -0.009   0.124  0.00  0.00    +0.010 A 
ATOM     15  H   UNL     1       4.466  -0.426   0.119  0.00  0.00    +0.160 HD
ENDBRANCH   1  12
BRANCH   5  16
ATOM     16  C   UNL     1       2.309  -5.027   0.049  0.00  0.00    +0.051 A 
ATOM     17  C   UNL     1       3.150  -4.810  -1.034  0.00  0.00    +0.028 A 
ATOM     18  C   UNL     1       4.420  -5.351  -1.039  0.00  0.00    +0.022 A 
ATOM     19  C   UNL     1       4.856  -6.109   0.034  0.00  0.00    +0.041 A 
ATOM     20  C   UNL     1       4.019  -6.327   1.114  0.00  0.00    +0.022 A 
ATOM     21  C   UNL     1       2.750  -5.782   1.127  0.00  0.00    +0.028 A 
ATOM     22 CL   UNL     1       6.453  -6.788   0.024  0.00  0.00    -0.084 Cl
ENDBRANCH   5  16
BRANCH   4  23
ATOM     23  S   UNL     1      -0.362  -6.907   0.026  0.00  0.00    -0.076 S 
BRANCH  23  24
ATOM     24  C   UNL     1      -2.160  -7.145   0.013  0.00  0.00    +0.173 C 
BRANCH  24  25
ATOM     25  C   UNL     1      -2.472  -8.619  -0.006  0.00  0.00    +0.228 C 
ATOM     26  O   UNL     1      -1.570  -9.430  -0.012  0.00  0.00    -0.275 OA
ATOM     27  N   UNL     1      -3.754  -9.037  -0.018  0.00  0.00    -0.282 N 
ATOM     28  H   UNL     1      -4.475  -8.391   0.049  0.00  0.00    +0.155 HD
BRANCH  27  29
ATOM     29  C   UNL     1      -4.044 -10.402  -0.126  0.00  0.00    +0.071 A 
ATOM     30  C   UNL     1      -3.208 -11.350   0.457  0.00  0.00    +0.028 A 
ATOM     31  C   UNL     1      -3.536 -12.690   0.322  0.00  0.00    +0.022 A 
ATOM     32  C   UNL     1      -4.675 -13.039  -0.380  0.00  0.00    +0.112 A 
ATOM     33  N   UNL     1      -5.447 -12.117  -0.921  0.00  0.00    -0.242 NA
ATOM     34  C   UNL     1      -5.174 -10.831  -0.812  0.00  0.00    +0.150 A 
ATOM     35 CL   UNL     1      -6.233  -9.663  -1.539  0.00  0.00    -0.060 Cl
ENDBRANCH  27  29
ENDBRANCH  24  25
ENDBRANCH  23  24
ENDBRANCH   4  23
TORSDOF 6
