REMARK  Name = ZINC35018161
REMARK  16 active torsions:
REMARK  status: ('A' for Active; 'I' for Inactive)
REMARK    1  A    between atoms: C_1  and  C_2
REMARK    2  A    between atoms: C_2  and  C_3
REMARK    3  A    between atoms: C_2  and  C_4
REMARK    4  A    between atoms: C_2  and  O_5
REMARK    5  A    between atoms: O_5  and  C_6
REMARK    6  A    between atoms: C_10  and  N_36
REMARK    7  A    between atoms: C_13  and  C_15
REMARK    8  A    between atoms: N_17  and  C_18
REMARK    9  A    between atoms: C_21  and  C_32
REMARK   10  A    between atoms: C_25  and  O_27
REMARK   11  A    between atoms: O_27  and  C_28
REMARK   12  A    between atoms: C_28  and  C_29
REMARK   13  A    between atoms: C_28  and  C_30
REMARK   14  A    between atoms: C_28  and  C_31
REMARK   15  A    between atoms: C_32  and  O_34
REMARK   16  A    between atoms: O_34  and  C_35
REMARK                            x       y       z     vdW  Elec       q    Type
REMARK                         _______ _______ _______ _____ _____    ______ ____
ROOT
ATOM      1  C   UNL     1       4.183   1.347  -2.875  0.00  0.00    +0.234 C 
ATOM      2  O   UNL     1       3.204   2.034  -3.081  0.00  0.00    -0.274 OA
ATOM      3  N   UNL     1       5.399   1.920  -2.781  0.00  0.00    -0.309 N 
ATOM      4  H   UNL     1       6.182   1.371  -2.617  0.00  0.00    +0.149 HD
ENDROOT
BRANCH   1  11
ATOM      5  C   UNL     1       1.952  -0.085  -1.337  0.00  0.00    +0.404 C 
ATOM      6  O   UNL     1       2.488   0.619  -0.503  0.00  0.00    -0.226 OA
ATOM      7  N   UNL     1       2.641  -0.485  -2.424  0.00  0.00    -0.257 N 
ATOM      8  C   UNL     1       2.115  -1.331  -3.511  0.00  0.00    +0.096 C 
ATOM      9  C   UNL     1       3.366  -1.995  -4.138  0.00  0.00    -0.055 C 
ATOM     10  C   UNL     1       4.405  -0.846  -4.051  0.00  0.00    +0.017 C 
ATOM     11  C   UNL     1       4.039  -0.145  -2.726  0.00  0.00    +0.163 C 
BRANCH   9  12
ATOM     12  N   UNL     1       3.116  -2.376  -5.534  0.00  0.00    +0.381 N 
ATOM     13  H   UNL     1       2.860  -1.558  -6.066  0.00  0.00    -0.090 HD
ATOM     14  H   UNL     1       3.951  -2.784  -5.926  0.00  0.00    -0.090 HD
ATOM     15  H   UNL     1       2.365  -3.049  -5.570  0.00  0.00    -0.090 HD
ENDBRANCH   9  12
BRANCH   5  16
ATOM     16  O   UNL     1       0.671  -0.465  -1.174  0.00  0.00    -0.445 OA
BRANCH  16  18
ATOM     17  C   UNL     1      -0.019   1.526   0.010  0.00  0.00    +0.055 C 
ATOM     18  C   UNL     1       0.002  -0.004   0.002  0.00  0.00    +0.107 C 
ATOM     19  C   UNL     1       0.742  -0.511   1.242  0.00  0.00    +0.055 C 
ATOM     20  C   UNL     1      -1.433  -0.534   0.013  0.00  0.00    +0.055 C 
ENDBRANCH  16  18
ENDBRANCH   5  16
ENDBRANCH   1  11
BRANCH   3  21
ATOM     21  C   UNL     1       5.539   3.371  -2.926  0.00  0.00    +0.093 C 
ATOM     22  C   UNL     1       6.843   3.868  -2.247  0.00  0.00    +0.058 C 
ATOM     23  C   UNL     1       7.143   5.156  -3.054  0.00  0.00    +0.190 C 
ATOM     24  N   UNL     1       6.750   4.834  -4.438  0.00  0.00    -0.252 N 
ATOM     25  C   UNL     1       5.748   3.754  -4.407  0.00  0.00    +0.134 C 
ATOM     26  C   UNL     1       7.225   5.432  -5.549  0.00  0.00    +0.404 C 
ATOM     27  O   UNL     1       8.050   6.319  -5.455  0.00  0.00    -0.226 OA
BRANCH  23  28
ATOM     28  C   UNL     1       8.611   5.487  -2.987  0.00  0.00    +0.328 C 
ATOM     29  O   UNL     1       9.338   5.198  -3.908  0.00  0.00    -0.249 OA
BRANCH  28  30
ATOM     30  O   UNL     1       9.112   6.102  -1.904  0.00  0.00    -0.467 OA
ATOM     31  C   UNL     1      10.512   6.385  -1.908  0.00  0.00    +0.280 C 
ENDBRANCH  28  30
ENDBRANCH  23  28
BRANCH  26  32
ATOM     32  O   UNL     1       6.785   5.046  -6.761  0.00  0.00    -0.445 OA
BRANCH  32  33
ATOM     33  C   UNL     1       7.331   5.723  -7.895  0.00  0.00    +0.107 C 
ATOM     34  C   UNL     1       8.848   5.524  -7.926  0.00  0.00    +0.055 C 
ATOM     35  C   UNL     1       6.716   5.153  -9.175  0.00  0.00    +0.055 C 
ATOM     36  C   UNL     1       7.015   7.217  -7.798  0.00  0.00    +0.055 C 
ENDBRANCH  32  33
ENDBRANCH  26  32
ENDBRANCH   3  21
TORSDOF 9
