REMARK  Name = ZINC03445093
REMARK  9 active torsions:
REMARK  status: ('A' for Active; 'I' for Inactive)
REMARK    1  A    between atoms: C_1  and  C_2
REMARK    2  A    between atoms: C_2  and  C_3
REMARK    3  A    between atoms: C_2  and  C_4
REMARK    4  A    between atoms: C_4  and  C_6
REMARK    5  A    between atoms: C_4  and  N_19
REMARK    6  A    between atoms: N_8  and  C_9
REMARK    7  A    between atoms: C_12  and  N_15
REMARK    8  A    between atoms: C_16  and  C_18
REMARK    9  A    between atoms: C_20  and  C_22
REMARK                            x       y       z     vdW  Elec       q    Type
REMARK                         _______ _______ _______ _____ _____    ______ ____
ROOT
ATOM      1  C   UNL     1       2.973  -4.105  -0.797  0.00  0.00    +0.162 C 
ENDROOT
BRANCH   1   2
ATOM      2  C   UNL     1       2.809  -2.621  -0.591  0.00  0.00    +0.238 C 
ATOM      3  O   UNL     1       3.684  -1.984  -0.044  0.00  0.00    -0.273 OA
ATOM      4  N   UNL     1       1.689  -2.002  -1.015  0.00  0.00    -0.284 N 
ATOM      5  H   UNL     1       0.950  -2.523  -1.365  0.00  0.00    +0.155 HD
BRANCH   4   6
ATOM      6  C   UNL     1       1.593  -0.606  -0.949  0.00  0.00    +0.034 A 
ATOM      7  C   UNL     1       0.741   0.073  -1.810  0.00  0.00    +0.025 A 
ATOM      8  C   UNL     1       0.646   1.449  -1.746  0.00  0.00    +0.025 A 
ATOM      9  C   UNL     1       1.405   2.154  -0.820  0.00  0.00    +0.033 A 
ATOM     10  C   UNL     1       2.257   1.476   0.040  0.00  0.00    +0.025 A 
ATOM     11  C   UNL     1       2.351   0.100  -0.024  0.00  0.00    +0.025 A 
BRANCH   9  12
ATOM     12  N   UNL     1       1.309   3.550  -0.755  0.00  0.00    -0.286 N 
ATOM     13  C   UNL     1       0.161   4.164  -1.104  0.00  0.00    +0.214 C 
ATOM     14  O   UNL     1      -0.832   3.507  -1.334  0.00  0.00    -0.276 OA
ATOM     15  C   UNL     1       0.112   5.667  -1.208  0.00  0.00    +0.109 C 
ATOM     16  H   UNL     1       2.069   4.075  -0.460  0.00  0.00    +0.155 HD
ENDBRANCH   9  12
ENDBRANCH   4   6
ENDBRANCH   1   2
BRANCH   1  17
ATOM     17  N   UNL     1       4.394  -4.420  -0.964  0.00  0.00    -0.300 N 
ATOM     18  C   UNL     1       4.763  -5.527  -1.639  0.00  0.00    +0.245 C 
ATOM     19  O   UNL     1       3.918  -6.263  -2.108  0.00  0.00    -0.270 OA
ATOM     20  H   UNL     1       5.069  -3.833  -0.590  0.00  0.00    +0.150 HD
BRANCH  18  21
ATOM     21  C   UNL     1       6.197  -5.845  -1.808  0.00  0.00    +0.037 A 
ATOM     22  C   UNL     1       7.170  -4.998  -1.275  0.00  0.00    +0.014 A 
ATOM     23  C   UNL     1       8.506  -5.303  -1.431  0.00  0.00    +0.016 A 
ATOM     24  C   UNL     1       8.883  -6.441  -2.125  0.00  0.00    +0.018 A 
ATOM     25  C   UNL     1       7.922  -7.282  -2.661  0.00  0.00    +0.016 A 
ATOM     26  C   UNL     1       6.583  -6.991  -2.506  0.00  0.00    +0.014 A 
ATOM     27 BR   UNL     1      10.717  -6.848  -2.342  0.00  0.00    -0.050 Br
ENDBRANCH  18  21
ENDBRANCH   1  17
BRANCH   1  29
ATOM     28  C   UNL     1       2.432  -6.356   0.142  0.00  0.00    +0.009 C 
ATOM     29  C   UNL     1       2.425  -4.852   0.421  0.00  0.00    +0.012 C 
ATOM     30  C   UNL     1       3.302  -4.555   1.639  0.00  0.00    +0.009 C 
ENDBRANCH   1  29
TORSDOF 6
