REMARK  Name = ZINC38222983
REMARK  12 active torsions:
REMARK  status: ('A' for Active; 'I' for Inactive)
REMARK    1  A    between atoms: C_1  and  C_2
REMARK    2  A    between atoms: C_2  and  O_3
REMARK    3  A    between atoms: O_3  and  C_4
REMARK    4  A    between atoms: C_6  and  C_14
REMARK    5  A    between atoms: C_9  and  O_10
REMARK    6  A    between atoms: O_10  and  C_11
REMARK    7  A    between atoms: C_11  and  C_12
REMARK    8  A    between atoms: C_16  and  C_25
REMARK    9  A    between atoms: C_17  and  C_24
REMARK   10  A    between atoms: N_27  and  C_28
REMARK   11  A    between atoms: C_31  and  C_35
REMARK   12  A    between atoms: C_33  and  C_34
REMARK                            x       y       z     vdW  Elec       q    Type
REMARK                         _______ _______ _______ _____ _____    ______ ____
ROOT
ATOM      1  C   UNL     1      -1.067  -6.029   0.770  0.00  0.00    +0.177 C 
ATOM      2  C   UNL     1      -1.625  -6.734  -0.438  0.00  0.00    +0.060 C 
ATOM      3  C   UNL     1      -1.239  -7.962  -0.814  0.00  0.00    +0.018 C 
ATOM      4  N   UNL     1      -0.303  -8.681  -0.111  0.00  0.00    -0.287 N 
ATOM      5  C   UNL     1       0.045  -8.216   1.150  0.00  0.00    +0.218 A 
ATOM      6  N   UNL     1      -0.309  -6.979   1.579  0.00  0.00    -0.221 N 
ATOM      7  N   UNL     1       0.191  -6.850   2.874  0.00  0.00    -0.156 NA
ATOM      8  C   UNL     1       0.807  -7.972   3.155  0.00  0.00    +0.247 A 
ATOM      9  N   UNL     1       0.716  -8.797   2.106  0.00  0.00    -0.201 NA
ATOM     10  C   UNL     1      -1.851  -8.573  -2.047  0.00  0.00    +0.061 C 
ATOM     11  H   UNL     1       0.098  -9.483  -0.481  0.00  0.00    +0.155 HD
ENDROOT
BRANCH   1  14
ATOM     12  C   UNL     1       0.358  -2.572   0.229  0.00  0.00    +0.163 A 
ATOM     13  C   UNL     1      -0.475  -3.602   0.636  0.00  0.00    +0.055 A 
ATOM     14  C   UNL     1      -0.160  -4.911   0.325  0.00  0.00    -0.014 A 
ATOM     15  C   UNL     1       0.986  -5.198  -0.393  0.00  0.00    +0.025 A 
ATOM     16  C   UNL     1       1.822  -4.175  -0.803  0.00  0.00    +0.063 A 
ATOM     17  C   UNL     1       1.508  -2.859  -0.499  0.00  0.00    +0.176 A 
ATOM     18 BR   UNL     1       3.390  -4.571  -1.784  0.00  0.00    -0.046 Br
BRANCH  12  19
ATOM     19  O   UNL     1       0.049  -1.284   0.535  0.00  0.00    -0.489 OA
BRANCH  19  21
ATOM     20  C   UNL     1      -1.223   0.421   1.681  0.00  0.00    +0.048 C 
ATOM     21  C   UNL     1      -1.089  -1.071   1.373  0.00  0.00    +0.226 C 
ENDBRANCH  19  21
ENDBRANCH  12  19
BRANCH  17  22
ATOM     22  O   UNL     1       2.326  -1.852  -0.906  0.00  0.00    -0.487 OA
BRANCH  22  23
ATOM     23  C   UNL     1       3.378  -1.470  -0.017  0.00  0.00    +0.226 C 
ATOM     24  C   UNL     1       4.186  -0.331  -0.641  0.00  0.00    +0.048 C 
ENDBRANCH  22  23
ENDBRANCH  17  22
ENDBRANCH   1  14
BRANCH   2  25
ATOM     25  C   UNL     1      -2.604  -6.069  -1.214  0.00  0.00    +0.248 C 
ATOM     26  O   UNL     1      -3.752  -5.995  -0.814  0.00  0.00    -0.270 OA
ATOM     27  N   UNL     1      -2.266  -5.516  -2.396  0.00  0.00    -0.281 N 
ATOM     28  H   UNL     1      -1.371  -5.635  -2.748  0.00  0.00    +0.155 HD
BRANCH  27  29
ATOM     29  C   UNL     1      -3.207  -4.771  -3.114  0.00  0.00    +0.037 A 
ATOM     30  C   UNL     1      -4.327  -4.259  -2.471  0.00  0.00    +0.024 A 
ATOM     31  C   UNL     1      -5.254  -3.524  -3.183  0.00  0.00    +0.005 A 
ATOM     32  C   UNL     1      -5.069  -3.298  -4.535  0.00  0.00    -0.050 A 
ATOM     33  C   UNL     1      -3.956  -3.808  -5.178  0.00  0.00    +0.008 A 
ATOM     34  C   UNL     1      -3.021  -4.538  -4.470  0.00  0.00    -0.029 A 
ATOM     35  C   UNL     1      -1.805  -5.087  -5.171  0.00  0.00    +0.045 C 
ATOM     36  C   UNL     1      -6.083  -2.496  -5.309  0.00  0.00    +0.044 C 
ENDBRANCH  27  29
ENDBRANCH   2  25
TORSDOF 7
