REMARK  Name = ZINC08274242
REMARK  10 active torsions:
REMARK  status: ('A' for Active; 'I' for Inactive)
REMARK    1  A    between atoms: C_1  and  C_2
REMARK    2  A    between atoms: C_2  and  O_3
REMARK    3  A    between atoms: O_3  and  C_4
REMARK    4  A    between atoms: C_4  and  C_6
REMARK    5  A    between atoms: C_7  and  C_15
REMARK    6  A    between atoms: C_12  and  C_14
REMARK    7  A    between atoms: C_15  and  N_53
REMARK    8  A    between atoms: C_24  and  C_26
REMARK    9  A    between atoms: C_26  and  O_28
REMARK   10  A    between atoms: O_28  and  C_29
REMARK                            x       y       z     vdW  Elec       q    Type
REMARK                         _______ _______ _______ _____ _____    ______ ____
ROOT
ATOM      1  C   UNL     1      -1.605  -1.169   0.214  0.00  0.00    -0.025 C 
ENDROOT
BRANCH   1  11
ATOM      2  C   UNL     1      -1.988  -0.657  -2.119  0.00  0.00    -0.041 C 
ATOM      3  C   UNL     1      -3.031  -0.319  -3.151  0.00  0.00    -0.061 A 
ATOM      4  C   UNL     1      -2.610   0.161  -4.383  0.00  0.00    +0.002 A 
ATOM      5  C   UNL     1      -3.531   0.479  -5.360  0.00  0.00    +0.000 A 
ATOM      6  C   UNL     1      -4.882   0.319  -5.111  0.00  0.00    +0.000 A 
ATOM      7  C   UNL     1      -5.303  -0.157  -3.886  0.00  0.00    +0.004 A 
ATOM      8  C   UNL     1      -4.378  -0.476  -2.903  0.00  0.00    -0.047 A 
ATOM      9  C   UNL     1      -4.884  -0.988  -1.579  0.00  0.00    +0.031 C 
ATOM     10  C   UNL     1      -3.746  -1.660  -0.810  0.00  0.00    +0.048 C 
ATOM     11  N   UNL     1      -2.603  -0.723  -0.783  0.00  0.00    +0.395 N 
ATOM     12  H   UNL     1      -2.941   0.211  -0.522  0.00  0.00    -0.080 HD
BRANCH  10  13
ATOM     13  C   UNL     1      -4.190  -1.951   0.600  0.00  0.00    +0.293 C 
ATOM     14  O   UNL     1      -4.051  -1.116   1.462  0.00  0.00    -0.253 OA
BRANCH  13  15
ATOM     15  O   UNL     1      -4.740  -3.139   0.898  0.00  0.00    -0.469 OA
ATOM     16  C   UNL     1      -5.145  -3.350   2.277  0.00  0.00    +0.280 C 
ENDBRANCH  13  15
ENDBRANCH  10  13
ENDBRANCH   1  11
BRANCH   1  18
ATOM     17  C   UNL     1       0.261  -2.385  -0.852  0.00  0.00    +0.072 C 
ATOM     18  C   UNL     1      -0.943  -2.443  -0.242  0.00  0.00    +0.007 C 
ATOM     19  N   UNL     1      -1.570  -3.638  -0.034  0.00  0.00    -0.274 N 
ATOM     20  C   UNL     1      -1.059  -4.819  -0.404  0.00  0.00    +0.304 C 
ATOM     21  O   UNL     1      -1.692  -5.831  -0.175  0.00  0.00    -0.253 OA
ATOM     22  N   UNL     1       0.134  -4.923  -1.023  0.00  0.00    -0.292 N 
ATOM     23  C   UNL     1       0.888  -3.689  -1.300  0.00  0.00    +0.110 C 
ATOM     24  C   UNL     1       2.254  -3.814  -0.621  0.00  0.00    +0.033 C 
ATOM     25  H   UNL     1      -2.434  -3.631   0.407  0.00  0.00    +0.156 HD
ATOM     26  H   UNL     1       0.485  -5.788  -1.283  0.00  0.00    +0.151 HD
BRANCH  17  27
ATOM     27  C   UNL     1       0.911  -1.147  -1.069  0.00  0.00    +0.338 C 
ATOM     28  O   UNL     1       0.341  -0.105  -0.803  0.00  0.00    -0.245 OA
BRANCH  27  29
ATOM     29  O   UNL     1       2.162  -1.122  -1.575  0.00  0.00    -0.462 OA
BRANCH  29  31
ATOM     30  C   UNL     1       4.164  -0.010  -2.346  0.00  0.00    +0.048 C 
ATOM     31  C   UNL     1       2.758   0.162  -1.769  0.00  0.00    +0.229 C 
ENDBRANCH  29  31
ENDBRANCH  27  29
ENDBRANCH  17  27
ENDBRANCH   1  18
TORSDOF 7
