REMARK  Name = ZINC39623720
REMARK  8 active torsions:
REMARK  status: ('A' for Active; 'I' for Inactive)
REMARK    1  A    between atoms: C_4  and  C_7
REMARK    2  A    between atoms: C_7  and  C_8
REMARK    3  A    between atoms: C_8  and  C_9
REMARK    4  A    between atoms: C_9  and  N_10
REMARK    5  A    between atoms: C_11  and  C_13
REMARK    6  A    between atoms: C_24  and  C_26
REMARK    7  A    between atoms: C_31  and  O_32
REMARK    8  A    between atoms: O_32  and  C_33
REMARK                            x       y       z     vdW  Elec       q    Type
REMARK                         _______ _______ _______ _____ _____    ______ ____
ROOT
ATOM      1  C   UNL     1       7.333  -3.205   4.778  0.00  0.00    +0.100 C 
ATOM      2  C   UNL     1       7.741  -1.800   5.273  0.00  0.00    +0.121 C 
ATOM      3  N   UNL     1       8.997  -2.019   6.028  0.00  0.00    -0.296 N 
ATOM      4  C   UNL     1       9.732  -3.033   5.235  0.00  0.00    +0.115 C 
ATOM      5  C   UNL     1       8.642  -4.011   4.754  0.00  0.00    -0.004 C 
ATOM      6  C   UNL     1       8.946  -4.483   3.335  0.00  0.00    -0.010 C 
ATOM      7  C   UNL     1      10.221  -5.331   3.346  0.00  0.00    -0.082 C 
ATOM      8  N   UNL     1      10.037  -6.483   4.237  0.00  0.00    +0.379 N 
ATOM      9  C   UNL     1       9.838  -6.022   5.616  0.00  0.00    -0.082 C 
ATOM     10  C   UNL     1       8.547  -5.203   5.701  0.00  0.00    -0.010 C 
ATOM     11  C   UNL     1       9.384  -1.430   7.177  0.00  0.00    +0.252 C 
ATOM     12  O   UNL     1      10.492  -1.646   7.628  0.00  0.00    -0.270 OA
ATOM     13  H   UNL     1       9.230  -7.010   3.940  0.00  0.00    -0.086 HD
ATOM     14  H   UNL     1      10.855  -7.072   4.195  0.00  0.00    -0.086 HD
ENDROOT
BRANCH  11  15
ATOM     15  C   UNL     1       8.463  -0.522   7.887  0.00  0.00    +0.099 A 
ATOM     16  C   UNL     1       7.583   0.301   7.174  0.00  0.00    +0.020 A 
ATOM     17  C   UNL     1       6.739   1.133   7.887  0.00  0.00    +0.021 A 
ATOM     18  C   UNL     1       6.788   1.130   9.270  0.00  0.00    +0.114 A 
ATOM     19  N   UNL     1       7.625   0.347   9.921  0.00  0.00    -0.220 NA
ATOM     20  C   UNL     1       8.449  -0.472   9.289  0.00  0.00    +0.233 A 
BRANCH  20  21
ATOM     21  O   UNL     1       9.288  -1.263   9.999  0.00  0.00    -0.437 OA
BRANCH  21  22
ATOM     22  C   UNL     1       9.313  -1.117  11.350  0.00  0.00    +0.130 A 
ATOM     23  C   UNL     1       8.314  -1.683  12.129  0.00  0.00    +0.048 A 
ATOM     24  C   UNL     1       8.341  -1.534  13.502  0.00  0.00    +0.023 A 
ATOM     25  C   UNL     1       9.364  -0.819  14.100  0.00  0.00    +0.041 A 
ATOM     26  C   UNL     1      10.360  -0.252  13.325  0.00  0.00    +0.023 A 
ATOM     27  C   UNL     1      10.340  -0.405  11.953  0.00  0.00    +0.048 A 
ATOM     28 CL   UNL     1       9.395  -0.631  15.826  0.00  0.00    -0.084 Cl
ENDBRANCH  21  22
ENDBRANCH  20  21
ENDBRANCH  11  15
BRANCH   1  30
ATOM     29  N   UNL     1       5.861  -4.056   2.982  0.00  0.00    -0.315 N 
ATOM     30  C   UNL     1       6.741  -3.123   3.395  0.00  0.00    +0.218 C 
ATOM     31  O   UNL     1       7.058  -2.217   2.653  0.00  0.00    -0.275 OA
ATOM     32  H   UNL     1       5.608  -4.780   3.575  0.00  0.00    +0.149 HD
BRANCH  29  33
ATOM     33  C   UNL     1       5.285  -3.976   1.637  0.00  0.00    +0.104 C 
BRANCH  33  34
ATOM     34  C   UNL     1       4.324  -5.147   1.423  0.00  0.00    +0.023 C 
BRANCH  34  35
ATOM     35  C   UNL     1       3.723  -5.064   0.018  0.00  0.00    +0.036 C 
BRANCH  35  39
ATOM     36  C   UNL     1       1.038  -8.331  -0.581  0.00  0.00    +0.000 A 
ATOM     37  C   UNL     1       0.571  -7.140  -0.058  0.00  0.00    +0.000 A 
ATOM     38  C   UNL     1       1.440  -6.083   0.136  0.00  0.00    +0.003 A 
ATOM     39  C   UNL     1       2.776  -6.217  -0.193  0.00  0.00    -0.047 A 
ATOM     40  C   UNL     1       3.244  -7.408  -0.715  0.00  0.00    +0.003 A 
ATOM     41  C   UNL     1       2.374  -8.465  -0.910  0.00  0.00    +0.000 A 
ENDBRANCH  35  39
ENDBRANCH  34  35
ENDBRANCH  33  34
ENDBRANCH  29  33
ENDBRANCH   1  30
TORSDOF 8
