REMARK  Name = ZINC05418259
REMARK  6 active torsions:
REMARK  status: ('A' for Active; 'I' for Inactive)
REMARK    1  A    between atoms: C_1  and  C_2
REMARK    2  A    between atoms: C_6  and  N_8
REMARK    3  A    between atoms: N_10  and  C_23
REMARK    4  A    between atoms: C_14  and  C_15
REMARK    5  A    between atoms: C_20  and  O_21
REMARK    6  A    between atoms: C_27  and  C_29
REMARK                            x       y       z     vdW  Elec       q    Type
REMARK                         _______ _______ _______ _____ _____    ______ ____
ROOT
ATOM      1  N   UNL     1       3.141   1.825  -1.591  0.00  0.00    -0.225 NA
ATOM      2  C   UNL     1       2.023   1.356  -1.084  0.00  0.00    +0.173 C 
ATOM      3  N   UNL     1       0.837   2.023  -0.858  0.00  0.00    -0.214 N 
ATOM      4  C   UNL     1      -0.202   1.393  -0.335  0.00  0.00    +0.263 C 
ATOM      5  O   UNL     1      -1.257   1.964  -0.133  0.00  0.00    -0.269 OA
ATOM      6  C   UNL     1      -0.025  -0.036  -0.015  0.00  0.00    +0.079 C 
ATOM      7  C   UNL     1      -0.911  -0.914   0.522  0.00  0.00    +0.032 C 
ATOM      8  S   UNL     1       1.668  -0.301  -0.522  0.00  0.00    -0.048 S 
ENDROOT
BRANCH   1  14
ATOM      9  C   UNL     1       6.845   0.201  -4.350  0.00  0.00    +0.044 C 
ATOM     10  C   UNL     1       6.049   0.185  -3.071  0.00  0.00    -0.048 A 
ATOM     11  C   UNL     1       6.413  -0.667  -2.042  0.00  0.00    +0.003 A 
ATOM     12  C   UNL     1       5.688  -0.689  -0.864  0.00  0.00    +0.002 A 
ATOM     13  C   UNL     1       4.596   0.139  -0.707  0.00  0.00    +0.028 A 
ATOM     14  C   UNL     1       4.223   1.001  -1.740  0.00  0.00    +0.067 A 
ATOM     15  C   UNL     1       4.956   1.014  -2.929  0.00  0.00    +0.031 A 
ENDBRANCH   1  14
BRANCH   3  16
ATOM     16  C   UNL     1       0.731   3.382  -1.184  0.00  0.00    +0.044 A 
ATOM     17  C   UNL     1      -0.076   3.783  -2.240  0.00  0.00    +0.024 A 
ATOM     18  C   UNL     1      -0.182   5.123  -2.556  0.00  0.00    +0.002 A 
ATOM     19  C   UNL     1       0.524   6.064  -1.829  0.00  0.00    +0.003 A 
ATOM     20  C   UNL     1       1.333   5.667  -0.780  0.00  0.00    -0.049 A 
ATOM     21  C   UNL     1       1.438   4.329  -0.455  0.00  0.00    +0.027 A 
ATOM     22  C   UNL     1       2.099   6.696   0.011  0.00  0.00    +0.044 C 
ENDBRANCH   3  16
BRANCH   7  23
ATOM     23  C   UNL     1      -2.214  -0.440   1.002  0.00  0.00    +0.018 A 
ATOM     24  C   UNL     1      -2.313   0.778   1.685  0.00  0.00    +0.011 A 
ATOM     25  C   UNL     1      -3.541   1.215   2.133  0.00  0.00    +0.001 A 
ATOM     26  C   UNL     1      -4.678   0.456   1.910  0.00  0.00    +0.004 A 
ATOM     27  C   UNL     1      -4.595  -0.748   1.237  0.00  0.00    +0.046 A 
ATOM     28  C   UNL     1      -3.371  -1.203   0.775  0.00  0.00    +0.124 A 
BRANCH  28  29
ATOM     29  O   UNL     1      -3.290  -2.383   0.109  0.00  0.00    -0.506 OA
ATOM     30  H   UNL     1      -3.138  -3.148   0.681  0.00  0.00    +0.292 HD
ENDBRANCH  28  29
ENDBRANCH   7  23
TORSDOF 4
