REMARK  Name = ZINC63824689
REMARK  6 active torsions:
REMARK  status: ('A' for Active; 'I' for Inactive)
REMARK    1  A    between atoms: C_1  and  C_2
REMARK    2  A    between atoms: C_2  and  C_3
REMARK    3  A    between atoms: C_3  and  C_4
REMARK    4  A    between atoms: N_6  and  C_7
REMARK    5  A    between atoms: C_8  and  C_15
REMARK    6  A    between atoms: N_17  and  C_18
REMARK                            x       y       z     vdW  Elec       q    Type
REMARK                         _______ _______ _______ _____ _____    ______ ____
ROOT
ATOM      1  C   UNL     1       1.425  -4.054  -2.252  0.00  0.00    +0.064 A 
ATOM      2  C   UNL     1       2.378  -4.709  -3.046  0.00  0.00    +0.061 A 
ATOM      3  C   UNL     1       2.489  -6.100  -2.986  0.00  0.00    +0.035 A 
ATOM      4  C   UNL     1       1.662  -6.821  -2.149  0.00  0.00    +0.043 A 
ATOM      5  C   UNL     1       0.721  -6.171  -1.366  0.00  0.00    +0.042 A 
ATOM      6  C   UNL     1       0.605  -4.795  -1.410  0.00  0.00    +0.064 A 
ATOM      7 CL   UNL     1      -0.572  -3.992  -0.419  0.00  0.00    -0.082 Cl
ATOM      8 CL   UNL     1       1.801  -8.550  -2.077  0.00  0.00    -0.083 Cl
ENDROOT
BRANCH   1  11
ATOM      9  C   UNL     1       1.349  -1.944  -1.166  0.00  0.00    +0.217 C 
ATOM     10  O   UNL     1       1.391  -2.506  -0.092  0.00  0.00    -0.275 OA
ATOM     11  N   UNL     1       1.306  -2.667  -2.303  0.00  0.00    -0.284 N 
ATOM     12  H   UNL     1       1.191  -2.221  -3.156  0.00  0.00    +0.155 HD
BRANCH   9  13
ATOM     13  C   UNL     1       1.346  -0.439  -1.229  0.00  0.00    +0.096 C 
BRANCH  13  15
ATOM     14  C   UNL     1       1.397   1.660   0.126  0.00  0.00    +0.004 C 
ATOM     15  C   UNL     1       1.400   0.131   0.190  0.00  0.00    +0.006 C 
ENDBRANCH  13  15
ENDBRANCH   9  13
ENDBRANCH   1  11
BRANCH   2  16
ATOM     16  C   UNL     1       3.259  -3.933  -3.939  0.00  0.00    +0.246 C 
ATOM     17  O   UNL     1       3.231  -2.717  -3.915  0.00  0.00    -0.270 OA
ATOM     18  N   UNL     1       4.095  -4.571  -4.782  0.00  0.00    -0.310 N 
ATOM     19  H   UNL     1       4.118  -5.540  -4.801  0.00  0.00    +0.149 HD
BRANCH  18  20
ATOM     20  C   UNL     1       4.970  -3.800  -5.669  0.00  0.00    +0.058 C 
ATOM     21  C   UNL     1       6.330  -3.517  -4.980  0.00  0.00    +0.002 C 
ATOM     22  C   UNL     1       7.379  -4.266  -5.845  0.00  0.00    -0.077 C 
ATOM     23  N   UNL     1       6.592  -5.323  -6.499  0.00  0.00    +0.383 N 
ATOM     24  C   UNL     1       5.343  -4.625  -6.904  0.00  0.00    -0.048 C 
ATOM     25  C   UNL     1       4.321  -5.688  -7.277  0.00  0.00    -0.014 C 
ATOM     26  C   UNL     1       4.867  -6.444  -8.499  0.00  0.00    -0.003 C 
ATOM     27  C   UNL     1       6.259  -7.003  -8.207  0.00  0.00    -0.019 C 
ATOM     28  C   UNL     1       7.194  -5.897  -7.694  0.00  0.00    -0.078 C 
ATOM     29  H   UNL     1       6.381  -6.054  -5.836  0.00  0.00    -0.081 HD
ENDBRANCH  18  20
ENDBRANCH   2  16
TORSDOF 5
