REMARK  Name = ZINC09487385
REMARK  5 active torsions:
REMARK  status: ('A' for Active; 'I' for Inactive)
REMARK    1  A    between atoms: C_4  and  C_7
REMARK    2  A    between atoms: C_8  and  C_26
REMARK    3  A    between atoms: C_8  and  C_30
REMARK    4  A    between atoms: N_16  and  C_19
REMARK    5  A    between atoms: C_19  and  C_20
REMARK                            x       y       z     vdW  Elec       q    Type
REMARK                         _______ _______ _______ _____ _____    ______ ____
ROOT
ATOM      1  C   UNL     1       1.397   2.246   0.220  0.00  0.00    +0.106 C 
ATOM      2  C   UNL     1       2.390   0.094   0.707  0.00  0.00    +0.264 C 
ATOM      3  C   UNL     1       1.130  -0.489   0.132  0.00  0.00    +0.098 A 
ATOM      4  C   UNL     1       1.029  -1.872  -0.098  0.00  0.00    +0.260 A 
ATOM      5  O   UNL     1       1.966  -2.608   0.159  0.00  0.00    -0.267 OA
ATOM      6  N   UNL     1      -0.114  -2.377  -0.604  0.00  0.00    -0.302 N 
ATOM      7  H   UNL     1      -0.188  -3.331  -0.764  0.00  0.00    +0.171 HD
ATOM      8  C   UNL     1      -1.153  -1.571  -0.890  0.00  0.00    +0.162 A 
ATOM      9  S   UNL     1      -2.591  -2.245  -1.530  0.00  0.00    -0.013 S 
ATOM     10  N   UNL     1      -1.078  -0.243  -0.681  0.00  0.00    -0.304 N 
ATOM     11  C   UNL     1       0.068   0.311  -0.170  0.00  0.00    +0.118 A 
ATOM     12  N   UNL     1       0.156   1.667   0.041  0.00  0.00    -0.286 N 
ATOM     13  H   UNL     1      -0.645   2.212   0.059  0.00  0.00    +0.155 HD
ATOM     14  N   UNL     1       2.516   1.585   0.533  0.00  0.00    -0.348 N 
ATOM     15  H   UNL     1       3.414   2.068   0.649  0.00  0.00    +0.162 HD
ENDROOT
BRANCH   1  19
ATOM     16  C   UNL     1       1.808   6.451  -0.236  0.00  0.00    +0.000 A 
ATOM     17  C   UNL     1       2.911   5.682   0.089  0.00  0.00    +0.001 A 
ATOM     18  C   UNL     1       2.784   4.316   0.238  0.00  0.00    +0.011 A 
ATOM     19  C   UNL     1       1.540   3.711   0.061  0.00  0.00    +0.013 A 
ATOM     20  C   UNL     1       0.432   4.491  -0.271  0.00  0.00    +0.011 A 
ATOM     21  C   UNL     1       0.571   5.857  -0.413  0.00  0.00    +0.001 A 
ENDBRANCH   1  19
BRANCH   2  22
ATOM     22  C   UNL     1       2.451  -0.223   2.202  0.00  0.00    +0.426 C 
ATOM     23  F   UNL     1       2.449  -1.610   2.385  0.00  0.00    -0.167 F 
ATOM     24  F   UNL     1       3.622   0.317   2.746  0.00  0.00    -0.167 F 
ATOM     25  F   UNL     1       1.340   0.335   2.843  0.00  0.00    -0.167 F 
ENDBRANCH   2  22
BRANCH   2  26
ATOM     26  C   UNL     1       3.597  -0.537   0.011  0.00  0.00    +0.426 C 
ATOM     27  F   UNL     1       3.368  -0.585  -1.368  0.00  0.00    -0.167 F 
ATOM     28  F   UNL     1       4.738   0.231   0.268  0.00  0.00    -0.167 F 
ATOM     29  F   UNL     1       3.790  -1.835   0.497  0.00  0.00    -0.167 F 
ENDBRANCH   2  26
BRANCH  10  30
ATOM     30  C   UNL     1      -2.224   0.612  -1.001  0.00  0.00    +0.160 C 
BRANCH  30  31
ATOM     31  C   UNL     1      -2.115   1.084  -2.428  0.00  0.00    -0.025 A 
ATOM     32  C   UNL     1      -1.458   2.265  -2.737  0.00  0.00    +0.025 A 
ATOM     33  C   UNL     1      -1.375   2.664  -4.058  0.00  0.00    +0.111 A 
ATOM     34  N   UNL     1      -1.920   1.941  -5.016  0.00  0.00    -0.263 NA
ATOM     35  C   UNL     1      -2.557   0.815  -4.759  0.00  0.00    +0.111 A 
ATOM     36  C   UNL     1      -2.676   0.351  -3.463  0.00  0.00    +0.025 A 
ENDBRANCH  30  31
ENDBRANCH  10  30
TORSDOF 5
