REMARK  Name = ZINC22539750
REMARK  14 active torsions:
REMARK  status: ('A' for Active; 'I' for Inactive)
REMARK    1  A    between atoms: C_1  and  C_2
REMARK    2  A    between atoms: C_4  and  C_37
REMARK    3  A    between atoms: C_5  and  C_9
REMARK    4  A    between atoms: C_7  and  C_8
REMARK    5  A    between atoms: C_9  and  C_11
REMARK    6  A    between atoms: C_9  and  N_12
REMARK    7  A    between atoms: C_13  and  C_15
REMARK    8  A    between atoms: C_15  and  C_17
REMARK    9  A    between atoms: C_15  and  N_24
REMARK   10  A    between atoms: C_17  and  C_18
REMARK   11  A    between atoms: N_24  and  S_25
REMARK   12  A    between atoms: S_25  and  C_28
REMARK   13  A    between atoms: C_33  and  O_34
REMARK   14  A    between atoms: O_34  and  C_35
REMARK                            x       y       z     vdW  Elec       q    Type
REMARK                         _______ _______ _______ _____ _____    ______ ____
ROOT
ATOM      1  C   UNL     1      -1.262   2.889  -0.487  0.00  0.00    +0.166 C 
ENDROOT
BRANCH   1   3
ATOM      2  N   UNL     1      -0.403   0.792   0.505  0.00  0.00    -0.307 N 
ATOM      3  C   UNL     1      -0.177   2.079   0.175  0.00  0.00    +0.232 C 
ATOM      4  O   UNL     1       0.901   2.584   0.406  0.00  0.00    -0.274 OA
ATOM      5  H   UNL     1      -1.381   0.333   0.295  0.00  0.00    +0.149 HD
BRANCH   2   6
ATOM      6  C   UNL     1       0.654   0.003   1.143  0.00  0.00    +0.100 C 
ATOM      7  C   UNL     1       0.661   0.283   2.647  0.00  0.00    +0.033 C 
BRANCH   6  12
ATOM      8  C   UNL     1      -0.324  -5.620   0.234  0.00  0.00    +0.044 C 
ATOM      9  C   UNL     1      -0.069  -4.153   0.472  0.00  0.00    -0.047 A 
ATOM     10  C   UNL     1       1.222  -3.700   0.671  0.00  0.00    +0.007 A 
ATOM     11  C   UNL     1       1.455  -2.355   0.888  0.00  0.00    -0.045 A 
ATOM     12  C   UNL     1       0.399  -1.463   0.906  0.00  0.00    -0.024 A 
ATOM     13  C   UNL     1      -0.892  -1.918   0.713  0.00  0.00    +0.009 A 
ATOM     14  C   UNL     1      -1.126  -3.262   0.490  0.00  0.00    -0.047 A 
ATOM     15  C   UNL     1      -2.532  -3.757   0.273  0.00  0.00    +0.044 C 
ATOM     16  C   UNL     1       2.862  -1.860   1.105  0.00  0.00    +0.044 C 
ENDBRANCH   6  12
ENDBRANCH   2   6
ENDBRANCH   1   3
BRANCH   1  17
ATOM     17  N   UNL     1      -0.773   4.246  -0.742  0.00  0.00    -0.178 NA
ATOM     18  H   UNL     1      -0.972   5.047  -0.015  0.00  0.00    +0.149 HD
BRANCH  17  19
ATOM     19  S   UNL     1      -0.140   4.634  -2.222  0.00  0.00    +0.063 S 
ATOM     20  O   UNL     1       0.259   5.995  -2.149  0.00  0.00    -0.153 OA
ATOM     21  O   UNL     1       0.764   3.592  -2.563  0.00  0.00    -0.153 OA
BRANCH  19  22
ATOM     22  C   UNL     1      -1.459   4.558  -3.388  0.00  0.00    +0.148 A 
ATOM     23  C   UNL     1      -2.012   5.723  -3.883  0.00  0.00    +0.052 A 
ATOM     24  C   UNL     1      -3.044   5.664  -4.803  0.00  0.00    +0.043 A 
ATOM     25  C   UNL     1      -3.531   4.438  -5.221  0.00  0.00    +0.024 A 
ATOM     26  C   UNL     1      -2.985   3.271  -4.724  0.00  0.00    +0.049 A 
ATOM     27  C   UNL     1      -1.946   3.328  -3.806  0.00  0.00    +0.146 A 
ATOM     28 CL   UNL     1      -3.732   7.130  -5.429  0.00  0.00    -0.083 Cl
BRANCH  27  29
ATOM     29  O   UNL     1      -1.408   2.181  -3.315  0.00  0.00    -0.493 OA
ATOM     30  C   UNL     1      -1.881   0.952  -3.872  0.00  0.00    +0.277 C 
ENDBRANCH  27  29
ENDBRANCH  19  22
ENDBRANCH  17  19
ENDBRANCH   1  17
BRANCH   1  31
ATOM     31  C   UNL     1      -2.485   2.951   0.431  0.00  0.00    +0.065 C 
BRANCH  31  32
ATOM     32  C   UNL     1      -3.596   3.697  -0.261  0.00  0.00    -0.045 A 
ATOM     33  C   UNL     1      -3.660   5.075  -0.176  0.00  0.00    +0.004 A 
ATOM     34  C   UNL     1      -4.677   5.760  -0.815  0.00  0.00    +0.000 A 
ATOM     35  C   UNL     1      -5.635   5.066  -1.531  0.00  0.00    +0.000 A 
ATOM     36  C   UNL     1      -5.573   3.688  -1.611  0.00  0.00    +0.000 A 
ATOM     37  C   UNL     1      -4.553   3.003  -0.977  0.00  0.00    +0.004 A 
ENDBRANCH  31  32
ENDBRANCH   1  31
TORSDOF 9
