REMARK  Name = ZINC09951372
REMARK  15 active torsions:
REMARK  status: ('A' for Active; 'I' for Inactive)
REMARK    1  A    between atoms: C_1  and  C_2
REMARK    2  A    between atoms: C_2  and  O_3
REMARK    3  A    between atoms: O_3  and  C_4
REMARK    4  A    between atoms: C_4  and  C_6
REMARK    5  A    between atoms: C_7  and  C_30
REMARK    6  A    between atoms: C_8  and  C_26
REMARK    7  A    between atoms: C_10  and  N_11
REMARK    8  A    between atoms: C_12  and  C_14
REMARK    9  A    between atoms: C_14  and  N_58
REMARK   10  A    between atoms: C_15  and  C_17
REMARK   11  A    between atoms: C_15  and  C_23
REMARK   12  A    between atoms: C_15  and  N_58
REMARK   13  A    between atoms: C_23  and  C_24
REMARK   14  A    between atoms: C_23  and  C_25
REMARK   15  A    between atoms: N_28  and  C_29
REMARK                            x       y       z     vdW  Elec       q    Type
REMARK                         _______ _______ _______ _____ _____    ______ ____
ROOT
ATOM      1  N   UNL     1      -1.117   5.365  -0.021  0.00  0.00    -0.281 N 
ATOM      2  C   UNL     1      -2.452   5.537   0.041  0.00  0.00    +0.201 C 
ATOM      3  O   UNL     1      -3.186   4.573   0.096  0.00  0.00    -0.278 OA
ATOM      4  H   UNL     1      -0.530   6.136  -0.065  0.00  0.00    +0.155 HD
ENDROOT
BRANCH   1   9
ATOM      5  C   UNL     1       0.760   3.708  -0.080  0.00  0.00    +0.091 A 
ATOM      6  C   UNL     1       1.046   2.350  -0.067  0.00  0.00    -0.015 A 
ATOM      7  C   UNL     1      -0.007   1.480   0.002  0.00  0.00    +0.079 A 
ATOM      8  S   UNL     1      -1.416   2.571   0.042  0.00  0.00    -0.068 S 
ATOM      9  C   UNL     1      -0.584   4.090  -0.021  0.00  0.00    +0.087 A 
ATOM     10  C   UNL     1       2.467   1.852  -0.126  0.00  0.00    +0.046 C 
BRANCH   7  11
ATOM     11  C   UNL     1       0.016   0.016   0.030  0.00  0.00    +0.251 C 
ATOM     12  O   UNL     1       1.079  -0.576  -0.010  0.00  0.00    -0.270 OA
ATOM     13  N   UNL     1      -1.138  -0.675   0.100  0.00  0.00    -0.314 N 
ATOM     14  C   UNL     1      -1.115  -2.140   0.128  0.00  0.00    +0.128 C 
ATOM     15  H   UNL     1      -1.985  -0.203   0.132  0.00  0.00    +0.149 HD
ENDBRANCH   7  11
BRANCH   5  16
ATOM     16  C   UNL     1       1.832   4.708  -0.151  0.00  0.00    +0.342 C 
ATOM     17  O   UNL     1       2.224   5.101  -1.233  0.00  0.00    -0.245 OA
BRANCH  16  18
ATOM     18  O   UNL     1       2.381   5.190   0.982  0.00  0.00    -0.461 OA
BRANCH  18  20
ATOM     19  C   UNL     1       3.931   6.604   2.218  0.00  0.00    +0.048 C 
ATOM     20  C   UNL     1       3.436   6.177   0.835  0.00  0.00    +0.229 C 
ENDBRANCH  18  20
ENDBRANCH  16  18
ENDBRANCH   5  16
ENDBRANCH   1   9
BRANCH   2  21
ATOM     21  C   UNL     1      -3.033   6.927   0.042  0.00  0.00    +0.016 C 
BRANCH  21  22
ATOM     22  N   UNL     1      -4.504   6.836   0.116  0.00  0.00    +0.389 N 
ATOM     23  H   UNL     1      -4.769   6.292   0.945  0.00  0.00    -0.084 HD
ATOM     24  H   UNL     1      -4.856   6.368  -0.728  0.00  0.00    -0.084 HD
BRANCH  22  25
ATOM     25  C   UNL     1      -5.096   8.184   0.208  0.00  0.00    -0.038 C 
BRANCH  25  26
ATOM     26  C   UNL     1      -5.051   8.656   1.639  0.00  0.00    -0.061 A 
ATOM     27  C   UNL     1      -5.321   7.772   2.667  0.00  0.00    +0.002 A 
ATOM     28  C   UNL     1      -5.275   8.204   3.979  0.00  0.00    +0.000 A 
ATOM     29  C   UNL     1      -4.970   9.522   4.263  0.00  0.00    +0.000 A 
ATOM     30  C   UNL     1      -4.705  10.407   3.235  0.00  0.00    +0.000 A 
ATOM     31  C   UNL     1      -4.747   9.974   1.922  0.00  0.00    +0.002 A 
ENDBRANCH  25  26
BRANCH  25  32
ATOM     32  C   UNL     1      -6.550   8.127  -0.265  0.00  0.00    -0.027 C 
ATOM     33  C   UNL     1      -7.150   9.534  -0.241  0.00  0.00    +0.006 C 
ATOM     34  C   UNL     1      -6.601   7.574  -1.690  0.00  0.00    +0.006 C 
ENDBRANCH  25  32
ENDBRANCH  22  25
ENDBRANCH  21  22
ENDBRANCH   2  21
TORSDOF 10
