REMARK  Name = ZINC14643215
REMARK  11 active torsions:
REMARK  status: ('A' for Active; 'I' for Inactive)
REMARK    1  A    between atoms: C_1  and  C_2
REMARK    2  A    between atoms: C_5  and  O_9
REMARK    3  A    between atoms: O_9  and  C_10
REMARK    4  A    between atoms: C_10  and  C_11
REMARK    5  A    between atoms: N_13  and  N_14
REMARK    6  A    between atoms: C_15  and  C_17
REMARK    7  A    between atoms: C_17  and  C_19
REMARK    8  A    between atoms: C_17  and  O_20
REMARK    9  A    between atoms: O_20  and  C_21
REMARK   10  A    between atoms: C_22  and  C_29
REMARK   11  A    between atoms: C_26  and  C_27
REMARK                            x       y       z     vdW  Elec       q    Type
REMARK                         _______ _______ _______ _____ _____    ______ ____
ROOT
ATOM      1  N   UNL     1       0.803   7.424   0.896  0.00  0.00    -0.231 N 
ATOM      2  C   UNL     1       2.057   7.671   0.470  0.00  0.00    +0.270 C 
ATOM      3  O   UNL     1       2.680   6.809  -0.113  0.00  0.00    -0.270 OA
ATOM      4  H   UNL     1       0.304   8.114   1.362  0.00  0.00    +0.173 HD
ENDROOT
BRANCH   1   7
ATOM      5  C   UNL     1      -1.037   5.926   1.093  0.00  0.00    +0.267 C 
ATOM      6  O   UNL     1      -1.659   6.788   1.676  0.00  0.00    -0.271 OA
ATOM      7  N   UNL     1       0.218   6.172   0.666  0.00  0.00    -0.231 N 
ATOM      8  H   UNL     1       0.716   5.482   0.200  0.00  0.00    +0.173 HD
BRANCH   5   9
ATOM      9  C   UNL     1      -1.665   4.579   0.846  0.00  0.00    +0.326 C 
BRANCH   9  10
ATOM     10  O   UNL     1      -2.988   4.564   1.388  0.00  0.00    -0.482 OA
BRANCH  10  15
ATOM     11  C   UNL     1      -5.932  -0.204   0.813  0.00  0.00    +0.044 C 
ATOM     12  C   UNL     1      -5.145   1.071   0.967  0.00  0.00    -0.049 A 
ATOM     13  C   UNL     1      -3.859   1.154   0.464  0.00  0.00    +0.007 A 
ATOM     14  C   UNL     1      -3.135   2.322   0.604  0.00  0.00    +0.047 A 
ATOM     15  C   UNL     1      -3.699   3.413   1.248  0.00  0.00    +0.135 A 
ATOM     16  C   UNL     1      -4.987   3.327   1.756  0.00  0.00    +0.060 A 
ATOM     17  C   UNL     1      -5.709   2.157   1.610  0.00  0.00    +0.022 A 
ATOM     18 BR   UNL     1      -5.757   4.810   2.642  0.00  0.00    -0.047 Br
ENDBRANCH  10  15
ENDBRANCH   9  10
ENDBRANCH   5   9
ENDBRANCH   1   7
BRANCH   2  19
ATOM     19  C   UNL     1       2.686   9.018   0.717  0.00  0.00    +0.257 C 
ATOM     20  C   UNL     1       2.863   9.230   2.222  0.00  0.00    +0.062 C 
BRANCH  19  21
ATOM     21  O   UNL     1       3.962   9.073   0.075  0.00  0.00    -0.479 OA
BRANCH  21  22
ATOM     22  C   UNL     1       4.395  10.295  -0.333  0.00  0.00    +0.127 A 
ATOM     23  C   UNL     1       3.962  10.817  -1.543  0.00  0.00    -0.007 A 
ATOM     24  C   UNL     1       4.400  12.061  -1.954  0.00  0.00    +0.022 A 
ATOM     25  C   UNL     1       5.277  12.782  -1.163  0.00  0.00    +0.019 A 
ATOM     26  C   UNL     1       5.713  12.261   0.042  0.00  0.00    +0.022 A 
ATOM     27  C   UNL     1       5.274  11.020   0.458  0.00  0.00    -0.007 A 
ATOM     28  C   UNL     1       5.750  10.453   1.771  0.00  0.00    +0.047 C 
ATOM     29 BR   UNL     1       5.880  14.483  -1.731  0.00  0.00    -0.050 Br
ATOM     30  C   UNL     1       3.012  10.029  -2.408  0.00  0.00    +0.047 C 
ENDBRANCH  21  22
ENDBRANCH  19  21
ENDBRANCH   2  19
TORSDOF 7
