REMARK  Name = ZINC52595424
REMARK  8 active torsions:
REMARK  status: ('A' for Active; 'I' for Inactive)
REMARK    1  A    between atoms: C_3  and  C_7
REMARK    2  A    between atoms: C_7  and  N_8
REMARK    3  A    between atoms: C_9  and  C_11
REMARK    4  A    between atoms: C_16  and  O_33
REMARK    5  A    between atoms: C_18  and  N_21
REMARK    6  A    between atoms: N_22  and  C_23
REMARK    7  A    between atoms: C_26  and  S_29
REMARK    8  A    between atoms: S_29  and  N_32
REMARK                            x       y       z     vdW  Elec       q    Type
REMARK                         _______ _______ _______ _____ _____    ______ ____
ROOT
ATOM      1  C   UNL     1       5.762   3.114   2.981  0.00  0.00    +0.037 A 
ATOM      2  C   UNL     1       4.950   2.665   4.045  0.00  0.00    +0.015 A 
ATOM      3  C   UNL     1       5.308   2.842   5.335  0.00  0.00    +0.027 A 
ATOM      4  C   UNL     1       6.574   3.516   5.647  0.00  0.00    +0.047 A 
ATOM      5  N   UNL     1       7.143   3.808   6.791  0.00  0.00    -0.354 N 
ATOM      6  C   UNL     1       8.415   4.492   6.540  0.00  0.00    +0.262 C 
ATOM      7  C   UNL     1       8.552   4.583   5.036  0.00  0.00    +0.121 C 
ATOM      8  C   UNL     1       7.410   3.978   4.521  0.00  0.00    +0.026 A 
ATOM      9  C   UNL     1       6.966   3.750   3.203  0.00  0.00    +0.025 A 
ATOM     10  H   UNL     1       6.779   3.603   7.667  0.00  0.00    +0.162 HD
ENDROOT
BRANCH   1  12
ATOM     11  N   UNL     1       4.141   2.271   1.355  0.00  0.00    -0.307 N 
ATOM     12  C   UNL     1       5.314   2.890   1.593  0.00  0.00    +0.244 C 
ATOM     13  O   UNL     1       6.003   3.265   0.664  0.00  0.00    -0.270 OA
ATOM     14  H   UNL     1       3.592   1.972   2.096  0.00  0.00    +0.149 HD
BRANCH  11  15
ATOM     15  C   UNL     1       3.696   2.049  -0.023  0.00  0.00    +0.141 C 
BRANCH  15  18
ATOM     16  C   UNL     1      -0.017   1.378   0.010  0.00  0.00    +0.020 A 
ATOM     17  C   UNL     1       1.185   2.070   0.002  0.00  0.00    +0.008 A 
ATOM     18  C   UNL     1       2.365   1.343  -0.013  0.00  0.00    -0.012 A 
ATOM     19  C   UNL     1       2.305  -0.038  -0.020  0.00  0.00    +0.115 A 
ATOM     20  N   UNL     1       1.144  -0.663  -0.013  0.00  0.00    -0.263 NA
ATOM     21  C   UNL     1       0.002  -0.004   0.002  0.00  0.00    +0.111 A 
ENDBRANCH  15  18
ENDBRANCH  11  15
ENDBRANCH   1  12
BRANCH   7  22
ATOM     22  N   UNL     1       9.560   5.132   4.346  0.00  0.00    -0.148 NA
ATOM     23  N   UNL     1       9.534   5.133   3.057  0.00  0.00    -0.149 NA
BRANCH  23  24
ATOM     24  C   UNL     1      10.556   5.689   2.357  0.00  0.00    +0.086 A 
ATOM     25  C   UNL     1      11.646   6.257   3.033  0.00  0.00    +0.031 A 
ATOM     26  C   UNL     1      12.679   6.819   2.314  0.00  0.00    +0.030 A 
ATOM     27  C   UNL     1      12.643   6.823   0.930  0.00  0.00    +0.105 A 
ATOM     28  C   UNL     1      11.570   6.264   0.254  0.00  0.00    +0.030 A 
ATOM     29  C   UNL     1      10.531   5.693   0.955  0.00  0.00    +0.031 A 
BRANCH  27  30
ATOM     30  S   UNL     1      13.970   7.544   0.022  0.00  0.00    +0.056 S 
ATOM     31  O   UNL     1      13.443   7.910  -1.246  0.00  0.00    -0.153 OA
ATOM     32  O   UNL     1      14.591   8.484   0.888  0.00  0.00    -0.153 OA
BRANCH  30  33
ATOM     33  N   UNL     1      15.082   6.348  -0.254  0.00  0.00    -0.204 NA
ATOM     34  H   UNL     1      14.919   5.450   0.075  0.00  0.00    +0.144 HD
ATOM     35  H   UNL     1      15.895   6.546  -0.744  0.00  0.00    +0.144 HD
ENDBRANCH  30  33
ENDBRANCH  27  30
ENDBRANCH  23  24
ENDBRANCH   7  22
BRANCH   6  36
ATOM     36  O   UNL     1       8.390   5.801   7.113  0.00  0.00    -0.367 OA
ATOM     37  H   UNL     1       8.275   5.808   8.073  0.00  0.00    +0.212 HD
ENDBRANCH   6  36
TORSDOF 8
