REMARK  Name = ZINC08969506
REMARK  7 active torsions:
REMARK  status: ('A' for Active; 'I' for Inactive)
REMARK    1  A    between atoms: C_1  and  O_2
REMARK    2  A    between atoms: O_2  and  C_3
REMARK    3  A    between atoms: C_6  and  N_35
REMARK    4  A    between atoms: C_8  and  N_9
REMARK    5  A    between atoms: C_14  and  C_30
REMARK    6  A    between atoms: C_30  and  C_31
REMARK    7  A    between atoms: C_31  and  C_32
REMARK                            x       y       z     vdW  Elec       q    Type
REMARK                         _______ _______ _______ _____ _____    ______ ____
ROOT
ATOM      1  N   UNL     1      -2.420  -0.037   0.037  0.00  0.00    -0.206 N 
ATOM      2  C   UNL     1      -3.068   0.327   1.191  0.00  0.00    +0.229 C 
ATOM      3  O   UNL     1      -2.623   0.336   2.319  0.00  0.00    -0.275 OA
ATOM      4  C   UNL     1      -4.396   0.696   0.765  0.00  0.00    +0.073 C 
ATOM      5  C   UNL     1      -5.556   1.478   1.233  0.00  0.00    -0.057 C 
ATOM      6  C   UNL     1      -5.520   1.341  -1.175  0.00  0.00    +0.050 C 
ATOM      7  C   UNL     1      -4.099   1.367  -0.638  0.00  0.00    +0.088 C 
ATOM      8  C   UNL     1      -3.095   0.341  -1.089  0.00  0.00    +0.229 C 
ATOM      9  O   UNL     1      -2.923  -0.066  -2.218  0.00  0.00    -0.275 OA
ATOM     10  C   UNL     1      -5.854   0.060  -1.884  0.00  0.00    -0.028 A 
ATOM     11  C   UNL     1      -5.861  -1.264  -1.504  0.00  0.00    +0.004 A 
ATOM     12  C   UNL     1      -6.229  -2.245  -2.407  0.00  0.00    +0.000 A 
ATOM     13  C   UNL     1      -6.594  -1.894  -3.694  0.00  0.00    +0.002 A 
ATOM     14  C   UNL     1      -6.593  -0.570  -4.080  0.00  0.00    +0.023 A 
ATOM     15  C   UNL     1      -6.224   0.424  -3.176  0.00  0.00    +0.036 A 
ATOM     16  N   UNL     1      -6.152   1.810  -3.327  0.00  0.00    -0.286 N 
ATOM     17  C   UNL     1      -5.749   2.423  -2.198  0.00  0.00    +0.211 C 
ATOM     18  O   UNL     1      -5.599   3.616  -2.036  0.00  0.00    -0.277 OA
ATOM     19  H   UNL     1      -6.366   2.277  -4.149  0.00  0.00    +0.155 HD
ATOM     20  N   UNL     1      -6.398   1.538  -0.004  0.00  0.00    +0.394 N 
ATOM     21  H   UNL     1      -6.859   2.454  -0.066  0.00  0.00    -0.083 HD
ATOM     22  H   UNL     1      -7.110   0.798   0.025  0.00  0.00    -0.083 HD
ENDROOT
BRANCH   1  28
ATOM     23  C   UNL     1       0.002  -0.004   0.002  0.00  0.00    +0.142 A 
ATOM     24  C   UNL     1       1.210  -0.682  -0.013  0.00  0.00    +0.050 A 
ATOM     25  C   UNL     1       1.228  -2.064  -0.021  0.00  0.00    +0.036 A 
ATOM     26  C   UNL     1       0.041  -2.774  -0.014  0.00  0.00    +0.128 A 
ATOM     27  C   UNL     1      -1.168  -2.105   0.002  0.00  0.00    +0.060 A 
ATOM     28  C   UNL     1      -1.193  -0.718   0.015  0.00  0.00    +0.088 A 
BRANCH  26  29
ATOM     29  N   UNL     1       0.066  -4.254  -0.022  0.00  0.00    +0.056 N 
ATOM     30  O   UNL     1       1.130  -4.845  -0.036  0.00  0.00    -0.126 OA
ATOM     31  O   UNL     1      -0.979  -4.881  -0.016  0.00  0.00    -0.126 OA
ENDBRANCH  26  29
BRANCH  23  33
ATOM     32  C   UNL     1       1.248   2.021   0.001  0.00  0.00    +0.277 C 
ATOM     33  O   UNL     1      -0.016   1.355   0.009  0.00  0.00    -0.493 OA
ENDBRANCH  23  33
ENDBRANCH   1  28
BRANCH   5  34
ATOM     34  C   UNL     1      -5.128   2.880   1.672  0.00  0.00    -0.006 C 
BRANCH  34  35
ATOM     35  C   UNL     1      -6.330   3.618   2.265  0.00  0.00    +0.094 C 
BRANCH  35  36
ATOM     36  C   UNL     1      -5.909   4.998   2.698  0.00  0.00    +0.210 C 
ATOM     37  O   UNL     1      -4.760   5.357   2.546  0.00  0.00    -0.276 OA
ATOM     38  N   UNL     1      -6.808   5.834   3.253  0.00  0.00    -0.329 N 
ATOM     39  H   UNL     1      -7.727   5.547   3.374  0.00  0.00    +0.145 HD
ATOM     40  H   UNL     1      -6.537   6.723   3.531  0.00  0.00    +0.145 HD
ENDBRANCH  35  36
ENDBRANCH  34  35
ENDBRANCH   5  34
TORSDOF 6
