REMARK  Name = ZINC39694845
REMARK  8 active torsions:
REMARK  status: ('A' for Active; 'I' for Inactive)
REMARK    1  A    between atoms: C_1  and  C_2
REMARK    2  A    between atoms: C_4  and  C_39
REMARK    3  A    between atoms: C_6  and  C_8
REMARK    4  A    between atoms: C_8  and  N_9
REMARK    5  A    between atoms: C_10  and  C_12
REMARK    6  A    between atoms: C_23  and  C_25
REMARK    7  A    between atoms: C_30  and  O_31
REMARK    8  A    between atoms: O_31  and  C_32
REMARK                            x       y       z     vdW  Elec       q    Type
REMARK                         _______ _______ _______ _____ _____    ______ ____
ROOT
ATOM      1  C   UNL     1       2.571  -3.915   4.569  0.00  0.00    +0.100 C 
ATOM      2  C   UNL     1       3.480  -2.667   4.621  0.00  0.00    +0.121 C 
ATOM      3  N   UNL     1       3.554  -2.317   6.059  0.00  0.00    -0.296 N 
ATOM      4  C   UNL     1       3.639  -3.624   6.753  0.00  0.00    +0.115 C 
ATOM      5  C   UNL     1       2.681  -4.542   5.969  0.00  0.00    -0.004 C 
ATOM      6  C   UNL     1       1.312  -4.573   6.643  0.00  0.00    -0.010 C 
ATOM      7  C   UNL     1       1.437  -5.252   8.010  0.00  0.00    -0.082 C 
ATOM      8  N   UNL     1       1.950  -6.617   7.835  0.00  0.00    +0.379 N 
ATOM      9  C   UNL     1       3.304  -6.574   7.272  0.00  0.00    -0.082 C 
ATOM     10  C   UNL     1       3.259  -5.951   5.874  0.00  0.00    -0.010 C 
ATOM     11  C   UNL     1       3.544  -1.087   6.611  0.00  0.00    +0.252 C 
ATOM     12  O   UNL     1       3.707  -0.958   7.809  0.00  0.00    -0.270 OA
ATOM     13  H   UNL     1       1.973  -7.082   8.730  0.00  0.00    -0.086 HD
ATOM     14  H   UNL     1       1.342  -7.125   7.210  0.00  0.00    -0.086 HD
ENDROOT
BRANCH  11  15
ATOM     15  C   UNL     1       3.337   0.101   5.762  0.00  0.00    +0.099 A 
ATOM     16  C   UNL     1       3.844   0.142   4.458  0.00  0.00    +0.020 A 
ATOM     17  C   UNL     1       3.622   1.279   3.702  0.00  0.00    +0.021 A 
ATOM     18  C   UNL     1       2.914   2.334   4.251  0.00  0.00    +0.114 A 
ATOM     19  N   UNL     1       2.446   2.274   5.483  0.00  0.00    -0.220 NA
ATOM     20  C   UNL     1       2.625   1.209   6.246  0.00  0.00    +0.233 A 
BRANCH  20  21
ATOM     21  O   UNL     1       2.122   1.189   7.503  0.00  0.00    -0.437 OA
BRANCH  21  22
ATOM     22  C   UNL     1       1.524   2.317   7.969  0.00  0.00    +0.130 A 
ATOM     23  C   UNL     1       0.237   2.640   7.564  0.00  0.00    +0.048 A 
ATOM     24  C   UNL     1      -0.369   3.787   8.039  0.00  0.00    +0.023 A 
ATOM     25  C   UNL     1       0.308   4.614   8.918  0.00  0.00    +0.041 A 
ATOM     26  C   UNL     1       1.592   4.295   9.323  0.00  0.00    +0.023 A 
ATOM     27  C   UNL     1       2.199   3.145   8.855  0.00  0.00    +0.048 A 
ATOM     28 CL   UNL     1      -0.456   6.056   9.513  0.00  0.00    -0.084 Cl
ENDBRANCH  21  22
ENDBRANCH  20  21
ENDBRANCH  11  15
BRANCH   1  30
ATOM     29  N   UNL     1       0.322  -4.368   3.644  0.00  0.00    -0.311 N 
ATOM     30  C   UNL     1       1.147  -3.515   4.283  0.00  0.00    +0.218 C 
ATOM     31  O   UNL     1       0.742  -2.425   4.629  0.00  0.00    -0.275 OA
ATOM     32  H   UNL     1       0.646  -5.240   3.368  0.00  0.00    +0.149 HD
BRANCH  29  33
ATOM     33  C   UNL     1      -1.063  -3.979   3.366  0.00  0.00    +0.139 C 
BRANCH  33  39
ATOM     34  C   UNL     1      -2.377  -6.247  -0.897  0.00  0.00    +0.044 C 
ATOM     35  C   UNL     1      -2.395  -6.187   0.609  0.00  0.00    -0.050 A 
ATOM     36  C   UNL     1      -3.057  -7.162   1.331  0.00  0.00    +0.006 A 
ATOM     37  C   UNL     1      -3.073  -7.107   2.713  0.00  0.00    -0.050 A 
ATOM     38  C   UNL     1      -2.428  -6.077   3.371  0.00  0.00    +0.008 A 
ATOM     39  C   UNL     1      -1.766  -5.103   2.649  0.00  0.00    -0.030 A 
ATOM     40  C   UNL     1      -1.745  -5.160   1.268  0.00  0.00    +0.008 A 
ATOM     41  C   UNL     1      -3.795  -8.170   3.501  0.00  0.00    +0.044 C 
ENDBRANCH  33  39
ENDBRANCH  29  33
ENDBRANCH   1  30
TORSDOF 6
