REMARK  Name = ZINC26568703
REMARK  11 active torsions:
REMARK  status: ('A' for Active; 'I' for Inactive)
REMARK    1  A    between atoms: C_1  and  C_2
REMARK    2  A    between atoms: C_2  and  C_3
REMARK    3  A    between atoms: C_2  and  C_4
REMARK    4  A    between atoms: C_7  and  C_10
REMARK    5  A    between atoms: C_10  and  C_32
REMARK    6  A    between atoms: N_13  and  C_17
REMARK    7  A    between atoms: C_17  and  C_18
REMARK    8  A    between atoms: N_20  and  C_21
REMARK    9  A    between atoms: C_26  and  S_27
REMARK   10  A    between atoms: S_27  and  C_28
REMARK   11  A    between atoms: C_28  and  C_29
REMARK                            x       y       z     vdW  Elec       q    Type
REMARK                         _______ _______ _______ _____ _____    ______ ____
ROOT
ATOM      1  C   UNL     1       2.686  -1.867  -4.777  0.00  0.00    +0.135 C 
ATOM      2  C   UNL     1       3.277  -3.244  -4.550  0.00  0.00    +0.251 C 
ATOM      3  O   UNL     1       4.125  -3.552  -3.740  0.00  0.00    -0.272 OA
ATOM      4  N   UNL     1       2.664  -4.054  -5.434  0.00  0.00    -0.215 N 
ATOM      5  C   UNL     1       1.777  -3.388  -6.182  0.00  0.00    +0.310 C 
ATOM      6  O   UNL     1       1.100  -3.905  -7.049  0.00  0.00    -0.252 OA
ATOM      7  N   UNL     1       1.717  -2.082  -5.866  0.00  0.00    -0.281 N 
ATOM      8  C   UNL     1       3.770  -0.876  -5.209  0.00  0.00    +0.047 C 
ATOM      9  H   UNL     1       1.147  -1.412  -6.275  0.00  0.00    +0.152 HD
ENDROOT
BRANCH   1  13
ATOM     10  C   UNL     1       0.704  -0.482  -1.255  0.00  0.00    -0.045 A 
ATOM     11  C   UNL     1       0.210  -0.150  -2.503  0.00  0.00    +0.004 A 
ATOM     12  C   UNL     1       0.851  -0.598  -3.642  0.00  0.00    +0.006 A 
ATOM     13  C   UNL     1       1.987  -1.378  -3.535  0.00  0.00    -0.015 A 
ATOM     14  C   UNL     1       2.482  -1.710  -2.288  0.00  0.00    +0.006 A 
ATOM     15  C   UNL     1       1.843  -1.258  -1.148  0.00  0.00    +0.004 A 
BRANCH  10  17
ATOM     16  C   UNL     1      -0.021   1.536  -0.010  0.00  0.00    +0.012 C 
ATOM     17  C   UNL     1       0.005   0.006  -0.013  0.00  0.00    +0.013 C 
ATOM     18  C   UNL     1      -1.429  -0.529   0.009  0.00  0.00    +0.012 C 
ENDBRANCH  10  17
ENDBRANCH   1  13
BRANCH   4  19
ATOM     19  C   UNL     1       2.936  -5.488  -5.563  0.00  0.00    +0.214 C 
BRANCH  19  20
ATOM     20  C   UNL     1       2.017  -6.258  -4.650  0.00  0.00    +0.235 C 
ATOM     21  O   UNL     1       1.213  -5.667  -3.960  0.00  0.00    -0.274 OA
ATOM     22  N   UNL     1       2.087  -7.603  -4.600  0.00  0.00    -0.283 N 
ATOM     23  H   UNL     1       2.684  -8.079  -5.198  0.00  0.00    +0.155 HD
BRANCH  22  24
ATOM     24  C   UNL     1       1.299  -8.312  -3.684  0.00  0.00    +0.047 A 
ATOM     25  C   UNL     1       0.028  -7.859  -3.363  0.00  0.00    +0.024 A 
ATOM     26  C   UNL     1      -0.748  -8.561  -2.459  0.00  0.00    +0.002 A 
ATOM     27  C   UNL     1      -0.262  -9.715  -1.873  0.00  0.00    +0.001 A 
ATOM     28  C   UNL     1       1.004 -10.174  -2.187  0.00  0.00    +0.016 A 
ATOM     29  C   UNL     1       1.788  -9.480  -3.097  0.00  0.00    +0.030 A 
BRANCH  29  30
ATOM     30  S   UNL     1       3.398 -10.066  -3.505  0.00  0.00    -0.114 S 
BRANCH  30  31
ATOM     31  C   UNL     1       3.579 -11.575  -2.514  0.00  0.00    +0.169 C 
BRANCH  31  32
ATOM     32  C   UNL     1       4.933 -12.186  -2.772  0.00  0.00    +0.221 C 
ATOM     33  O   UNL     1       5.700 -11.655  -3.548  0.00  0.00    -0.275 OA
ATOM     34  N   UNL     1       5.291 -13.322  -2.141  0.00  0.00    -0.329 N 
ATOM     35  H   UNL     1       4.678 -13.746  -1.521  0.00  0.00    +0.145 HD
ATOM     36  H   UNL     1       6.162 -13.714  -2.307  0.00  0.00    +0.145 HD
ENDBRANCH  31  32
ENDBRANCH  30  31
ENDBRANCH  29  30
ENDBRANCH  22  24
ENDBRANCH  19  20
ENDBRANCH   4  19
TORSDOF 8
