REMARK  Name = ZINC02126248
REMARK  7 active torsions:
REMARK  status: ('A' for Active; 'I' for Inactive)
REMARK    1  A    between atoms: C_1  and  C_2
REMARK    2  A    between atoms: C_7  and  C_8
REMARK    3  A    between atoms: C_17  and  C_19
REMARK    4  A    between atoms: C_19  and  C_20
REMARK    5  A    between atoms: C_20  and  S_21
REMARK    6  A    between atoms: S_21  and  C_22
REMARK    7  A    between atoms: N_25  and  C_28
REMARK                            x       y       z     vdW  Elec       q    Type
REMARK                         _______ _______ _______ _____ _____    ______ ____
ROOT
ATOM      1  C   UNL     1       6.322   5.194  -5.726  0.00  0.00    +0.044 C 
ATOM      2  C   UNL     1       6.306   4.364  -4.468  0.00  0.00    -0.046 A 
ATOM      3  C   UNL     1       5.111   4.135  -3.810  0.00  0.00    +0.004 A 
ATOM      4  C   UNL     1       5.096   3.373  -2.655  0.00  0.00    +0.005 A 
ATOM      5  C   UNL     1       6.269   2.843  -2.164  0.00  0.00    -0.027 A 
ATOM      6  C   UNL     1       7.477   3.067  -2.817  0.00  0.00    +0.039 A 
ATOM      7  C   UNL     1       7.483   3.836  -3.979  0.00  0.00    -0.026 A 
ATOM      8  C   UNL     1       8.779   4.091  -4.704  0.00  0.00    +0.046 C 
ATOM      9  N   UNL     1       8.519   2.435  -2.136  0.00  0.00    -0.286 N 
ATOM     10  C   UNL     1       8.087   1.782  -1.040  0.00  0.00    +0.211 C 
ATOM     11  O   UNL     1       8.766   1.147  -0.261  0.00  0.00    -0.277 OA
ATOM     12  C   UNL     1       6.600   1.994  -0.970  0.00  0.00    +0.050 C 
ATOM     13  C   UNL     1       5.841   0.661  -1.000  0.00  0.00    +0.088 C 
ATOM     14  C   UNL     1       5.522   0.360   0.492  0.00  0.00    +0.073 C 
ATOM     15  C   UNL     1       6.133   1.541   1.274  0.00  0.00    -0.057 C 
ATOM     16  C   UNL     1       4.014   0.449   0.551  0.00  0.00    +0.224 C 
ATOM     17  O   UNL     1       3.342   0.288   1.546  0.00  0.00    -0.275 OA
ATOM     18  N   UNL     1       3.538   0.733  -0.667  0.00  0.00    -0.239 N 
ATOM     19  C   UNL     1       4.474   0.864  -1.613  0.00  0.00    +0.225 C 
ATOM     20  O   UNL     1       4.260   1.111  -2.781  0.00  0.00    -0.275 OA
ATOM     21  H   UNL     1       9.447   2.462  -2.420  0.00  0.00    +0.155 HD
ATOM     22  N   UNL     1       6.216   2.618   0.284  0.00  0.00    +0.394 N 
ATOM     23  H   UNL     1       5.304   3.080   0.187  0.00  0.00    -0.083 HD
ATOM     24  H   UNL     1       6.921   3.308   0.569  0.00  0.00    -0.083 HD
ENDROOT
BRANCH  18  25
ATOM     25  C   UNL     1       2.107   0.881  -0.942  0.00  0.00    +0.084 C 
ATOM     26  C   UNL     1       1.477   1.939  -0.002  0.00  0.00    +0.023 C 
ATOM     27  C   UNL     1      -0.019   1.538   0.011  0.00  0.00    +0.002 C 
ATOM     28  C   UNL     1       0.002  -0.004   0.002  0.00  0.00    +0.002 C 
ATOM     29  C   UNL     1       1.353  -0.422  -0.604  0.00  0.00    +0.023 C 
ENDBRANCH  18  25
BRANCH  15  30
ATOM     30  C   UNL     1       5.229   1.928   2.446  0.00  0.00    -0.004 C 
BRANCH  30  31
ATOM     31  C   UNL     1       5.911   3.015   3.280  0.00  0.00    +0.067 C 
BRANCH  31  32
ATOM     32  S   UNL     1       4.838   3.473   4.669  0.00  0.00    -0.164 S 
ATOM     33  C   UNL     1       5.779   4.753   5.546  0.00  0.00    +0.084 C 
ENDBRANCH  31  32
ENDBRANCH  30  31
ENDBRANCH  15  30
TORSDOF 4
