REMARK  Name = ZINC00719873
REMARK  10 active torsions:
REMARK  status: ('A' for Active; 'I' for Inactive)
REMARK    1  A    between atoms: C_1  and  C_2
REMARK    2  A    between atoms: C_2  and  O_3
REMARK    3  A    between atoms: O_3  and  C_4
REMARK    4  A    between atoms: C_4  and  C_6
REMARK    5  A    between atoms: C_11  and  C_18
REMARK    6  A    between atoms: C_12  and  N_17
REMARK    7  A    between atoms: C_18  and  O_20
REMARK    8  A    between atoms: O_20  and  C_21
REMARK    9  A    between atoms: C_21  and  C_22
REMARK   10  A    between atoms: C_25  and  N_26
REMARK                            x       y       z     vdW  Elec       q    Type
REMARK                         _______ _______ _______ _____ _____    ______ ____
ROOT
ATOM      1  C   UNL     1      -1.441  -5.979  -4.094  0.00  0.00    +0.128 A 
ATOM      2  C   UNL     1      -1.395  -5.090  -2.912  0.00  0.00    +0.059 A 
ATOM      3  C   UNL     1      -1.349  -3.784  -3.425  0.00  0.00    +0.154 A 
ATOM      4  C   UNL     1      -1.298  -2.711  -2.550  0.00  0.00    +0.072 A 
ATOM      5  C   UNL     1      -1.293  -2.937  -1.179  0.00  0.00    +0.055 A 
ATOM      6  C   UNL     1      -1.247  -2.048   0.003  0.00  0.00    +0.128 A 
ATOM      7  C   UNL     1      -1.263  -2.894   1.102  0.00  0.00    +0.199 A 
ATOM      8  O   UNL     1      -1.322  -4.166   0.684  0.00  0.00    -0.439 OA
ATOM      9  C   UNL     1      -1.339  -4.243  -0.666  0.00  0.00    +0.158 A 
ATOM     10  C   UNL     1      -1.390  -5.317  -1.541  0.00  0.00    +0.095 A 
ATOM     11 CL   UNL     1      -1.447  -6.940  -0.927  0.00  0.00    -0.079 Cl
ATOM     12 BR   UNL     1      -1.236  -0.943  -3.219  0.00  0.00    -0.046 Br
ATOM     13  O   UNL     1      -1.365  -3.862  -4.775  0.00  0.00    -0.440 OA
ATOM     14  C   UNL     1      -1.419  -5.134  -5.194  0.00  0.00    +0.199 A 
ENDROOT
BRANCH   7  15
ATOM     15  N   UNL     1      -1.227  -2.491   2.414  0.00  0.00    -0.329 N 
ATOM     16  H   UNL     1      -1.187  -1.546   2.630  0.00  0.00    +0.145 HD
ATOM     17  H   UNL     1      -1.242  -3.151   3.124  0.00  0.00    +0.145 HD
ENDBRANCH   7  15
BRANCH  14  18
ATOM     18  N   UNL     1      -1.448  -5.537  -6.505  0.00  0.00    -0.329 N 
ATOM     19  H   UNL     1      -1.487  -6.482  -6.721  0.00  0.00    +0.145 HD
ATOM     20  H   UNL     1      -1.429  -4.877  -7.216  0.00  0.00    +0.145 HD
ENDBRANCH  14  18
BRANCH   1  21
ATOM     21  C   UNL     1      -1.496  -7.395  -4.101  0.00  0.00    +0.345 C 
ATOM     22  O   UNL     1      -2.573  -7.962  -4.094  0.00  0.00    -0.245 OA
BRANCH  21  23
ATOM     23  O   UNL     1      -0.354  -8.114  -4.116  0.00  0.00    -0.461 OA
BRANCH  23  25
ATOM     24  C   UNL     1       0.905 -10.177  -4.140  0.00  0.00    +0.048 C 
ATOM     25  C   UNL     1      -0.485  -9.537  -4.123  0.00  0.00    +0.229 C 
ENDBRANCH  23  25
ENDBRANCH  21  23
ENDBRANCH   1  21
BRANCH   6  26
ATOM     26  C   UNL     1      -1.192  -0.633   0.010  0.00  0.00    +0.345 C 
ATOM     27  O   UNL     1      -2.221   0.016   0.023  0.00  0.00    -0.245 OA
BRANCH  26  28
ATOM     28  O   UNL     1       0.002  -0.004   0.002  0.00  0.00    -0.461 OA
BRANCH  28  29
ATOM     29  C   UNL     1      -0.017   1.425   0.010  0.00  0.00    +0.229 C 
ATOM     30  C   UNL     1       1.418   1.954  -0.001  0.00  0.00    +0.048 C 
ENDBRANCH  28  29
ENDBRANCH  26  28
ENDBRANCH   6  26
TORSDOF 8
