REMARK  Name = ZINC18088268
REMARK  9 active torsions:
REMARK  status: ('A' for Active; 'I' for Inactive)
REMARK    1  A    between atoms: C_1  and  O_2
REMARK    2  A    between atoms: O_2  and  C_3
REMARK    3  A    between atoms: C_5  and  N_11
REMARK    4  A    between atoms: C_7  and  O_9
REMARK    5  A    between atoms: O_9  and  C_10
REMARK    6  A    between atoms: C_15  and  N_51
REMARK    7  A    between atoms: C_19  and  C_20
REMARK    8  A    between atoms: C_19  and  N_51
REMARK    9  A    between atoms: C_20  and  C_21
REMARK                            x       y       z     vdW  Elec       q    Type
REMARK                         _______ _______ _______ _____ _____    ______ ____
ROOT
ATOM      1  N   UNL     1      -1.116   1.969   0.017  0.00  0.00    -0.212 N 
ATOM      2  C   UNL     1      -0.015   1.209   0.053  0.00  0.00    +0.225 C 
ATOM      3  O   UNL     1       0.002  -0.003   0.092  0.00  0.00    -0.275 OA
ATOM      4  C   UNL     1       1.207   2.101   0.033  0.00  0.00    +0.090 C 
ATOM      5  C   UNL     1       0.614   3.524  -0.016  0.00  0.00    +0.026 C 
ATOM      6  C   UNL     1      -0.880   3.286  -0.018  0.00  0.00    +0.213 C 
ATOM      7  O   UNL     1      -1.729   4.151  -0.050  0.00  0.00    -0.277 OA
ENDROOT
BRANCH   1  10
ATOM      8  C   UNL     1      -4.521   1.093   1.116  0.00  0.00    +0.125 A 
ATOM      9  C   UNL     1      -3.241   1.626   1.114  0.00  0.00    +0.069 A 
ATOM     10  C   UNL     1      -2.410   1.429   0.020  0.00  0.00    +0.051 A 
ATOM     11  C   UNL     1      -2.862   0.704  -1.073  0.00  0.00    +0.069 A 
ATOM     12  C   UNL     1      -4.141   0.167  -1.067  0.00  0.00    +0.125 A 
ATOM     13  C   UNL     1      -4.971   0.363   0.026  0.00  0.00    +0.091 A 
BRANCH   8  15
ATOM     14  C   UNL     1      -6.641   0.707   2.122  0.00  0.00    +0.277 C 
ATOM     15  O   UNL     1      -5.335   1.284   2.188  0.00  0.00    -0.495 OA
ENDBRANCH   8  15
BRANCH  12  16
ATOM     16  O   UNL     1      -4.582  -0.548  -2.136  0.00  0.00    -0.495 OA
ATOM     17  C   UNL     1      -5.911  -1.067  -2.065  0.00  0.00    +0.277 C 
ENDBRANCH  12  16
ENDBRANCH   1  10
BRANCH   5  18
ATOM     18  N   UNL     1       1.020   4.289   1.178  0.00  0.00    +0.387 N 
ATOM     19  H   UNL     1       1.971   4.014   1.449  0.00  0.00    -0.085 HD
ATOM     20  H   UNL     1       0.372   4.083   1.948  0.00  0.00    -0.085 HD
BRANCH  18  21
ATOM     21  C   UNL     1       0.994   5.736   0.893  0.00  0.00    -0.077 C 
BRANCH  21  22
ATOM     22  C   UNL     1       1.418   6.502   2.148  0.00  0.00    +0.018 C 
BRANCH  22  23
ATOM     23  C   UNL     1       1.395   7.982   1.865  0.00  0.00    -0.024 A 
ATOM     24  C   UNL     1       2.435   8.739   1.483  0.00  0.00    +0.087 A 
ATOM     25  N   UNL     1       2.034  10.036   1.321  0.00  0.00    -0.360 N 
ATOM     26  H   UNL     1       2.610  10.768   1.049  0.00  0.00    +0.165 HD
ATOM     27  C   UNL     1       0.690  10.149   1.602  0.00  0.00    +0.047 A 
ATOM     28  C   UNL     1       0.230   8.866   1.949  0.00  0.00    +0.004 A 
ATOM     29  C   UNL     1      -1.110   8.676   2.294  0.00  0.00    +0.030 A 
ATOM     30  C   UNL     1      -1.976   9.747   2.280  0.00  0.00    +0.042 A 
ATOM     31  C   UNL     1      -1.521  11.012   1.932  0.00  0.00    +0.022 A 
ATOM     32  C   UNL     1      -0.201  11.217   1.595  0.00  0.00    +0.027 A 
ATOM     33 CL   UNL     1      -3.644   9.514   2.701  0.00  0.00    -0.084 Cl
ENDBRANCH  22  23
ENDBRANCH  21  22
ENDBRANCH  18  21
ENDBRANCH   5  18
TORSDOF 7
