REMARK  Name = ZINC46794712
REMARK  10 active torsions:
REMARK  status: ('A' for Active; 'I' for Inactive)
REMARK    1  A    between atoms: C_1  and  C_2
REMARK    2  A    between atoms: C_4  and  C_31
REMARK    3  A    between atoms: C_6  and  C_8
REMARK    4  A    between atoms: N_10  and  C_11
REMARK    5  A    between atoms: C_11  and  C_12
REMARK    6  A    between atoms: N_14  and  C_15
REMARK    7  A    between atoms: C_15  and  C_16
REMARK    8  A    between atoms: C_21  and  C_22
REMARK    9  A    between atoms: C_22  and  N_23
REMARK   10  A    between atoms: C_28  and  C_30
REMARK                            x       y       z     vdW  Elec       q    Type
REMARK                         _______ _______ _______ _____ _____    ______ ____
ROOT
ATOM      1  C   UNL     1       0.056  -1.958   6.048  0.00  0.00    +0.230 C 
ATOM      2  O   UNL     1       0.040  -0.764   5.837  0.00  0.00    -0.274 OA
ATOM      3  N   UNL     1       0.068  -2.419   7.314  0.00  0.00    -0.310 N 
ATOM      4  H   UNL     1       0.081  -3.374   7.482  0.00  0.00    +0.149 HD
ENDROOT
BRANCH   1   5
ATOM      5  C   UNL     1       0.064  -2.926   4.893  0.00  0.00    +0.200 C 
BRANCH   5   8
ATOM      6  C   UNL     1       0.052  -2.845   2.458  0.00  0.00    +0.244 C 
ATOM      7  O   UNL     1       0.068  -4.061   2.446  0.00  0.00    -0.270 OA
ATOM      8  N   UNL     1       0.049  -2.182   3.631  0.00  0.00    -0.303 N 
ATOM      9  H   UNL     1       0.036  -1.212   3.640  0.00  0.00    +0.150 HD
BRANCH   6  15
ATOM     10  C   UNL     1      -0.018   1.503   0.010  0.00  0.00    +0.044 C 
ATOM     11  C   UNL     1       0.002  -0.004   0.002  0.00  0.00    -0.049 A 
ATOM     12  C   UNL     1       0.006  -0.688  -1.201  0.00  0.00    +0.006 A 
ATOM     13  C   UNL     1       0.025  -2.071  -1.217  0.00  0.00    -0.049 A 
ATOM     14  C   UNL     1       0.040  -2.778  -0.033  0.00  0.00    +0.016 A 
ATOM     15  C   UNL     1       0.036  -2.094   1.184  0.00  0.00    +0.037 A 
ATOM     16  C   UNL     1       0.023  -0.699   1.194  0.00  0.00    +0.016 A 
ATOM     17  C   UNL     1       0.029  -2.807  -2.532  0.00  0.00    +0.044 C 
ENDBRANCH   6  15
ENDBRANCH   5   8
ENDBRANCH   1   5
BRANCH   3  18
ATOM     18  C   UNL     1       0.061  -1.477   8.436  0.00  0.00    +0.139 C 
BRANCH  18  19
ATOM     19  C   UNL     1       0.076  -2.243   9.734  0.00  0.00    -0.029 A 
ATOM     20  C   UNL     1      -1.098  -2.435  10.438  0.00  0.00    +0.005 A 
ATOM     21  C   UNL     1      -1.083  -3.137  11.628  0.00  0.00    +0.000 A 
ATOM     22  C   UNL     1       0.106  -3.648  12.115  0.00  0.00    +0.000 A 
ATOM     23  C   UNL     1       1.280  -3.456  11.412  0.00  0.00    +0.002 A 
ATOM     24  C   UNL     1       1.264  -2.757  10.219  0.00  0.00    -0.059 A 
BRANCH  24  25
ATOM     25  C   UNL     1       2.544  -2.553   9.449  0.00  0.00    -0.042 C 
BRANCH  25  26
ATOM     26  N   UNL     1       3.063  -1.204   9.712  0.00  0.00    +0.384 N 
ATOM     27  C   UNL     1       3.430  -1.090  11.128  0.00  0.00    -0.078 C 
ATOM     28  C   UNL     1       3.896   0.337  11.425  0.00  0.00    -0.019 C 
ATOM     29  C   UNL     1       5.112   0.663  10.553  0.00  0.00    -0.003 C 
ATOM     30  C   UNL     1       4.739   0.469   9.081  0.00  0.00    -0.016 C 
ATOM     31  C   UNL     1       4.242  -0.963   8.871  0.00  0.00    -0.071 C 
ATOM     32  C   UNL     1       3.868  -1.162   7.400  0.00  0.00    -0.013 C 
ATOM     33  H   UNL     1       2.351  -0.523   9.495  0.00  0.00    -0.081 HD
ENDBRANCH  25  26
ENDBRANCH  24  25
ENDBRANCH  18  19
ENDBRANCH   3  18
TORSDOF 7
