REMARK  Name = ZINC36213421
REMARK  10 active torsions:
REMARK  status: ('A' for Active; 'I' for Inactive)
REMARK    1  A    between atoms: C_1  and  C_2
REMARK    2  A    between atoms: C_7  and  C_9
REMARK    3  A    between atoms: C_7  and  C_10
REMARK    4  A    between atoms: N_13  and  C_17
REMARK    5  A    between atoms: C_17  and  C_18
REMARK    6  A    between atoms: C_18  and  O_20
REMARK    7  A    between atoms: O_20  and  C_21
REMARK    8  A    between atoms: C_21  and  C_23
REMARK    9  A    between atoms: C_21  and  C_29
REMARK   10  A    between atoms: N_31  and  C_32
REMARK                            x       y       z     vdW  Elec       q    Type
REMARK                         _______ _______ _______ _____ _____    ______ ____
ROOT
ATOM      1  C   UNL     1      -5.029  -3.571  -3.347  0.00  0.00    +0.326 C 
ATOM      2  O   UNL     1      -4.716  -2.427  -3.578  0.00  0.00    -0.249 OA
ENDROOT
BRANCH   1   3
ATOM      3  C   UNL     1      -4.227  -4.388  -2.366  0.00  0.00    +0.238 C 
BRANCH   3  15
ATOM      4  C   UNL     1      -0.712   1.506  -0.594  0.00  0.00    +0.007 C 
ATOM      5  C   UNL     1      -0.593  -0.017  -0.527  0.00  0.00    -0.011 C 
ATOM      6  C   UNL     1      -1.983  -0.645  -0.656  0.00  0.00    +0.038 C 
ATOM      7  C   UNL     1      -1.867  -2.163  -0.569  0.00  0.00    +0.113 C 
ATOM      8  C   UNL     1      -1.233  -2.580   0.754  0.00  0.00    +0.041 C 
ATOM      9  C   UNL     1       0.155  -1.945   0.878  0.00  0.00    -0.032 C 
ATOM     10  C   UNL     1       0.025  -0.422   0.813  0.00  0.00    +0.009 C 
ATOM     11  C   UNL     1       0.781  -2.348   2.215  0.00  0.00    +0.011 C 
ATOM     12  C   UNL     1       1.043  -2.431  -0.269  0.00  0.00    +0.011 C 
ATOM     13  C   UNL     1      -3.225  -2.806  -0.729  0.00  0.00    +0.247 C 
ATOM     14  O   UNL     1      -4.195  -2.661  -0.016  0.00  0.00    -0.273 OA
ATOM     15  N   UNL     1      -3.131  -3.575  -1.834  0.00  0.00    -0.213 N 
ATOM     16  C   UNL     1      -1.913  -3.502  -2.383  0.00  0.00    +0.310 C 
ATOM     17  O   UNL     1      -1.586  -4.106  -3.386  0.00  0.00    -0.252 OA
ATOM     18  N   UNL     1      -1.089  -2.685  -1.700  0.00  0.00    -0.285 N 
ATOM     19  H   UNL     1      -0.165  -2.482  -1.912  0.00  0.00    +0.151 HD
ENDBRANCH   3  15
ENDBRANCH   1   3
BRANCH   1  20
ATOM     20  O   UNL     1      -6.089  -4.115  -3.965  0.00  0.00    -0.446 OA
BRANCH  20  21
ATOM     21  C   UNL     1      -6.802  -3.283  -4.882  0.00  0.00    +0.292 C 
BRANCH  21  22
ATOM     22  C   UNL     1      -6.212  -3.434  -6.260  0.00  0.00    +0.002 A 
ATOM     23  C   UNL     1      -5.820  -4.680  -6.712  0.00  0.00    +0.008 A 
ATOM     24  C   UNL     1      -5.278  -4.818  -7.976  0.00  0.00    +0.000 A 
ATOM     25  C   UNL     1      -5.128  -3.710  -8.789  0.00  0.00    +0.000 A 
ATOM     26  C   UNL     1      -5.521  -2.464  -8.337  0.00  0.00    +0.000 A 
ATOM     27  C   UNL     1      -6.066  -2.326  -7.075  0.00  0.00    +0.008 A 
ENDBRANCH  21  22
BRANCH  21  28
ATOM     28  C   UNL     1      -8.252  -3.694  -4.910  0.00  0.00    +0.263 C 
ATOM     29  O   UNL     1      -8.637  -4.609  -4.212  0.00  0.00    -0.271 OA
ATOM     30  N   UNL     1      -9.121  -3.045  -5.709  0.00  0.00    -0.282 N 
ATOM     31  H   UNL     1      -8.801  -2.364  -6.322  0.00  0.00    +0.155 HD
BRANCH  30  32
ATOM     32  C   UNL     1     -10.486  -3.352  -5.655  0.00  0.00    +0.034 A 
ATOM     33  C   UNL     1     -11.256  -3.304  -6.810  0.00  0.00    +0.026 A 
ATOM     34  C   UNL     1     -12.602  -3.608  -6.754  0.00  0.00    +0.040 A 
ATOM     35  C   UNL     1     -13.185  -3.959  -5.548  0.00  0.00    +0.124 A 
ATOM     36  C   UNL     1     -12.419  -4.008  -4.396  0.00  0.00    +0.040 A 
ATOM     37  C   UNL     1     -11.071  -3.711  -4.448  0.00  0.00    +0.026 A 
ATOM     38  F   UNL     1     -14.502  -4.255  -5.496  0.00  0.00    -0.205 F 
ENDBRANCH  30  32
ENDBRANCH  21  28
ENDBRANCH  20  21
ENDBRANCH   1  20
TORSDOF 7
