REMARK  Name = ZINC39693591
REMARK  10 active torsions:
REMARK  status: ('A' for Active; 'I' for Inactive)
REMARK    1  A    between atoms: C_1  and  C_2
REMARK    2  A    between atoms: C_2  and  C_3
REMARK    3  A    between atoms: C_2  and  C_4
REMARK    4  A    between atoms: C_2  and  O_5
REMARK    5  A    between atoms: O_5  and  C_6
REMARK    6  A    between atoms: N_8  and  C_9
REMARK    7  A    between atoms: C_9  and  C_10
REMARK    8  A    between atoms: C_10  and  N_11
REMARK    9  A    between atoms: C_12  and  C_14
REMARK   10  A    between atoms: C_25  and  C_27
REMARK                            x       y       z     vdW  Elec       q    Type
REMARK                         _______ _______ _______ _____ _____    ______ ____
ROOT
ATOM      1  C   UNL     1       8.095  -0.218  -5.353  0.00  0.00    +0.100 C 
ATOM      2  C   UNL     1       8.950  -0.678  -4.151  0.00  0.00    +0.121 C 
ATOM      3  N   UNL     1       9.539  -1.968  -4.583  0.00  0.00    -0.296 N 
ATOM      4  C   UNL     1       9.883  -1.757  -6.009  0.00  0.00    +0.115 C 
ATOM      5  C   UNL     1       8.713  -0.926  -6.571  0.00  0.00    -0.004 C 
ATOM      6  C   UNL     1       7.684  -1.841  -7.228  0.00  0.00    -0.010 C 
ATOM      7  C   UNL     1       8.304  -2.489  -8.469  0.00  0.00    -0.082 C 
ATOM      8  N   UNL     1       8.730  -1.445  -9.408  0.00  0.00    +0.379 N 
ATOM      9  C   UNL     1       9.786  -0.625  -8.801  0.00  0.00    -0.082 C 
ATOM     10  C   UNL     1       9.229   0.102  -7.574  0.00  0.00    -0.010 C 
ATOM     11  C   UNL     1       9.721  -3.081  -3.845  0.00  0.00    +0.252 C 
ATOM     12  O   UNL     1      10.223  -4.068  -4.347  0.00  0.00    -0.270 OA
ATOM     13  H   UNL     1       9.082  -1.874 -10.251  0.00  0.00    -0.086 HD
ATOM     14  H   UNL     1       7.942  -0.858  -9.637  0.00  0.00    -0.086 HD
ENDROOT
BRANCH  11  15
ATOM     15  C   UNL     1       9.311  -3.102  -2.428  0.00  0.00    +0.108 A 
ATOM     16  C   UNL     1       8.020  -3.511  -2.075  0.00  0.00    +0.138 A 
ATOM     17  C   UNL     1       7.644  -3.528  -0.745  0.00  0.00    +0.041 A 
ATOM     18  C   UNL     1       8.539  -3.142   0.236  0.00  0.00    +0.026 A 
ATOM     19  C   UNL     1       9.818  -2.736  -0.103  0.00  0.00    +0.077 A 
ATOM     20  C   UNL     1      10.212  -2.718  -1.429  0.00  0.00    +0.156 A 
ATOM     21  F   UNL     1      11.463  -2.327  -1.759  0.00  0.00    -0.203 F 
ATOM     22 CL   UNL     1      10.931  -2.253   1.138  0.00  0.00    -0.081 Cl
ATOM     23  F   UNL     1       7.144  -3.888  -3.031  0.00  0.00    -0.205 F 
ENDBRANCH  11  15
BRANCH   1  25
ATOM     24  N   UNL     1       5.668   0.076  -5.730  0.00  0.00    -0.314 N 
ATOM     25  C   UNL     1       6.661  -0.644  -5.171  0.00  0.00    +0.218 C 
ATOM     26  O   UNL     1       6.400  -1.634  -4.521  0.00  0.00    -0.275 OA
ATOM     27  H   UNL     1       5.877   0.868  -6.250  0.00  0.00    +0.149 HD
BRANCH  24  28
ATOM     28  C   UNL     1       4.274  -0.337  -5.553  0.00  0.00    +0.123 C 
BRANCH  28  29
ATOM     29  C   UNL     1       3.355   0.643  -6.283  0.00  0.00    +0.126 C 
BRANCH  29  32
ATOM     30  C   UNL     1       0.968   0.949  -6.665  0.00  0.00    +0.401 C 
ATOM     31  O   UNL     1       1.229   1.941  -7.316  0.00  0.00    -0.226 OA
ATOM     32  N   UNL     1       1.960   0.230  -6.106  0.00  0.00    -0.280 N 
ATOM     33  H   UNL     1       1.752  -0.562  -5.586  0.00  0.00    +0.152 HD
BRANCH  30  34
ATOM     34  O   UNL     1      -0.314   0.569  -6.502  0.00  0.00    -0.445 OA
BRANCH  34  36
ATOM     35  C   UNL     1      -1.083   1.406  -8.635  0.00  0.00    +0.055 C 
ATOM     36  C   UNL     1      -1.314   1.379  -7.123  0.00  0.00    +0.107 C 
ATOM     37  C   UNL     1      -1.234   2.803  -6.569  0.00  0.00    +0.055 C 
ATOM     38  C   UNL     1      -2.697   0.794  -6.829  0.00  0.00    +0.055 C 
ENDBRANCH  34  36
ENDBRANCH  30  34
ENDBRANCH  29  32
ENDBRANCH  28  29
ENDBRANCH  24  28
ENDBRANCH   1  25
TORSDOF 7
