REMARK  Name = ZINC14994348
REMARK  8 active torsions:
REMARK  status: ('A' for Active; 'I' for Inactive)
REMARK    1  A    between atoms: C_1  and  C_2
REMARK    2  A    between atoms: N_5  and  C_14
REMARK    3  A    between atoms: C_14  and  C_15
REMARK    4  A    between atoms: C_15  and  C_16
REMARK    5  A    between atoms: N_18  and  C_19
REMARK    6  A    between atoms: C_19  and  C_20
REMARK    7  A    between atoms: C_20  and  C_21
REMARK    8  A    between atoms: C_25  and  C_27
REMARK                            x       y       z     vdW  Elec       q    Type
REMARK                         _______ _______ _______ _____ _____    ______ ____
ROOT
ATOM      1  C   UNL     1       1.696  -4.118  -4.328  0.00  0.00    +0.211 C 
ATOM      2  O   UNL     1       2.125  -3.238  -5.044  0.00  0.00    -0.276 OA
ATOM      3  N   UNL     1       1.764  -5.404  -4.726  0.00  0.00    -0.315 N 
ATOM      4  H   UNL     1       1.420  -6.107  -4.153  0.00  0.00    +0.149 HD
ENDROOT
BRANCH   1   5
ATOM      5  C   UNL     1       1.086  -3.773  -2.994  0.00  0.00    +0.077 C 
BRANCH   5   6
ATOM      6  C   UNL     1       1.133  -2.258  -2.788  0.00  0.00    -0.069 C 
BRANCH   6  10
ATOM      7  C   UNL     1      -2.740  -2.734   0.084  0.00  0.00    +0.050 C 
ATOM      8  C   UNL     1      -1.302  -2.210   0.077  0.00  0.00    +0.154 C 
ATOM      9  C   UNL     1      -0.757  -2.272  -1.332  0.00  0.00    -0.034 C 
ATOM     10  N   UNL     1       0.658  -1.932  -1.437  0.00  0.00    +0.385 N 
ATOM     11  C   UNL     1       0.882  -0.505  -1.179  0.00  0.00    -0.039 C 
ATOM     12  C   UNL     1       1.002  -0.292   0.318  0.00  0.00    -0.022 A 
ATOM     13  C   UNL     1       2.214   0.069   0.870  0.00  0.00    +0.005 A 
ATOM     14  C   UNL     1       2.310   0.276   2.235  0.00  0.00    +0.000 A 
ATOM     15  C   UNL     1       1.196   0.124   3.040  0.00  0.00    +0.004 A 
ATOM     16  C   UNL     1      -0.016  -0.243   2.487  0.00  0.00    +0.046 A 
ATOM     17  C   UNL     1      -0.110  -0.460   1.120  0.00  0.00    +0.122 A 
ATOM     18  O   UNL     1      -1.288  -0.864   0.569  0.00  0.00    -0.491 OA
ATOM     19  H   UNL     1       1.180  -2.475  -0.764  0.00  0.00    -0.081 HD
ENDBRANCH   6  10
ENDBRANCH   5   6
ENDBRANCH   1   5
BRANCH   3  20
ATOM     20  C   UNL     1       2.356  -5.739  -6.023  0.00  0.00    +0.112 C 
BRANCH  20  21
ATOM     21  C   UNL     1       2.309  -7.254  -6.229  0.00  0.00    +0.094 C 
BRANCH  21  22
ATOM     22  C   UNL     1       2.919  -7.599  -7.563  0.00  0.00    +0.127 A 
ATOM     23  N   UNL     1       3.926  -8.467  -7.769  0.00  0.00    -0.262 N 
ATOM     24  H   UNL     1       4.393  -8.984  -7.095  0.00  0.00    +0.190 HD
ATOM     25  N   UNL     1       4.168  -8.477  -9.152  0.00  0.00    -0.152 NA
ATOM     26  C   UNL     1       3.314  -7.635  -9.692  0.00  0.00    +0.181 A 
ATOM     27  N   UNL     1       2.556  -7.111  -8.720  0.00  0.00    -0.211 NA
BRANCH  26  28
ATOM     28  C   UNL     1       3.205  -7.322 -11.138  0.00  0.00    +0.024 A 
ATOM     29  C   UNL     1       2.261  -6.402 -11.604  0.00  0.00    +0.031 A 
ATOM     30  C   UNL     1       2.193  -6.140 -12.957  0.00  0.00    +0.111 A 
ATOM     31  N   UNL     1       3.002  -6.745 -13.805  0.00  0.00    -0.263 NA
ATOM     32  C   UNL     1       3.906  -7.619 -13.407  0.00  0.00    +0.111 A 
ATOM     33  C   UNL     1       4.046  -7.934 -12.071  0.00  0.00    +0.031 A 
ENDBRANCH  26  28
ENDBRANCH  21  22
ENDBRANCH  20  21
ENDBRANCH   3  20
TORSDOF 7
