REMARK  Name = ZINC26951256
REMARK  10 active torsions:
REMARK  status: ('A' for Active; 'I' for Inactive)
REMARK    1  A    between atoms: C_1  and  C_2
REMARK    2  A    between atoms: C_2  and  C_3
REMARK    3  A    between atoms: C_2  and  N_4
REMARK    4  A    between atoms: N_15  and  C_18
REMARK    5  A    between atoms: C_18  and  C_20
REMARK    6  A    between atoms: C_18  and  N_24
REMARK    7  A    between atoms: C_25  and  C_27
REMARK    8  A    between atoms: N_28  and  C_29
REMARK    9  A    between atoms: C_29  and  C_30
REMARK   10  A    between atoms: C_29  and  C_31
REMARK                            x       y       z     vdW  Elec       q    Type
REMARK                         _______ _______ _______ _____ _____    ______ ____
ROOT
ATOM      1  N   UNL     1      -0.017   1.376   0.010  0.00  0.00    -0.311 N 
ATOM      2  C   UNL     1       0.002  -0.004   0.002  0.00  0.00    +0.221 A 
ATOM      3  N   UNL     1       1.162  -0.653  -0.018  0.00  0.00    -0.181 NA
ATOM      4  C   UNL     1       1.179  -1.982  -0.020  0.00  0.00    +0.221 A 
ATOM      5  N   UNL     1       0.037  -2.662  -0.013  0.00  0.00    -0.181 NA
ATOM      6  C   UNL     1      -1.122  -2.013   0.002  0.00  0.00    +0.232 A 
ATOM      7  N   UNL     1      -1.140  -0.685   0.009  0.00  0.00    -0.181 NA
ATOM      8  N   UNL     1      -2.313  -2.722   0.010  0.00  0.00    -0.215 N 
ATOM      9  C   UNL     1      -2.465  -4.187  -0.002  0.00  0.00    +0.214 C 
ATOM     10  C   UNL     1      -3.967  -4.389   0.016  0.00  0.00    +0.243 C 
ATOM     11  O   UNL     1      -4.564  -5.444   0.016  0.00  0.00    -0.273 OA
ATOM     12  N   UNL     1      -4.501  -3.152   0.028  0.00  0.00    -0.201 N 
ATOM     13  C   UNL     1      -3.555  -2.206   0.025  0.00  0.00    +0.320 C 
ATOM     14  O   UNL     1      -3.792  -1.014   0.034  0.00  0.00    -0.251 OA
ATOM     15  N   UNL     1       2.384  -2.656  -0.035  0.00  0.00    -0.311 N 
ATOM     16  H   UNL     1      -0.977   1.913   0.022  0.00  0.00    +0.149 HD
ATOM     17  H   UNL     1       2.398  -3.756  -0.042  0.00  0.00    +0.149 HD
ENDROOT
BRANCH   1  19
ATOM     18  C   UNL     1       1.731   2.286  -1.439  0.00  0.00    +0.027 C 
ATOM     19  C   UNL     1       1.242   2.126   0.002  0.00  0.00    +0.067 C 
ATOM     20  C   UNL     1       1.017   3.506   0.621  0.00  0.00    +0.027 C 
ENDBRANCH   1  19
BRANCH  15  21
ATOM     21  C   UNL     1       3.643  -1.907  -0.043  0.00  0.00    +0.067 C 
ATOM     22  C   UNL     1       4.755  -2.774   0.551  0.00  0.00    +0.027 C 
ATOM     23  C   UNL     1       4.003  -1.530  -1.482  0.00  0.00    +0.027 C 
ENDBRANCH  15  21
BRANCH  12  24
ATOM     24  C   UNL     1      -5.940  -2.877   0.043  0.00  0.00    +0.224 C 
BRANCH  24  25
ATOM     25  N   UNL     1      -6.595  -3.749   1.021  0.00  0.00    -0.293 N 
ATOM     26  C   UNL     1      -7.005  -3.248   2.202  0.00  0.00    +0.211 C 
ATOM     27  O   UNL     1      -6.834  -2.074   2.456  0.00  0.00    -0.276 OA
ATOM     28  C   UNL     1      -7.679  -4.145   3.209  0.00  0.00    +0.109 C 
ATOM     29  H   UNL     1      -6.750  -4.814   0.791  0.00  0.00    +0.151 HD
ENDBRANCH  24  25
BRANCH  24  30
ATOM     30  C   UNL     1      -6.524  -3.140  -1.347  0.00  0.00    +0.225 C 
ATOM     31 CL   UNL     1      -6.246  -4.864  -1.798  0.00  0.00    -0.080 Cl
ATOM     32 CL   UNL     1      -8.295  -2.802  -1.329  0.00  0.00    -0.080 Cl
ATOM     33 CL   UNL     1      -5.719  -2.067  -2.551  0.00  0.00    -0.080 Cl
ENDBRANCH  24  30
ENDBRANCH  12  24
TORSDOF 5
