REMARK  Name = ZINC09836752
REMARK  12 active torsions:
REMARK  status: ('A' for Active; 'I' for Inactive)
REMARK    1  A    between atoms: C_1  and  C_2
REMARK    2  A    between atoms: C_2  and  O_3
REMARK    3  A    between atoms: O_3  and  C_4
REMARK    4  A    between atoms: C_7  and  N_10
REMARK    5  A    between atoms: C_11  and  C_30
REMARK    6  A    between atoms: C_14  and  S_15
REMARK    7  A    between atoms: S_15  and  C_16
REMARK    8  A    between atoms: C_16  and  C_17
REMARK    9  A    between atoms: N_19  and  N_20
REMARK   10  A    between atoms: C_21  and  C_22
REMARK   11  A    between atoms: C_21  and  C_23
REMARK   12  A    between atoms: C_28  and  O_29
REMARK                            x       y       z     vdW  Elec       q    Type
REMARK                         _______ _______ _______ _____ _____    ______ ____
ROOT
ATOM      1  N   UNL     1       1.101  -5.946  -1.792  0.00  0.00    -0.270 N 
ATOM      2  C   UNL     1       2.260  -6.678  -1.930  0.00  0.00    +0.169 A 
ATOM      3  N   UNL     1       1.904  -7.928  -2.121  0.00  0.00    -0.128 NA
ATOM      4  N   UNL     1       0.623  -8.027  -2.111  0.00  0.00    -0.122 NA
ATOM      5  C   UNL     1       0.079  -6.847  -1.908  0.00  0.00    +0.197 A 
ENDROOT
BRANCH   2   6
ATOM      6  C   UNL     1       3.641  -6.157  -1.875  0.00  0.00    +0.020 A 
ATOM      7  C   UNL     1       3.897  -4.908  -1.306  0.00  0.00    +0.013 A 
ATOM      8  C   UNL     1       5.189  -4.427  -1.257  0.00  0.00    +0.021 A 
ATOM      9  C   UNL     1       6.231  -5.179  -1.771  0.00  0.00    +0.041 A 
ATOM     10  C   UNL     1       5.984  -6.419  -2.338  0.00  0.00    +0.021 A 
ATOM     11  C   UNL     1       4.697  -6.913  -2.388  0.00  0.00    +0.013 A 
ATOM     12 CL   UNL     1       7.854  -4.567  -1.707  0.00  0.00    -0.084 Cl
ENDBRANCH   2   6
BRANCH   1  16
ATOM     13  C   UNL     1       0.779  -1.838  -1.136  0.00  0.00    +0.121 A 
ATOM     14  C   UNL     1       0.412  -2.731  -0.140  0.00  0.00    +0.047 A 
ATOM     15  C   UNL     1       0.518  -4.090  -0.356  0.00  0.00    +0.030 A 
ATOM     16  C   UNL     1       0.993  -4.564  -1.571  0.00  0.00    +0.051 A 
ATOM     17  C   UNL     1       1.361  -3.671  -2.568  0.00  0.00    +0.030 A 
ATOM     18  C   UNL     1       1.249  -2.312  -2.353  0.00  0.00    +0.047 A 
BRANCH  13  19
ATOM     19  O   UNL     1       0.674  -0.500  -0.923  0.00  0.00    -0.492 OA
BRANCH  19  21
ATOM     20  C   UNL     1       0.135   1.445   0.406  0.00  0.00    +0.048 C 
ATOM     21  C   UNL     1       0.183  -0.083   0.353  0.00  0.00    +0.225 C 
ENDBRANCH  19  21
ENDBRANCH  13  19
ENDBRANCH   1  16
BRANCH   5  22
ATOM     22  S   UNL     1      -1.644  -6.493  -1.809  0.00  0.00    -0.076 S 
BRANCH  22  23
ATOM     23  C   UNL     1      -2.438  -8.107  -2.043  0.00  0.00    +0.174 C 
BRANCH  23  24
ATOM     24  C   UNL     1      -3.935  -7.945  -1.980  0.00  0.00    +0.242 C 
ATOM     25  O   UNL     1      -4.418  -6.848  -1.794  0.00  0.00    -0.273 OA
ATOM     26  N   UNL     1      -4.736  -9.018  -2.129  0.00  0.00    -0.206 N 
ATOM     27  H   UNL     1      -4.349  -9.895  -2.277  0.00  0.00    +0.177 HD
BRANCH  26  28
ATOM     28  N   UNL     1      -6.128  -8.867  -2.070  0.00  0.00    -0.184 NA
ATOM     29  C   UNL     1      -6.899  -9.901  -2.214  0.00  0.00    +0.067 C 
ATOM     30  C   UNL     1      -6.298 -11.263  -2.444  0.00  0.00    +0.068 C 
BRANCH  29  31
ATOM     31  C   UNL     1      -8.363  -9.742  -2.151  0.00  0.00    +0.039 A 
ATOM     32  C   UNL     1      -9.197 -10.852  -2.300  0.00  0.00    +0.013 A 
ATOM     33  C   UNL     1     -10.566 -10.697  -2.240  0.00  0.00    +0.001 A 
ATOM     34  C   UNL     1     -11.118  -9.444  -2.034  0.00  0.00    +0.004 A 
ATOM     35  C   UNL     1     -10.303  -8.337  -1.886  0.00  0.00    +0.046 A 
ATOM     36  C   UNL     1      -8.926  -8.476  -1.937  0.00  0.00    +0.126 A 
BRANCH  36  37
ATOM     37  O   UNL     1      -8.125  -7.390  -1.787  0.00  0.00    -0.506 OA
ATOM     38  H   UNL     1      -7.915  -6.938  -2.615  0.00  0.00    +0.292 HD
ENDBRANCH  36  37
ENDBRANCH  29  31
ENDBRANCH  26  28
ENDBRANCH  23  24
ENDBRANCH  22  23
ENDBRANCH   5  22
TORSDOF 10
