REMARK  Name = ZINC10556537
REMARK  16 active torsions:
REMARK  status: ('A' for Active; 'I' for Inactive)
REMARK    1  A    between atoms: C_1  and  C_2
REMARK    2  A    between atoms: C_2  and  C_3
REMARK    3  A    between atoms: C_3  and  C_4
REMARK    4  A    between atoms: C_4  and  N_5
REMARK    5  A    between atoms: N_14  and  C_31
REMARK    6  A    between atoms: C_15  and  C_17
REMARK    7  A    between atoms: C_17  and  C_18
REMARK    8  A    between atoms: C_18  and  C_19
REMARK    9  A    between atoms: N_21  and  C_22
REMARK   10  A    between atoms: C_24  and  C_29
REMARK   11  A    between atoms: C_24  and  C_30
REMARK   12  A    between atoms: C_25  and  C_27
REMARK   13  A    between atoms: C_25  and  C_28
REMARK   14  A    between atoms: C_31  and  C_32
REMARK   15  A    between atoms: C_32  and  C_33
REMARK   16  A    between atoms: C_32  and  C_34
REMARK                            x       y       z     vdW  Elec       q    Type
REMARK                         _______ _______ _______ _____ _____    ______ ____
ROOT
ATOM      1  N   UNL     1       0.495  12.790  -4.107  0.00  0.00    -0.277 N 
ATOM      2  C   UNL     1       0.001  11.504  -3.954  0.00  0.00    +0.168 A 
ATOM      3  C   UNL     1      -1.310  11.336  -3.527  0.00  0.00    +0.151 A 
ATOM      4  C   UNL     1      -2.098  12.477  -3.262  0.00  0.00    +0.280 A 
ATOM      5  O   UNL     1      -3.250  12.355  -2.886  0.00  0.00    -0.265 OA
ATOM      6  N   UNL     1      -1.561  13.703  -3.430  0.00  0.00    -0.273 N 
ATOM      7  H   UNL     1      -2.115  14.514  -3.243  0.00  0.00    +0.173 HD
ATOM      8  C   UNL     1      -0.291  13.851  -3.845  0.00  0.00    +0.331 A 
ATOM      9  O   UNL     1       0.160  14.972  -3.986  0.00  0.00    -0.246 OA
ATOM     10  N   UNL     1      -1.526   9.974  -3.471  0.00  0.00    -0.322 N 
ATOM     11  C   UNL     1      -0.378   9.377  -3.845  0.00  0.00    +0.113 A 
ATOM     12  N   UNL     1       0.519  10.286  -4.132  0.00  0.00    -0.214 NA
ENDROOT
BRANCH   1  13
ATOM     13  C   UNL     1       1.875  12.995  -4.556  0.00  0.00    +0.128 C 
BRANCH  13  14
ATOM     14  C   UNL     1       1.907  13.075  -6.084  0.00  0.00    +0.021 C 
BRANCH  14  16
ATOM     15  C   UNL     1       3.380  13.369  -8.080  0.00  0.00    +0.004 C 
ATOM     16  C   UNL     1       3.348  13.289  -6.553  0.00  0.00    -0.002 C 
ENDBRANCH  14  16
ENDBRANCH  13  14
ENDBRANCH   1  13
BRANCH  11  17
ATOM     17  C   UNL     1      -0.160   7.888  -3.925  0.00  0.00    +0.083 C 
BRANCH  17  18
ATOM     18  C   UNL     1       0.244   7.356  -2.549  0.00  0.00    +0.103 C 
BRANCH  18  19
ATOM     19  C   UNL     1       0.343   5.853  -2.601  0.00  0.00    +0.214 C 
ATOM     20  O   UNL     1       0.113   5.266  -3.636  0.00  0.00    -0.276 OA
ATOM     21  N   UNL     1       0.687   5.162  -1.496  0.00  0.00    -0.313 N 
ATOM     22  H   UNL     1       0.871   5.633  -0.667  0.00  0.00    +0.149 HD
BRANCH  21  23
ATOM     23  C   UNL     1       0.784   3.698  -1.546  0.00  0.00    +0.070 C 
ATOM     24  C   UNL     1       1.742   3.220  -0.454  0.00  0.00    +0.009 C 
ATOM     25  C   UNL     1       1.857   1.697  -0.492  0.00  0.00    -0.072 C 
ATOM     26  C   UNL     1      -0.520   1.568  -1.288  0.00  0.00    -0.072 C 
ATOM     27  C   UNL     1      -0.594   3.093  -1.277  0.00  0.00    +0.009 C 
ATOM     28  C   UNL     1      -0.425   1.071  -2.736  0.00  0.00    -0.010 C 
ATOM     29  C   UNL     1      -1.851   1.035  -0.710  0.00  0.00    -0.010 C 
ATOM     30  C   UNL     1       2.629   1.257   0.771  0.00  0.00    -0.010 C 
ATOM     31  C   UNL     1       2.689   1.272  -1.707  0.00  0.00    -0.010 C 
ATOM     32  N   UNL     1       0.552   0.983  -0.440  0.00  0.00    +0.386 N 
ATOM     33  H   UNL     1       0.226   0.989   0.534  0.00  0.00    -0.084 HD
ATOM     34  H   UNL     1       0.706   0.015  -0.744  0.00  0.00    -0.084 HD
ENDBRANCH  21  23
ENDBRANCH  18  19
ENDBRANCH  17  18
ENDBRANCH  11  17
BRANCH  10  35
ATOM     35  C   UNL     1      -2.769   9.305  -3.078  0.00  0.00    +0.126 C 
BRANCH  35  36
ATOM     36  C   UNL     1      -3.578   8.956  -4.328  0.00  0.00    +0.003 C 
ATOM     37  C   UNL     1      -4.806   8.135  -3.929  0.00  0.00    +0.009 C 
ATOM     38  C   UNL     1      -4.029  10.244  -5.020  0.00  0.00    +0.009 C 
ENDBRANCH  35  36
ENDBRANCH  10  35
TORSDOF 9
