REMARK  Name = ZINC23003759
REMARK  5 active torsions:
REMARK  status: ('A' for Active; 'I' for Inactive)
REMARK    1  A    between atoms: C_4  and  N_21
REMARK    2  A    between atoms: C_5  and  C_7
REMARK    3  A    between atoms: N_9  and  C_10
REMARK    4  A    between atoms: C_22  and  C_24
REMARK    5  A    between atoms: C_27  and  N_31
REMARK                            x       y       z     vdW  Elec       q    Type
REMARK                         _______ _______ _______ _____ _____    ______ ____
ROOT
ATOM      1  C   UNL     1       6.209  -2.148  -0.299  0.00  0.00    +0.001 A 
ATOM      2  C   UNL     1       6.128  -0.768  -0.209  0.00  0.00    +0.002 A 
ATOM      3  C   UNL     1       4.899  -0.143  -0.135  0.00  0.00    +0.024 A 
ATOM      4  C   UNL     1       3.733  -0.897  -0.150  0.00  0.00    +0.046 A 
ATOM      5  C   UNL     1       3.812  -2.296  -0.235  0.00  0.00    +0.058 A 
ATOM      6  C   UNL     1       5.063  -2.913  -0.315  0.00  0.00    +0.015 A 
ENDROOT
BRANCH   5   7
ATOM      7  C   UNL     1       2.582  -3.109  -0.245  0.00  0.00    +0.250 C 
ATOM      8  O   UNL     1       1.494  -2.565  -0.271  0.00  0.00    -0.270 OA
ATOM      9  N   UNL     1       2.662  -4.454  -0.227  0.00  0.00    -0.281 N 
ATOM     10  H   UNL     1       3.643  -4.947  -0.298  0.00  0.00    +0.155 HD
BRANCH   9  11
ATOM     11  C   UNL     1       1.498  -5.224  -0.116  0.00  0.00    +0.036 A 
ATOM     12  C   UNL     1       1.471  -6.518  -0.620  0.00  0.00    +0.027 A 
ATOM     13  C   UNL     1       0.326  -7.284  -0.508  0.00  0.00    +0.049 A 
ATOM     14  C   UNL     1      -0.801  -6.757   0.098  0.00  0.00    +0.142 A 
ATOM     15  C   UNL     1      -0.780  -5.456   0.599  0.00  0.00    +0.077 A 
ATOM     16  C   UNL     1       0.369  -4.691   0.492  0.00  0.00    +0.050 A 
ATOM     17  N   UNL     1      -1.931  -4.937   1.208  0.00  0.00    -0.280 N 
ATOM     18  C   UNL     1      -2.914  -5.785   1.581  0.00  0.00    +0.255 C 
ATOM     19  O   UNL     1      -3.931  -5.356   2.083  0.00  0.00    -0.272 OA
ATOM     20  C   UNL     1      -2.741  -7.268   1.372  0.00  0.00    +0.325 C 
ATOM     21  O   UNL     1      -1.937  -7.499   0.212  0.00  0.00    -0.481 OA
ATOM     22  H   UNL     1      -2.023  -3.854   1.376  0.00  0.00    +0.155 HD
ENDBRANCH   9  11
ENDBRANCH   5   7
BRANCH   4  23
ATOM     23  N   UNL     1       2.493  -0.270  -0.076  0.00  0.00    -0.281 N 
ATOM     24  C   UNL     1       2.385   0.942   0.504  0.00  0.00    +0.250 C 
ATOM     25  O   UNL     1       3.348   1.441   1.054  0.00  0.00    -0.270 OA
ATOM     26  H   UNL     1       1.601  -0.763  -0.490  0.00  0.00    +0.155 HD
BRANCH  24  27
ATOM     27  C   UNL     1       1.097   1.664   0.472  0.00  0.00    +0.055 A 
ATOM     28  C   UNL     1      -0.011   1.094  -0.158  0.00  0.00    +0.017 A 
ATOM     29  C   UNL     1      -1.210   1.775  -0.189  0.00  0.00    +0.033 A 
ATOM     30  C   UNL     1      -1.320   3.018   0.411  0.00  0.00    +0.128 A 
ATOM     31  C   UNL     1      -0.227   3.589   1.038  0.00  0.00    +0.053 A 
ATOM     32  C   UNL     1       0.981   2.920   1.072  0.00  0.00    +0.055 A 
ATOM     33 CL   UNL     1       2.352   3.639   1.859  0.00  0.00    -0.083 Cl
BRANCH  30  34
ATOM     34  N   UNL     1      -2.611   3.740   0.378  0.00  0.00    +0.056 N 
ATOM     35  O   UNL     1      -2.709   4.836   0.901  0.00  0.00    -0.126 OA
ATOM     36  O   UNL     1      -3.575   3.240  -0.173  0.00  0.00    -0.126 OA
ENDBRANCH  30  34
ENDBRANCH  24  27
ENDBRANCH   4  23
TORSDOF 5
