REMARK  Name = ZINC26179842
REMARK  10 active torsions:
REMARK  status: ('A' for Active; 'I' for Inactive)
REMARK    1  A    between atoms: C_1  and  C_2
REMARK    2  A    between atoms: C_2  and  C_4
REMARK    3  A    between atoms: C_2  and  N_15
REMARK    4  A    between atoms: C_7  and  N_10
REMARK    5  A    between atoms: N_15  and  C_16
REMARK    6  A    between atoms: N_19  and  C_20
REMARK    7  A    between atoms: C_22  and  C_28
REMARK    8  A    between atoms: C_22  and  C_29
REMARK    9  A    between atoms: C_24  and  C_26
REMARK   10  A    between atoms: C_24  and  C_27
REMARK                            x       y       z     vdW  Elec       q    Type
REMARK                         _______ _______ _______ _____ _____    ______ ____
ROOT
ATOM      1  N   UNL     1       0.915  -0.550   1.281  0.00  0.00    -0.282 N 
ATOM      2  C   UNL     1       0.418  -0.276   2.631  0.00  0.00    +0.134 C 
ATOM      3  C   UNL     1       2.133  -1.100   1.109  0.00  0.00    +0.303 C 
ATOM      4  O   UNL     1       2.545  -1.327  -0.012  0.00  0.00    -0.253 OA
ATOM      5  N   UNL     1       2.895  -1.398   2.181  0.00  0.00    -0.296 N 
ATOM      6  H   UNL     1       2.566  -1.217   3.075  0.00  0.00    +0.151 HD
ENDROOT
BRANCH   5   7
ATOM      7  C   UNL     1       4.222  -1.997   1.994  0.00  0.00    +0.072 C 
ATOM      8  C   UNL     1       4.078  -3.518   1.900  0.00  0.00    +0.009 C 
ATOM      9  C   UNL     1       5.454  -4.158   1.718  0.00  0.00    -0.072 C 
ATOM     10  N   UNL     1       6.391  -3.749   2.754  0.00  0.00    +0.386 N 
ATOM     11  C   UNL     1       6.465  -2.333   3.076  0.00  0.00    -0.072 C 
ATOM     12  C   UNL     1       5.096  -1.672   3.204  0.00  0.00    +0.009 C 
ATOM     13  C   UNL     1       7.322  -1.566   2.066  0.00  0.00    -0.010 C 
ATOM     14  C   UNL     1       7.166  -2.206   4.450  0.00  0.00    -0.010 C 
ATOM     15  C   UNL     1       5.988  -3.873   0.314  0.00  0.00    -0.010 C 
ATOM     16  C   UNL     1       5.267  -5.688   1.835  0.00  0.00    -0.010 C 
ATOM     17  H   UNL     1       6.166  -4.263   3.610  0.00  0.00    -0.084 HD
ATOM     18  H   UNL     1       7.325  -4.068   2.487  0.00  0.00    -0.084 HD
ENDBRANCH   5   7
BRANCH   1  20
ATOM     19  C   UNL     1      -0.339   1.242   0.186  0.00  0.00    +0.033 C 
ATOM     20  C   UNL     1       0.087  -0.226   0.116  0.00  0.00    +0.104 C 
BRANCH  20  21
ATOM     21  C   UNL     1      -1.137  -1.104   0.110  0.00  0.00    -0.027 A 
ATOM     22  C   UNL     1      -1.417  -1.891  -0.993  0.00  0.00    +0.007 A 
ATOM     23  C   UNL     1      -2.538  -2.697  -1.001  0.00  0.00    +0.028 A 
ATOM     24  C   UNL     1      -3.385  -2.718   0.099  0.00  0.00    +0.067 A 
ATOM     25  C   UNL     1      -3.102  -1.927   1.205  0.00  0.00    +0.028 A 
ATOM     26  C   UNL     1      -1.976  -1.127   1.209  0.00  0.00    +0.007 A 
BRANCH  24  27
ATOM     27  N   UNL     1      -4.524  -3.535   0.093  0.00  0.00    -0.220 N 
ATOM     28  C   UNL     1      -5.436  -3.657   1.078  0.00  0.00    +0.225 A 
ATOM     29  N   UNL     1      -6.342  -4.516   0.686  0.00  0.00    -0.222 NA
ATOM     30  C   UNL     1      -6.046  -4.962  -0.534  0.00  0.00    +0.245 A 
ATOM     31  N   UNL     1      -4.945  -4.386  -0.942  0.00  0.00    -0.154 NA
ENDBRANCH  24  27
ENDBRANCH  20  21
ENDBRANCH   1  20
TORSDOF 4
