REMARK  Name = ZINC53115876
REMARK  9 active torsions:
REMARK  status: ('A' for Active; 'I' for Inactive)
REMARK    1  A    between atoms: C_1  and  C_2
REMARK    2  A    between atoms: C_7  and  C_9
REMARK    3  A    between atoms: C_7  and  N_11
REMARK    4  A    between atoms: C_9  and  O_10
REMARK    5  A    between atoms: N_11  and  C_12
REMARK    6  A    between atoms: C_12  and  C_13
REMARK    7  A    between atoms: C_15  and  O_21
REMARK    8  A    between atoms: C_16  and  O_20
REMARK    9  A    between atoms: O_21  and  C_22
REMARK                            x       y       z     vdW  Elec       q    Type
REMARK                         _______ _______ _______ _____ _____    ______ ____
ROOT
ATOM      1  N   UNL     1       1.436  -2.630   2.315  0.00  0.00    +0.387 N 
ATOM      2  H   UNL     1       1.558  -3.620   2.158  0.00  0.00    -0.085 HD
ATOM      3  H   UNL     1       2.337  -2.197   2.446  0.00  0.00    -0.085 HD
ENDROOT
BRANCH   1   9
ATOM      4  C   UNL     1      -0.091   1.629   0.314  0.00  0.00    +0.007 C 
ATOM      5  C   UNL     1      -0.009   0.113   0.128  0.00  0.00    -0.015 C 
ATOM      6  C   UNL     1       0.788  -0.204  -1.139  0.00  0.00    +0.003 C 
ATOM      7  C   UNL     1       0.869  -1.721  -1.325  0.00  0.00    -0.001 C 
ATOM      8  C   UNL     1       1.565  -2.346  -0.114  0.00  0.00    -0.010 C 
ATOM      9  C   UNL     1       0.768  -2.030   1.152  0.00  0.00    -0.044 C 
ATOM     10  C   UNL     1       0.686  -0.513   1.338  0.00  0.00    -0.007 C 
BRANCH   9  11
ATOM     11  C   UNL     1      -0.645  -2.604   1.023  0.00  0.00    +0.143 C 
BRANCH  11  12
ATOM     12  O   UNL     1      -0.576  -4.030   0.974  0.00  0.00    -0.396 OA
ATOM     13  H   UNL     1      -1.437  -4.463   0.891  0.00  0.00    +0.209 HD
ENDBRANCH  11  12
ENDBRANCH   9  11
ENDBRANCH   1   9
BRANCH   1  14
ATOM     14  C   UNL     1       0.613  -2.422   3.514  0.00  0.00    -0.046 C 
BRANCH  14  15
ATOM     15  C   UNL     1       1.355  -2.927   4.725  0.00  0.00    -0.060 A 
ATOM     16  C   UNL     1       1.206  -4.242   5.126  0.00  0.00    +0.051 A 
ATOM     17  C   UNL     1       1.887  -4.708   6.240  0.00  0.00    +0.163 A 
ATOM     18  C   UNL     1       2.720  -3.850   6.952  0.00  0.00    +0.173 A 
ATOM     19  C   UNL     1       2.864  -2.533   6.544  0.00  0.00    +0.063 A 
ATOM     20  C   UNL     1       2.186  -2.076   5.429  0.00  0.00    +0.021 A 
ATOM     21 BR   UNL     1       3.995  -1.363   7.509  0.00  0.00    -0.046 Br
BRANCH  18  22
ATOM     22  O   UNL     1       3.389  -4.302   8.046  0.00  0.00    -0.503 OA
ATOM     23  H   UNL     1       4.263  -4.667   7.849  0.00  0.00    +0.292 HD
ENDBRANCH  18  22
BRANCH  17  24
ATOM     24  O   UNL     1       1.741  -6.000   6.636  0.00  0.00    -0.491 OA
ATOM     25  C   UNL     1       0.870  -6.823   5.857  0.00  0.00    +0.277 C 
ENDBRANCH  17  24
ENDBRANCH  14  15
ENDBRANCH   1  14
TORSDOF 7
