REMARK  Name = ZINC35395424
REMARK  14 active torsions:
REMARK  status: ('A' for Active; 'I' for Inactive)
REMARK    1  A    between atoms: C_10  and  O_11
REMARK    2  A    between atoms: O_11  and  C_12
REMARK    3  A    between atoms: C_12  and  C_13
REMARK    4  A    between atoms: C_13  and  C_15
REMARK    5  A    between atoms: C_13  and  O_38
REMARK    6  A    between atoms: C_15  and  N_16
REMARK    7  A    between atoms: N_16  and  C_17
REMARK    8  A    between atoms: C_17  and  C_18
REMARK    9  A    between atoms: C_18  and  N_19
REMARK   10  A    between atoms: C_20  and  C_22
REMARK   11  A    between atoms: C_22  and  C_23
REMARK   12  A    between atoms: C_23  and  C_24
REMARK   13  A    between atoms: C_24  and  C_25
REMARK   14  A    between atoms: C_25  and  C_26
REMARK                            x       y       z     vdW  Elec       q    Type
REMARK                         _______ _______ _______ _____ _____    ______ ____
ROOT
ATOM      1  C   UNL     1      10.924  -0.401   0.263  0.00  0.00    -0.064 C 
ENDROOT
BRANCH   1   2
ATOM      2  N   UNL     1       9.682   0.377   0.158  0.00  0.00    +0.382 N 
ATOM      3  H   UNL     1       9.723   0.967  -0.659  0.00  0.00    -0.086 HD
ATOM      4  H   UNL     1       9.573   0.950   0.981  0.00  0.00    -0.086 HD
BRANCH   2   5
ATOM      5  C   UNL     1       8.539  -0.539   0.044  0.00  0.00    -0.047 C 
BRANCH   5   6
ATOM      6  C   UNL     1       7.246   0.271  -0.066  0.00  0.00    +0.135 C 
BRANCH   6   7
ATOM      7  O   UNL     1       7.254   1.018  -1.283  0.00  0.00    -0.390 OA
ATOM      8  H   UNL     1       7.317   0.473  -2.079  0.00  0.00    +0.210 HD
ENDBRANCH   6   7
BRANCH   6   9
ATOM      9  C   UNL     1       6.047  -0.680  -0.059  0.00  0.00    +0.258 C 
BRANCH   9  10
ATOM     10  O   UNL     1       4.837   0.080  -0.043  0.00  0.00    -0.489 OA
BRANCH  10  20
ATOM     11  C   UNL     1      -0.016   1.357   0.009  0.00  0.00    +0.001 A 
ATOM     12  C   UNL     1       1.169   2.090   0.002  0.00  0.00    +0.001 A 
ATOM     13  C   UNL     1       2.379   1.467  -0.013  0.00  0.00    +0.012 A 
ATOM     14  C   UNL     1       2.437   0.064  -0.021  0.00  0.00    +0.024 A 
ATOM     15  C   UNL     1       1.233  -0.683  -0.013  0.00  0.00    -0.014 A 
ATOM     16  C   UNL     1       0.002  -0.004   0.002  0.00  0.00    +0.008 A 
ATOM     17  C   UNL     1       1.292  -2.087  -0.021  0.00  0.00    +0.009 A 
ATOM     18  C   UNL     1       2.501  -2.713  -0.035  0.00  0.00    +0.004 A 
ATOM     19  C   UNL     1       3.687  -1.984  -0.043  0.00  0.00    +0.046 A 
ATOM     20  C   UNL     1       3.671  -0.617  -0.036  0.00  0.00    +0.128 A 
ENDBRANCH  10  20
ENDBRANCH   9  10
ENDBRANCH   6   9
ENDBRANCH   5   6
ENDBRANCH   2   5
ENDBRANCH   1   2
BRANCH   1  21
ATOM     21  C   UNL     1      12.115   0.553   0.382  0.00  0.00    +0.085 C 
BRANCH  21  22
ATOM     22  N   UNL     1      13.353  -0.222   0.487  0.00  0.00    -0.317 N 
ATOM     23  C   UNL     1      14.537   0.411   0.602  0.00  0.00    +0.213 C 
ATOM     24  O   UNL     1      14.577   1.623   0.618  0.00  0.00    -0.276 OA
ATOM     25  H   UNL     1      13.321  -1.192   0.474  0.00  0.00    +0.149 HD
BRANCH  23  26
ATOM     26  C   UNL     1      15.811  -0.386   0.710  0.00  0.00    +0.096 C 
BRANCH  26  27
ATOM     27  C   UNL     1      17.002   0.568   0.828  0.00  0.00    +0.009 C 
BRANCH  27  28
ATOM     28  C   UNL     1      18.295  -0.242   0.938  0.00  0.00    +0.002 C 
BRANCH  28  29
ATOM     29  C   UNL     1      19.485   0.712   1.056  0.00  0.00    +0.016 C 
BRANCH  29  30
ATOM     30  C   UNL     1      20.779  -0.098   1.166  0.00  0.00    +0.069 C 
ATOM     31  C   UNL     1      21.976   0.805   1.318  0.00  0.00    +0.108 C 
ATOM     32  C   UNL     1      23.232   0.064   0.764  0.00  0.00    +0.105 C 
ATOM     33  C   UNL     1      22.907  -0.250  -0.695  0.00  0.00    +0.093 C 
ATOM     34  S   UNL     1      21.183  -0.936  -0.437  0.00  0.00    -0.154 S 
ATOM     35  N   UNL     1      24.248   1.028   1.120  0.00  0.00    -0.294 N 
ATOM     36  C   UNL     1      23.814   1.603   2.281  0.00  0.00    +0.300 C 
ATOM     37  O   UNL     1      24.521   2.277   3.005  0.00  0.00    -0.253 OA
ATOM     38  N   UNL     1      22.508   1.322   2.544  0.00  0.00    -0.294 N 
ATOM     39  H   UNL     1      25.066   1.225   0.637  0.00  0.00    +0.151 HD
ATOM     40  H   UNL     1      22.039   1.452   3.383  0.00  0.00    +0.151 HD
ENDBRANCH  29  30
ENDBRANCH  28  29
ENDBRANCH  27  28
ENDBRANCH  26  27
ENDBRANCH  23  26
ENDBRANCH  21  22
ENDBRANCH   1  21
TORSDOF 14
