REMARK  Name = ZINC12872767
REMARK  5 active torsions:
REMARK  status: ('A' for Active; 'I' for Inactive)
REMARK    1  A    between atoms: C_5  and  C_7
REMARK    2  A    between atoms: C_7  and  N_8
REMARK    3  A    between atoms: C_13  and  C_29
REMARK    4  A    between atoms: C_29  and  C_30
REMARK    5  A    between atoms: C_30  and  C_31
REMARK                            x       y       z     vdW  Elec       q    Type
REMARK                         _______ _______ _______ _____ _____    ______ ____
ROOT
ATOM      1  N   UNL     1       2.917   4.091  -1.381  0.00  0.00    -0.237 N 
ATOM      2  C   UNL     1       2.599   5.146  -2.140  0.00  0.00    +0.224 C 
ATOM      3  O   UNL     1       1.901   6.075  -1.792  0.00  0.00    -0.275 OA
ATOM      4  C   UNL     1       3.243   5.000  -3.499  0.00  0.00    +0.073 C 
ATOM      5  C   UNL     1       2.148   4.775  -4.563  0.00  0.00    -0.057 C 
ATOM      6  C   UNL     1       3.259   2.726  -4.391  0.00  0.00    +0.050 C 
ATOM      7  C   UNL     1       3.988   3.639  -3.398  0.00  0.00    +0.088 C 
ATOM      8  C   UNL     1       3.700   3.189  -1.983  0.00  0.00    +0.225 C 
ATOM      9  O   UNL     1       4.112   2.169  -1.475  0.00  0.00    -0.275 OA
ATOM     10  C   UNL     1       3.186   1.312  -3.887  0.00  0.00    -0.028 A 
ATOM     11  C   UNL     1       2.646   0.735  -2.759  0.00  0.00    +0.004 A 
ATOM     12  C   UNL     1       2.742  -0.632  -2.568  0.00  0.00    +0.000 A 
ATOM     13  C   UNL     1       3.380  -1.416  -3.512  0.00  0.00    +0.002 A 
ATOM     14  C   UNL     1       3.922  -0.842  -4.643  0.00  0.00    +0.023 A 
ATOM     15  C   UNL     1       3.831   0.533  -4.843  0.00  0.00    +0.036 A 
ATOM     16  N   UNL     1       4.292   1.336  -5.889  0.00  0.00    -0.286 N 
ATOM     17  C   UNL     1       3.995   2.637  -5.700  0.00  0.00    +0.211 C 
ATOM     18  O   UNL     1       4.269   3.557  -6.441  0.00  0.00    -0.277 OA
ATOM     19  H   UNL     1       4.770   0.997  -6.662  0.00  0.00    +0.155 HD
ATOM     20  N   UNL     1       1.946   3.324  -4.563  0.00  0.00    +0.394 N 
ATOM     21  H   UNL     1       1.532   3.023  -5.453  0.00  0.00    -0.083 HD
ATOM     22  H   UNL     1       1.328   3.052  -3.789  0.00  0.00    -0.083 HD
ENDROOT
BRANCH   1  23
ATOM     23  C   UNL     1       2.451   3.939  -0.000  0.00  0.00    +0.153 C 
BRANCH  23  28
ATOM     24  C   UNL     1       5.386   3.957   2.374  0.00  0.00    +0.000 A 
ATOM     25  C   UNL     1       5.486   5.302   2.681  0.00  0.00    +0.001 A 
ATOM     26  C   UNL     1       4.598   6.205   2.127  0.00  0.00    +0.020 A 
ATOM     27  C   UNL     1       3.616   5.764   1.258  0.00  0.00    +0.046 A 
ATOM     28  C   UNL     1       3.520   4.420   0.947  0.00  0.00    -0.011 A 
ATOM     29  C   UNL     1       4.406   3.517   1.505  0.00  0.00    +0.006 A 
ATOM     30 CL   UNL     1       2.504   6.899   0.557  0.00  0.00    -0.083 Cl
ENDBRANCH  23  28
ENDBRANCH   1  23
BRANCH   5  31
ATOM     31  C   UNL     1       0.868   5.516  -4.174  0.00  0.00    -0.006 C 
BRANCH  31  32
ATOM     32  C   UNL     1      -0.161   5.384  -5.299  0.00  0.00    +0.094 C 
BRANCH  32  33
ATOM     33  C   UNL     1      -1.422   6.114  -4.916  0.00  0.00    +0.210 C 
ATOM     34  O   UNL     1      -1.491   6.685  -3.848  0.00  0.00    -0.276 OA
ATOM     35  N   UNL     1      -2.472   6.133  -5.760  0.00  0.00    -0.329 N 
ATOM     36  H   UNL     1      -2.417   5.677  -6.614  0.00  0.00    +0.145 HD
ATOM     37  H   UNL     1      -3.284   6.603  -5.513  0.00  0.00    +0.145 HD
ENDBRANCH  32  33
ENDBRANCH  31  32
ENDBRANCH   5  31
TORSDOF 5
