REMARK  Name = ZINC22683891
REMARK  15 active torsions:
REMARK  status: ('A' for Active; 'I' for Inactive)
REMARK    1  A    between atoms: C_1  and  C_2
REMARK    2  A    between atoms: C_2  and  C_3
REMARK    3  A    between atoms: C_6  and  C_9
REMARK    4  A    between atoms: C_9  and  C_11
REMARK    5  A    between atoms: C_9  and  N_33
REMARK    6  A    between atoms: C_11  and  N_12
REMARK    7  A    between atoms: C_13  and  C_15
REMARK    8  A    between atoms: C_15  and  N_16
REMARK    9  A    between atoms: C_22  and  C_25
REMARK   10  A    between atoms: C_25  and  C_26
REMARK   11  A    between atoms: C_25  and  C_27
REMARK   12  A    between atoms: C_25  and  C_28
REMARK   13  A    between atoms: C_28  and  C_29
REMARK   14  A    between atoms: N_33  and  C_34
REMARK   15  A    between atoms: N_33  and  C_35
REMARK                            x       y       z     vdW  Elec       q    Type
REMARK                         _______ _______ _______ _____ _____    ______ ____
ROOT
ATOM      1  C   UNL     1       3.945   3.059  -0.495  0.00  0.00    +0.213 C 
ENDROOT
BRANCH   1   2
ATOM      2  N   UNL     1       4.337   4.457  -0.300  0.00  0.00    -0.215 N 
ATOM      3  C   UNL     1       4.771   4.967   0.871  0.00  0.00    +0.247 C 
ATOM      4  O   UNL     1       4.904   4.379   1.923  0.00  0.00    -0.273 OA
ATOM      5  C   UNL     1       5.054   6.426   0.596  0.00  0.00    +0.113 C 
ATOM      6  C   UNL     1       6.527   6.736   0.840  0.00  0.00    +0.035 C 
ATOM      7  C   UNL     1       6.858   6.516   2.319  0.00  0.00    +0.006 C 
ATOM      8  C   UNL     1       5.978   7.427   3.177  0.00  0.00    -0.005 C 
ATOM      9  C   UNL     1       4.505   7.090   2.938  0.00  0.00    +0.006 C 
ATOM     10  C   UNL     1       4.166   7.312   1.462  0.00  0.00    +0.035 C 
ATOM     11  N   UNL     1       4.721   6.592  -0.824  0.00  0.00    -0.285 N 
ATOM     12  C   UNL     1       4.316   5.385  -1.264  0.00  0.00    +0.310 C 
ATOM     13  O   UNL     1       3.969   5.165  -2.408  0.00  0.00    -0.252 OA
ATOM     14  H   UNL     1       4.831   7.576  -1.303  0.00  0.00    +0.151 HD
BRANCH   8  15
ATOM     15  C   UNL     1       6.316   7.216   4.655  0.00  0.00    -0.032 C 
ATOM     16  C   UNL     1       5.438   8.128   5.514  0.00  0.00    +0.011 C 
ATOM     17  C   UNL     1       6.058   5.756   5.033  0.00  0.00    +0.011 C 
BRANCH  15  18
ATOM     18  C   UNL     1       7.789   7.552   4.894  0.00  0.00    +0.003 C 
ATOM     19  C   UNL     1       8.126   7.340   6.372  0.00  0.00    +0.004 C 
ENDBRANCH  15  18
ENDBRANCH   8  15
ENDBRANCH   1   2
BRANCH   1  21
ATOM     20  N   UNL     1       1.886   1.699  -0.324  0.00  0.00    -0.315 N 
ATOM     21  C   UNL     1       2.473   2.906  -0.209  0.00  0.00    +0.231 C 
ATOM     22  O   UNL     1       1.817   3.870   0.124  0.00  0.00    -0.274 OA
ATOM     23  H   UNL     1       2.481   0.824  -0.626  0.00  0.00    +0.149 HD
BRANCH  20  24
ATOM     24  C   UNL     1       0.455   1.550  -0.046  0.00  0.00    +0.093 C 
BRANCH  24  25
ATOM     25  C   UNL     1       0.069   0.072  -0.134  0.00  0.00    -0.021 C 
BRANCH  25  29
ATOM     26  C   UNL     1      -3.982  -0.419   1.128  0.00  0.00    -0.048 A 
ATOM     27  C   UNL     1      -3.608  -0.782  -0.152  0.00  0.00    +0.004 A 
ATOM     28  C   UNL     1      -2.297  -0.623  -0.561  0.00  0.00    +0.002 A 
ATOM     29  C   UNL     1      -1.360  -0.101   0.311  0.00  0.00    -0.059 A 
ATOM     30  C   UNL     1      -1.733   0.257   1.593  0.00  0.00    +0.002 A 
ATOM     31  C   UNL     1      -3.045   0.103   2.000  0.00  0.00    +0.004 A 
BRANCH  26  33
ATOM     32  C   UNL     1      -5.588  -1.982   2.191  0.00  0.00    +0.009 C 
ATOM     33  C   UNL     1      -5.411  -0.593   1.573  0.00  0.00    +0.032 C 
ENDBRANCH  26  33
ENDBRANCH  25  29
BRANCH  25  34
ATOM     34  N   UNL     1       0.952  -0.717   0.736  0.00  0.00    +0.382 N 
ATOM     35  C   UNL     1       1.360   0.060   1.914  0.00  0.00    -0.096 C 
ATOM     36  C   UNL     1       0.310  -1.977   1.132  0.00  0.00    -0.096 C 
ATOM     37  H   UNL     1       1.858  -0.964   0.163  0.00  0.00    -0.082 HD
ENDBRANCH  25  34
ENDBRANCH  24  25
ENDBRANCH  20  24
ENDBRANCH   1  21
TORSDOF 9
