REMARK  Name = ZINC35691209
REMARK  15 active torsions:
REMARK  status: ('A' for Active; 'I' for Inactive)
REMARK    1  A    between atoms: C_1  and  C_2
REMARK    2  A    between atoms: C_2  and  C_3
REMARK    3  A    between atoms: C_3  and  N_4
REMARK    4  A    between atoms: N_4  and  C_5
REMARK    5  A    between atoms: C_5  and  C_6
REMARK    6  A    between atoms: N_8  and  C_9
REMARK    7  A    between atoms: C_11  and  C_18
REMARK    8  A    between atoms: N_13  and  C_14
REMARK    9  A    between atoms: C_14  and  C_15
REMARK   10  A    between atoms: C_14  and  C_16
REMARK   11  A    between atoms: C_14  and  C_17
REMARK   12  A    between atoms: C_18  and  C_19
REMARK   13  A    between atoms: C_18  and  C_20
REMARK   14  A    between atoms: C_18  and  C_21
REMARK   15  A    between atoms: N_24  and  C_25
REMARK                            x       y       z     vdW  Elec       q    Type
REMARK                         _______ _______ _______ _____ _____    ______ ____
ROOT
ATOM      1  C   UNL     1      -1.370  -2.736   1.269  0.00  0.00    +0.205 C 
ENDROOT
BRANCH   1   2
ATOM      2  N   UNL     1      -1.397  -1.998   0.005  0.00  0.00    -0.277 N 
ATOM      3  C   UNL     1      -1.411  -2.666  -1.166  0.00  0.00    +0.307 C 
ATOM      4  O   UNL     1      -1.402  -3.881  -1.172  0.00  0.00    -0.252 OA
ATOM      5  N   UNL     1      -1.436  -1.986  -2.329  0.00  0.00    -0.268 N 
ATOM      6  H   UNL     1      -1.525  -1.020  -2.325  0.00  0.00    +0.156 HD
BRANCH   5   7
ATOM      7  C   UNL     1      -1.332  -2.674  -3.545  0.00  0.00    +0.053 A 
ATOM      8  C   UNL     1      -0.710  -3.914  -3.591  0.00  0.00    +0.026 A 
ATOM      9  C   UNL     1      -0.609  -4.591  -4.791  0.00  0.00    +0.022 A 
ATOM     10  C   UNL     1      -1.127  -4.035  -5.947  0.00  0.00    +0.042 A 
ATOM     11  C   UNL     1      -1.748  -2.799  -5.905  0.00  0.00    +0.041 A 
ATOM     12  C   UNL     1      -1.857  -2.120  -4.706  0.00  0.00    +0.064 A 
ATOM     13 CL   UNL     1      -2.643  -0.573  -4.651  0.00  0.00    -0.082 Cl
ATOM     14 CL   UNL     1      -0.998  -4.888  -7.453  0.00  0.00    -0.083 Cl
ENDBRANCH   5   7
BRANCH   2  15
ATOM     15  C   UNL     1      -1.407  -0.533   0.012  0.00  0.00    +0.109 C 
BRANCH  15  17
ATOM     16  C   UNL     1       0.020   1.518  -0.002  0.00  0.00    +0.005 C 
ATOM     17  C   UNL     1       0.031  -0.012  -0.009  0.00  0.00    +0.016 C 
ENDBRANCH  15  17
ENDBRANCH   2  15
ENDBRANCH   1   2
BRANCH   1  18
ATOM     18  C   UNL     1      -2.781  -3.000   1.727  0.00  0.00    +0.236 C 
ATOM     19  O   UNL     1      -3.717  -2.610   1.062  0.00  0.00    -0.274 OA
ATOM     20  N   UNL     1      -3.004  -3.670   2.875  0.00  0.00    -0.269 N 
ATOM     21  H   UNL     1      -2.255  -3.983   3.407  0.00  0.00    +0.156 HD
BRANCH  20  22
ATOM     22  C   UNL     1      -4.310  -3.915   3.298  0.00  0.00    +0.124 A 
ATOM     23  C   UNL     1      -5.448  -3.541   2.652  0.00  0.00    +0.069 A 
ATOM     24  C   UNL     1      -6.535  -3.981   3.411  0.00  0.00    +0.070 A 
ATOM     25  N   UNL     1      -6.076  -4.593   4.472  0.00  0.00    -0.174 NA
ATOM     26  N   UNL     1      -4.676  -4.571   4.423  0.00  0.00    -0.245 N 
BRANCH  26  27
ATOM     27  C   UNL     1      -3.769  -5.152   5.416  0.00  0.00    +0.057 C 
ATOM     28  C   UNL     1      -2.885  -4.051   6.005  0.00  0.00    +0.036 C 
ATOM     29  C   UNL     1      -4.586  -5.803   6.534  0.00  0.00    +0.036 C 
ATOM     30  C   UNL     1      -2.889  -6.209   4.746  0.00  0.00    +0.036 C 
ENDBRANCH  26  27
BRANCH  24  31
ATOM     31  C   UNL     1      -7.989  -3.782   3.068  0.00  0.00    +0.006 C 
ATOM     32  C   UNL     1      -8.383  -4.740   1.942  0.00  0.00    +0.017 C 
ATOM     33  C   UNL     1      -8.848  -4.064   4.302  0.00  0.00    +0.017 C 
ATOM     34  C   UNL     1      -8.213  -2.339   2.611  0.00  0.00    +0.017 C 
ENDBRANCH  24  31
ENDBRANCH  20  22
ENDBRANCH   1  18
TORSDOF 8
