REMARK  Name = ZINC35361451
REMARK  11 active torsions:
REMARK  status: ('A' for Active; 'I' for Inactive)
REMARK    1  A    between atoms: C_1  and  C_2
REMARK    2  A    between atoms: C_2  and  C_4
REMARK    3  A    between atoms: C_4  and  O_40
REMARK    4  A    between atoms: C_9  and  C_39
REMARK    5  A    between atoms: N_21  and  O_22
REMARK    6  A    between atoms: O_22  and  C_23
REMARK    7  A    between atoms: C_23  and  C_24
REMARK    8  A    between atoms: N_26  and  C_27
REMARK    9  A    between atoms: C_27  and  C_28
REMARK   10  A    between atoms: C_28  and  C_29
REMARK   11  A    between atoms: C_37  and  C_38
REMARK                            x       y       z     vdW  Elec       q    Type
REMARK                         _______ _______ _______ _____ _____    ______ ____
ROOT
ATOM      1  C   UNL     1      -1.295  -0.779   0.001  0.00  0.00    +0.129 C 
ATOM      2  C   UNL     1      -1.773  -1.068  -1.447  0.00  0.00    +0.043 C 
ATOM      3  C   UNL     1      -1.966  -2.611  -1.541  0.00  0.00    +0.008 C 
ATOM      4  C   UNL     1      -2.192  -2.978  -0.067  0.00  0.00    +0.002 C 
ATOM      5  C   UNL     1      -1.066  -2.171   0.611  0.00  0.00    +0.007 C 
ATOM      6  C   UNL     1      -1.202  -2.284   2.110  0.00  0.00    +0.010 C 
ATOM      7  C   UNL     1      -1.084  -3.775   2.494  0.00  0.00    +0.005 C 
ATOM      8  C   UNL     1      -2.164  -4.591   1.812  0.00  0.00    +0.002 C 
ATOM      9  C   UNL     1      -2.184  -4.439   0.296  0.00  0.00    -0.003 C 
ATOM     10  C   UNL     1      -1.157  -5.242  -0.468  0.00  0.00    +0.008 C 
ATOM     11  C   UNL     1      -0.475  -6.305   0.386  0.00  0.00    +0.031 C 
ATOM     12  C   UNL     1      -1.526  -6.927   1.270  0.00  0.00    -0.062 C 
ATOM     13  C   UNL     1      -1.824  -8.212   1.174  0.00  0.00    +0.026 C 
ATOM     14  C   UNL     1      -2.877  -8.807   2.005  0.00  0.00    +0.080 C 
ATOM     15  N   UNL     1      -3.042 -10.094   2.011  0.00  0.00    -0.089 NA
ATOM     16  C   UNL     1      -3.779  -7.933   2.837  0.00  0.00    +0.059 C 
ATOM     17  C   UNL     1      -3.695  -6.483   2.364  0.00  0.00    +0.017 C 
ATOM     18  C   UNL     1      -2.230  -6.039   2.267  0.00  0.00    -0.007 C 
ATOM     19  C   UNL     1      -1.566  -6.217   3.634  0.00  0.00    +0.016 C 
ATOM     20  C   UNL     1       0.337  -2.611   0.196  0.00  0.00    +0.015 C 
ENDROOT
BRANCH   1  22
ATOM     21  C   UNL     1       0.420   0.779   1.199  0.00  0.00    +0.089 C 
ATOM     22  C   UNL     1      -0.004  -0.006  -0.015  0.00  0.00    +0.162 C 
ATOM     23  O   UNL     1       0.693  -0.015  -1.001  0.00  0.00    -0.295 OA
ENDBRANCH   1  22
BRANCH   1  24
ATOM     24  O   UNL     1      -2.297  -0.079   0.732  0.00  0.00    -0.381 OA
ATOM     25  H   UNL     1      -2.500   0.799   0.380  0.00  0.00    +0.211 HD
ENDBRANCH   1  24
BRANCH  15  26
ATOM     26  O   UNL     1      -2.207 -10.919   1.218  0.00  0.00    -0.384 OA
BRANCH  26  27
ATOM     27  C   UNL     1      -2.500 -12.313   1.322  0.00  0.00    +0.358 C 
BRANCH  27  28
ATOM     28  C   UNL     1      -1.556 -13.092   0.442  0.00  0.00    +0.253 C 
ATOM     29  O   UNL     1      -0.716 -12.509  -0.210  0.00  0.00    -0.272 OA
ATOM     30  N   UNL     1      -1.646 -14.435   0.379  0.00  0.00    -0.312 N 
ATOM     31  H   UNL     1      -2.318 -14.901   0.900  0.00  0.00    +0.149 HD
BRANCH  30  32
ATOM     32  C   UNL     1      -0.729 -15.191  -0.477  0.00  0.00    +0.110 C 
BRANCH  32  33
ATOM     33  C   UNL     1      -1.042 -16.685  -0.366  0.00  0.00    +0.073 C 
BRANCH  33  34
ATOM     34  C   UNL     1      -0.099 -17.463  -1.246  0.00  0.00    +0.035 A 
ATOM     35  C   UNL     1      -0.258 -17.700  -2.562  0.00  0.00    +0.105 A 
ATOM     36  N   UNL     1       0.822 -18.438  -2.965  0.00  0.00    -0.352 N 
ATOM     37  H   UNL     1       0.994 -18.765  -3.862  0.00  0.00    +0.166 HD
ATOM     38  C   UNL     1       1.605 -18.626  -1.881  0.00  0.00    +0.171 A 
ATOM     39  N   UNL     1       1.050 -18.036  -0.857  0.00  0.00    -0.350 N 
ATOM     40  H   UNL     1       1.411 -18.016   0.043  0.00  0.00    +0.166 HD
ENDBRANCH  33  34
ENDBRANCH  32  33
ENDBRANCH  30  32
ENDBRANCH  27  28
ENDBRANCH  26  27
ENDBRANCH  15  26
TORSDOF 8
