REMARK  Name = ZINC17089996
REMARK  6 active torsions:
REMARK  status: ('A' for Active; 'I' for Inactive)
REMARK    1  A    between atoms: C_1  and  C_2
REMARK    2  A    between atoms: C_9  and  N_17
REMARK    3  A    between atoms: C_10  and  C_11
REMARK    4  A    between atoms: N_13  and  C_14
REMARK    5  A    between atoms: C_18  and  C_20
REMARK    6  A    between atoms: C_27  and  C_29
REMARK                            x       y       z     vdW  Elec       q    Type
REMARK                         _______ _______ _______ _____ _____    ______ ____
ROOT
ATOM      1  C   UNL     1       5.997   2.104   8.883  0.00  0.00    +0.008 C 
ATOM      2  C   UNL     1       5.662   2.600   7.475  0.00  0.00    -0.009 C 
ATOM      3  C   UNL     1       6.900   2.487   6.580  0.00  0.00    +0.008 C 
ATOM      4  C   UNL     1       6.650   3.205   5.253  0.00  0.00    +0.037 C 
ATOM      5  C   UNL     1       5.348   2.689   4.653  0.00  0.00    -0.023 A 
ATOM      6  C   UNL     1       4.440   2.041   5.415  0.00  0.00    -0.004 A 
ATOM      7  S   UNL     1       3.118   1.646   4.306  0.00  0.00    -0.077 S 
ATOM      8  C   UNL     1       3.765   2.321   2.848  0.00  0.00    +0.084 A 
ATOM      9  C   UNL     1       4.985   2.843   3.255  0.00  0.00    +0.069 A 
ATOM     10  C   UNL     1       4.540   1.739   6.878  0.00  0.00    +0.046 C 
ENDROOT
BRANCH   9  11
ATOM     11  C   UNL     1       5.874   3.525   2.309  0.00  0.00    +0.247 C 
ATOM     12  O   UNL     1       5.775   4.726   2.139  0.00  0.00    -0.270 OA
ATOM     13  N   UNL     1       6.800   2.822   1.628  0.00  0.00    -0.308 N 
ATOM     14  H   UNL     1       6.878   1.865   1.763  0.00  0.00    +0.149 HD
BRANCH  13  15
ATOM     15  C   UNL     1       7.688   3.503   0.683  0.00  0.00    +0.073 C 
ATOM     16  C   UNL     1       7.931   2.830  -0.669  0.00  0.00    +0.024 C 
ATOM     17  C   UNL     1       9.039   2.850   0.387  0.00  0.00    +0.024 C 
ENDBRANCH  13  15
ENDBRANCH   9  11
BRANCH   8  18
ATOM     18  N   UNL     1       3.199   2.340   1.582  0.00  0.00    -0.279 N 
ATOM     19  C   UNL     1       1.993   1.776   1.374  0.00  0.00    +0.222 C 
ATOM     20  O   UNL     1       1.402   1.252   2.295  0.00  0.00    -0.275 OA
ATOM     21  H   UNL     1       3.672   2.759   0.846  0.00  0.00    +0.155 HD
BRANCH  19  22
ATOM     22  C   UNL     1       1.378   1.797  -0.002  0.00  0.00    +0.096 C 
ATOM     23  C   UNL     1      -0.013   1.086   0.008  0.00  0.00    +0.025 C 
ATOM     24  C   UNL     1      -0.699   1.789  -1.220  0.00  0.00    +0.016 C 
ATOM     25  C   UNL     1      -0.505   3.229  -0.621  0.00  0.00    +0.027 C 
ATOM     26  C   UNL     1       1.045   3.248  -0.427  0.00  0.00    +0.121 C 
ATOM     27  C   UNL     1      -1.055   3.023   0.796  0.00  0.00    -0.027 C 
ATOM     28  C   UNL     1      -0.763   1.750   1.169  0.00  0.00    -0.027 C 
BRANCH  26  29
ATOM     29  C   UNL     1       1.736   3.592  -1.721  0.00  0.00    +0.360 C 
ATOM     30  O   UNL     1       2.434   2.773  -2.270  0.00  0.00    -0.246 OA
ATOM     31  O   UNL     1       1.577   4.810  -2.263  0.00  0.00    -0.246 OA
ENDBRANCH  26  29
ENDBRANCH  19  22
ENDBRANCH   8  18
TORSDOF 5
