REMARK  Name = ZINC67261109
REMARK  10 active torsions:
REMARK  status: ('A' for Active; 'I' for Inactive)
REMARK    1  A    between atoms: C_1  and  C_2
REMARK    2  A    between atoms: C_2  and  C_4
REMARK    3  A    between atoms: C_2  and  N_16
REMARK    4  A    between atoms: C_8  and  S_10
REMARK    5  A    between atoms: S_10  and  N_13
REMARK    6  A    between atoms: N_13  and  C_14
REMARK    7  A    between atoms: N_13  and  C_15
REMARK    8  A    between atoms: N_19  and  C_20
REMARK    9  A    between atoms: N_26  and  C_27
REMARK   10  A    between atoms: N_26  and  C_28
REMARK                            x       y       z     vdW  Elec       q    Type
REMARK                         _______ _______ _______ _____ _____    ______ ____
ROOT
ATOM      1  N   UNL     1       0.688  -0.481  -1.200  0.00  0.00    -0.293 N 
ATOM      2  C   UNL     1       2.031  -0.586  -1.214  0.00  0.00    +0.304 C 
ATOM      3  O   UNL     1       2.675  -0.289  -0.226  0.00  0.00    -0.252 OA
ATOM      4  N   UNL     1       2.662  -1.019  -2.323  0.00  0.00    -0.268 N 
ATOM      5  H   UNL     1       0.174  -0.718  -1.988  0.00  0.00    +0.151 HD
ATOM      6  H   UNL     1       2.146  -1.321  -3.088  0.00  0.00    +0.156 HD
ENDROOT
BRANCH   4   7
ATOM      7  C   UNL     1       4.063  -1.036  -2.372  0.00  0.00    +0.051 A 
ATOM      8  C   UNL     1       4.806  -1.331  -1.230  0.00  0.00    +0.028 A 
ATOM      9  C   UNL     1       6.185  -1.336  -1.324  0.00  0.00    +0.043 A 
ATOM     10  C   UNL     1       6.782  -1.048  -2.547  0.00  0.00    +0.098 A 
ATOM     11  N   UNL     1       6.045  -0.772  -3.611  0.00  0.00    -0.348 N 
ATOM     12  C   UNL     1       4.727  -0.764  -3.558  0.00  0.00    +0.107 A 
ATOM     13  N   UNL     1       8.171  -1.051  -2.653  0.00  0.00    -0.323 N 
ATOM     14  C   UNL     1       8.992  -1.462  -1.511  0.00  0.00    +0.130 C 
ATOM     15  C   UNL     1       8.810  -0.643  -3.906  0.00  0.00    +0.130 C 
ATOM     16  H   UNL     1       6.486  -0.575  -4.452  0.00  0.00    +0.167 HD
ENDBRANCH   4   7
BRANCH   1  18
ATOM     17  C   UNL     1      -0.025   1.520   0.012  0.00  0.00    +0.033 C 
ATOM     18  C   UNL     1       0.002  -0.009   0.006  0.00  0.00    +0.102 C 
BRANCH  18  19
ATOM     19  C   UNL     1      -1.409  -0.537   0.021  0.00  0.00    -0.026 A 
ATOM     20  C   UNL     1      -2.141  -0.585  -1.151  0.00  0.00    +0.005 A 
ATOM     21  C   UNL     1      -3.436  -1.069  -1.138  0.00  0.00    +0.002 A 
ATOM     22  C   UNL     1      -3.999  -1.505   0.047  0.00  0.00    +0.028 A 
ATOM     23  C   UNL     1      -3.267  -1.458   1.218  0.00  0.00    +0.106 A 
ATOM     24  C   UNL     1      -1.970  -0.978   1.204  0.00  0.00    +0.034 A 
BRANCH  23  25
ATOM     25  S   UNL     1      -3.984  -2.013   2.729  0.00  0.00    +0.060 S 
ATOM     26  O   UNL     1      -3.284  -1.357   3.777  0.00  0.00    -0.153 OA
ATOM     27  O   UNL     1      -5.393  -1.909   2.572  0.00  0.00    -0.153 OA
BRANCH  25  28
ATOM     28  N   UNL     1      -3.642  -3.627   2.869  0.00  0.00    -0.183 NA
ATOM     29  C   UNL     1      -2.416  -4.060   3.545  0.00  0.00    +0.131 C 
ATOM     30  C   UNL     1      -4.565  -4.622   2.317  0.00  0.00    +0.131 C 
ENDBRANCH  25  28
ENDBRANCH  23  25
ENDBRANCH  18  19
ENDBRANCH   1  18
TORSDOF 5
