REMARK  Name = ZINC11068436
REMARK  8 active torsions:
REMARK  status: ('A' for Active; 'I' for Inactive)
REMARK    1  A    between atoms: C_1  and  C_2
REMARK    2  A    between atoms: C_2  and  O_3
REMARK    3  A    between atoms: O_3  and  C_4
REMARK    4  A    between atoms: N_13  and  C_14
REMARK    5  A    between atoms: C_14  and  C_15
REMARK    6  A    between atoms: C_21  and  C_23
REMARK    7  A    between atoms: C_26  and  S_29
REMARK    8  A    between atoms: S_29  and  N_32
REMARK                            x       y       z     vdW  Elec       q    Type
REMARK                         _______ _______ _______ _____ _____    ______ ____
ROOT
ATOM      1  C   UNL     1       0.983  -3.236   5.382  0.00  0.00    +0.122 A 
ATOM      2  C   UNL     1       1.565  -1.992   5.603  0.00  0.00    +0.048 A 
ATOM      3  C   UNL     1       1.629  -1.047   4.613  0.00  0.00    +0.032 A 
ATOM      4  C   UNL     1       1.102  -1.309   3.327  0.00  0.00    +0.081 A 
ATOM      5  C   UNL     1       0.519  -2.582   3.137  0.00  0.00    +0.044 A 
ATOM      6  C   UNL     1       0.456  -3.526   4.132  0.00  0.00    +0.063 A 
ATOM      7  S   UNL     1      -0.005  -2.509   1.440  0.00  0.00    -0.052 S 
ATOM      8  C   UNL     1       0.565  -0.849   1.101  0.00  0.00    +0.168 A 
ATOM      9  N   UNL     1       1.091  -0.493   2.249  0.00  0.00    -0.224 NA
ATOM     10  N   UNL     1       0.477  -0.125  -0.077  0.00  0.00    -0.244 N 
ATOM     11  C   UNL     1      -0.102  -0.673  -1.163  0.00  0.00    +0.252 C 
ATOM     12  O   UNL     1      -0.605  -1.777  -1.092  0.00  0.00    -0.270 OA
ENDROOT
BRANCH  11  13
ATOM     13  C   UNL     1      -0.124   0.069  -2.442  0.00  0.00    +0.037 A 
ATOM     14  C   UNL     1      -0.561   1.394  -2.476  0.00  0.00    +0.015 A 
ATOM     15  C   UNL     1      -0.574   2.082  -3.671  0.00  0.00    +0.029 A 
ATOM     16  C   UNL     1      -0.166   1.458  -4.837  0.00  0.00    +0.106 A 
ATOM     17  C   UNL     1       0.263   0.143  -4.811  0.00  0.00    +0.029 A 
ATOM     18  C   UNL     1       0.286  -0.555  -3.621  0.00  0.00    +0.015 A 
BRANCH  16  19
ATOM     19  S   UNL     1      -0.192   2.342  -6.361  0.00  0.00    +0.061 S 
ATOM     20  O   UNL     1      -0.116   3.722  -6.031  0.00  0.00    -0.153 OA
ATOM     21  O   UNL     1       0.752   1.710  -7.214  0.00  0.00    -0.153 OA
BRANCH  19  22
ATOM     22  N   UNL     1      -1.682   2.100  -7.041  0.00  0.00    -0.177 NA
ATOM     23  C   UNL     1      -2.036   1.013  -7.966  0.00  0.00    +0.109 C 
ATOM     24  C   UNL     1      -3.517   1.204  -8.354  0.00  0.00    +0.018 C 
ATOM     25  C   UNL     1      -3.754   2.713  -8.079  0.00  0.00    +0.018 C 
ATOM     26  C   UNL     1      -2.873   2.943  -6.825  0.00  0.00    +0.109 C 
ENDBRANCH  19  22
ENDBRANCH  16  19
ENDBRANCH  11  13
BRANCH   1  27
ATOM     27  O   UNL     1       0.930  -4.158   6.381  0.00  0.00    -0.492 OA
BRANCH  27  29
ATOM     28  C   UNL     1       1.343  -4.940   8.630  0.00  0.00    +0.048 C 
ATOM     29  C   UNL     1       1.494  -3.784   7.639  0.00  0.00    +0.225 C 
ENDBRANCH  27  29
ENDBRANCH   1  27
BRANCH  10  30
ATOM     30  C   UNL     1       1.014   1.236  -0.141  0.00  0.00    +0.147 C 
BRANCH  30  31
ATOM     31  C   UNL     1       2.515   1.179  -0.433  0.00  0.00    +0.136 C 
ATOM     32  C   UNL     1       3.127   2.597  -0.382  0.00  0.00    +0.035 C 
ATOM     33  C   UNL     1       4.181   2.592  -1.512  0.00  0.00    +0.031 C 
ATOM     34  C   UNL     1       4.081   1.172  -2.112  0.00  0.00    +0.160 C 
ATOM     35  O   UNL     1       2.747   0.726  -1.785  0.00  0.00    -0.375 OA
ENDBRANCH  30  31
ENDBRANCH  10  30
TORSDOF 7
