REMARK  Name = ZINC64417771
REMARK  8 active torsions:
REMARK  status: ('A' for Active; 'I' for Inactive)
REMARK    1  A    between atoms: C_1  and  O_2
REMARK    2  A    between atoms: O_2  and  C_3
REMARK    3  A    between atoms: C_9  and  C_12
REMARK    4  A    between atoms: C_12  and  C_13
REMARK    5  A    between atoms: C_13  and  N_14
REMARK    6  A    between atoms: C_15  and  C_17
REMARK    7  A    between atoms: C_17  and  O_18
REMARK    8  A    between atoms: O_18  and  C_19
REMARK                            x       y       z     vdW  Elec       q    Type
REMARK                         _______ _______ _______ _____ _____    ______ ____
ROOT
ATOM      1  N   UNL     1       1.793  -6.755  -0.031  0.00  0.00    -0.312 N 
ATOM      2  C   UNL     1       2.636  -7.328  -0.912  0.00  0.00    +0.251 C 
ATOM      3  O   UNL     1       3.756  -6.886  -1.055  0.00  0.00    -0.272 OA
ATOM      4  H   UNL     1       0.897  -7.108   0.083  0.00  0.00    +0.149 HD
ENDROOT
BRANCH   1   5
ATOM      5  C   UNL     1       2.230  -5.598   0.754  0.00  0.00    +0.108 C 
BRANCH   5   6
ATOM      6  C   UNL     1       1.092  -5.144   1.671  0.00  0.00    +0.052 C 
BRANCH   6  13
ATOM      7  C   UNL     1       0.626  -0.619   1.042  0.00  0.00    +0.121 A 
ATOM      8  C   UNL     1       1.202   0.173   2.051  0.00  0.00    +0.047 A 
ATOM      9  C   UNL     1       1.839  -0.358   3.116  0.00  0.00    +0.029 A 
ATOM     10  C   UNL     1       1.947  -1.815   3.248  0.00  0.00    +0.043 A 
ATOM     11  N   UNL     1       2.500  -2.573   4.161  0.00  0.00    -0.380 N 
ATOM     12  C   UNL     1       2.308  -3.978   3.782  0.00  0.00    +0.144 C 
ATOM     13  C   UNL     1       1.541  -3.954   2.479  0.00  0.00    -0.040 C 
ATOM     14  C   UNL     1       1.340  -2.650   2.185  0.00  0.00    +0.002 A 
ATOM     15  C   UNL     1       0.667  -1.972   1.072  0.00  0.00    +0.055 A 
ATOM     16  H   UNL     1       2.961  -2.259   4.955  0.00  0.00    +0.160 HD
BRANCH   7  18
ATOM     17  C   UNL     1      -0.017   1.425   0.010  0.00  0.00    +0.277 C 
ATOM     18  O   UNL     1       0.002  -0.004   0.002  0.00  0.00    -0.495 OA
ENDBRANCH   7  18
ENDBRANCH   6  13
ENDBRANCH   5   6
ENDBRANCH   1   5
BRANCH   2  19
ATOM     19  C   UNL     1       2.187  -8.518  -1.720  0.00  0.00    +0.324 C 
BRANCH  19  20
ATOM     20  O   UNL     1       3.249  -8.942  -2.576  0.00  0.00    -0.481 OA
BRANCH  20  21
ATOM     21  C   UNL     1       3.007 -10.011  -3.377  0.00  0.00    +0.143 A 
ATOM     22  C   UNL     1       1.769 -10.631  -3.340  0.00  0.00    +0.094 A 
ATOM     23  C   UNL     1       1.521 -11.722  -4.158  0.00  0.00    +0.143 A 
ATOM     24  C   UNL     1       2.533 -12.188  -5.016  0.00  0.00    +0.023 A 
ATOM     25  C   UNL     1       3.778 -11.551  -5.043  0.00  0.00    +0.035 A 
ATOM     26  C   UNL     1       4.005 -10.473  -4.235  0.00  0.00    +0.083 A 
ATOM     27 CL   UNL     1       5.547  -9.676  -4.272  0.00  0.00    -0.080 Cl
ATOM     28  C   UNL     1       2.264 -13.346  -5.879  0.00  0.00    -0.027 A 
ATOM     29  C   UNL     1       1.046 -13.925  -5.812  0.00  0.00    +0.041 A 
ATOM     30  C   UNL     1       0.072 -13.396  -4.930  0.00  0.00    +0.341 A 
ATOM     31  O   UNL     1      -1.029 -13.916  -4.887  0.00  0.00    -0.245 OA
ATOM     32  O   UNL     1       0.322 -12.343  -4.141  0.00  0.00    -0.422 OA
ATOM     33  C   UNL     1       0.672 -15.128  -6.637  0.00  0.00    +0.042 C 
ATOM     34  C   UNL     1       1.633 -15.296  -7.813  0.00  0.00    +0.005 C 
ATOM     35  C   UNL     1       3.068 -15.249  -7.274  0.00  0.00    +0.005 C 
ATOM     36  C   UNL     1       3.354 -13.827  -6.796  0.00  0.00    +0.036 C 
ENDBRANCH  20  21
ENDBRANCH  19  20
ENDBRANCH   2  19
TORSDOF 7
