REMARK  Name = ZINC34774792
REMARK  10 active torsions:
REMARK  status: ('A' for Active; 'I' for Inactive)
REMARK    1  A    between atoms: C_1  and  C_2
REMARK    2  A    between atoms: C_2  and  N_3
REMARK    3  A    between atoms: N_3  and  C_4
REMARK    4  A    between atoms: C_4  and  C_5
REMARK    5  A    between atoms: C_6  and  C_8
REMARK    6  A    between atoms: C_8  and  S_9
REMARK    7  A    between atoms: S_9  and  C_10
REMARK    8  A    between atoms: C_14  and  C_19
REMARK    9  A    between atoms: N_28  and  C_31
REMARK   10  A    between atoms: C_31  and  C_32
REMARK                            x       y       z     vdW  Elec       q    Type
REMARK                         _______ _______ _______ _____ _____    ______ ____
ROOT
ATOM      1  C   UNL     1       0.688  -1.592  -6.488  0.00  0.00    +0.191 A 
ATOM      2  N   UNL     1       0.125  -1.785  -7.674  0.00  0.00    -0.206 NA
ATOM      3  C   UNL     1       0.837  -2.070  -8.751  0.00  0.00    +0.134 A 
ATOM      4  C   UNL     1       2.250  -2.176  -8.644  0.00  0.00    +0.055 A 
ATOM      5  C   UNL     1       3.241  -2.476  -9.674  0.00  0.00    +0.002 A 
ATOM      6  C   UNL     1       4.548  -2.523  -9.327  0.00  0.00    +0.056 A 
ATOM      7  S   UNL     1       4.528  -2.163  -7.582  0.00  0.00    -0.076 S 
ATOM      8  C   UNL     1       2.781  -1.959  -7.356  0.00  0.00    +0.115 A 
ATOM      9  N   UNL     1       2.003  -1.673  -6.330  0.00  0.00    -0.214 NA
ATOM     10  N   UNL     1       0.213  -2.264  -9.970  0.00  0.00    -0.318 N 
ATOM     11  C   UNL     1      -0.545  -3.495 -10.245  0.00  0.00    +0.088 C 
ATOM     12  C   UNL     1      -1.925  -3.106 -10.784  0.00  0.00    -0.059 C 
ATOM     13  N   UNL     1      -1.765  -2.222 -11.945  0.00  0.00    +0.387 N 
ATOM     14  C   UNL     1      -1.133  -0.963 -11.531  0.00  0.00    -0.059 C 
ATOM     15  C   UNL     1       0.282  -1.243 -11.027  0.00  0.00    +0.088 C 
ATOM     16  H   UNL     1      -1.185  -2.676 -12.635  0.00  0.00    -0.081 HD
ENDROOT
BRANCH   5  17
ATOM     17  C   UNL     1       2.822  -2.726 -11.074  0.00  0.00    -0.017 A 
ATOM     18  C   UNL     1       1.956  -3.779 -11.368  0.00  0.00    +0.008 A 
ATOM     19  C   UNL     1       1.569  -4.006 -12.673  0.00  0.00    +0.001 A 
ATOM     20  C   UNL     1       2.039  -3.192 -13.688  0.00  0.00    +0.000 A 
ATOM     21  C   UNL     1       2.898  -2.146 -13.403  0.00  0.00    +0.001 A 
ATOM     22  C   UNL     1       3.288  -1.906 -12.101  0.00  0.00    +0.008 A 
ENDBRANCH   5  17
BRANCH   1  23
ATOM     23  S   UNL     1      -0.328  -1.215  -5.098  0.00  0.00    -0.077 S 
BRANCH  23  24
ATOM     24  C   UNL     1       0.849  -1.032  -3.730  0.00  0.00    +0.173 C 
BRANCH  24  26
ATOM     25  N   UNL     1       0.775  -0.521  -1.311  0.00  0.00    -0.301 N 
ATOM     26  C   UNL     1       0.101  -0.703  -2.464  0.00  0.00    +0.226 C 
ATOM     27  O   UNL     1      -1.107  -0.602  -2.483  0.00  0.00    -0.275 OA
BRANCH  25  29
ATOM     28  C   UNL     1      -0.084   1.316   0.055  0.00  0.00    +0.024 C 
ATOM     29  C   UNL     1       0.047  -0.202  -0.080  0.00  0.00    +0.104 C 
ENDBRANCH  25  29
BRANCH  25  30
ATOM     30  C   UNL     1       2.234  -0.643  -1.289  0.00  0.00    +0.104 C 
ATOM     31  C   UNL     1       2.620  -2.093  -0.988  0.00  0.00    +0.024 C 
ENDBRANCH  25  30
ENDBRANCH  24  26
ENDBRANCH  23  24
ENDBRANCH   1  23
BRANCH  13  32
ATOM     32  C   UNL     1      -3.083  -1.938 -12.528  0.00  0.00    +0.019 C 
BRANCH  32  33
ATOM     33  C   UNL     1      -2.911  -1.132 -13.790  0.00  0.00    +0.199 C 
ATOM     34  O   UNL     1      -1.800  -0.825 -14.167  0.00  0.00    -0.278 OA
ATOM     35  N   UNL     1      -3.992  -0.753 -14.500  0.00  0.00    -0.300 N 
ATOM     36  C   UNL     1      -5.450  -0.745 -14.648  0.00  0.00    +0.126 C 
ATOM     37  C   UNL     1      -4.539  -0.054 -15.665  0.00  0.00    +0.126 C 
ENDBRANCH  32  33
ENDBRANCH  13  32
TORSDOF 8
