REMARK  Name = ZINC07738089
REMARK  12 active torsions:
REMARK  status: ('A' for Active; 'I' for Inactive)
REMARK    1  A    between atoms: C_1  and  C_2
REMARK    2  A    between atoms: C_2  and  C_3
REMARK    3  A    between atoms: C_3  and  N_4
REMARK    4  A    between atoms: C_5  and  N_32
REMARK    5  A    between atoms: C_6  and  C_13
REMARK    6  A    between atoms: C_13  and  C_15
REMARK    7  A    between atoms: C_15  and  N_56
REMARK    8  A    between atoms: C_16  and  C_18
REMARK    9  A    between atoms: C_16  and  C_24
REMARK   10  A    between atoms: C_16  and  N_56
REMARK   11  A    between atoms: C_27  and  O_30
REMARK   12  A    between atoms: O_30  and  C_31
REMARK                            x       y       z     vdW  Elec       q    Type
REMARK                         _______ _______ _______ _____ _____    ______ ____
ROOT
ATOM      1  C   UNL     1      -0.774   1.476  -1.162  0.00  0.00    -0.000 C 
ENDROOT
BRANCH   1   2
ATOM      2  N   UNL     1       0.011   0.940  -0.033  0.00  0.00    +0.391 N 
ATOM      3  H   UNL     1       0.036  -0.085  -0.095  0.00  0.00    -0.084 HD
ATOM      4  H   UNL     1      -0.432   1.219   0.850  0.00  0.00    -0.084 HD
BRANCH   2   5
ATOM      5  C   UNL     1       1.389   1.464  -0.073  0.00  0.00    -0.009 C 
BRANCH   5   6
ATOM      6  C   UNL     1       2.228   0.605  -0.984  0.00  0.00    -0.057 A 
ATOM      7  C   UNL     1       2.071  -0.769  -0.977  0.00  0.00    +0.002 A 
ATOM      8  C   UNL     1       2.837  -1.556  -1.815  0.00  0.00    +0.000 A 
ATOM      9  C   UNL     1       3.767  -0.972  -2.654  0.00  0.00    +0.000 A 
ATOM     10  C   UNL     1       3.928   0.402  -2.658  0.00  0.00    +0.000 A 
ATOM     11  C   UNL     1       3.158   1.190  -1.822  0.00  0.00    +0.002 A 
ENDBRANCH   5   6
BRANCH   5  12
ATOM     12  C   UNL     1       1.969   1.437   1.318  0.00  0.00    -0.057 A 
ATOM     13  C   UNL     1       1.709   0.366   2.153  0.00  0.00    +0.006 A 
ATOM     14  C   UNL     1       2.244   0.336   3.426  0.00  0.00    +0.046 A 
ATOM     15  C   UNL     1       3.033   1.387   3.871  0.00  0.00    +0.120 A 
ATOM     16  C   UNL     1       3.288   2.463   3.033  0.00  0.00    +0.046 A 
ATOM     17  C   UNL     1       2.755   2.485   1.758  0.00  0.00    +0.006 A 
BRANCH  15  18
ATOM     18  O   UNL     1       3.555   1.363   5.125  0.00  0.00    -0.495 OA
ATOM     19  C   UNL     1       3.251   0.224   5.933  0.00  0.00    +0.277 C 
ENDBRANCH  15  18
ENDBRANCH   5  12
ENDBRANCH   2   5
ENDBRANCH   1   2
BRANCH   1  20
ATOM     20  C   UNL     1      -2.175   0.924  -1.095  0.00  0.00    +0.155 C 
ATOM     21  O   UNL     1      -2.486   0.164  -0.201  0.00  0.00    -0.294 OA
BRANCH  20  24
ATOM     22  N   UNL     1      -5.285   1.089  -3.067  0.00  0.00    -0.281 N 
ATOM     23  C   UNL     1      -4.398   0.697  -2.106  0.00  0.00    +0.116 A 
ATOM     24  C   UNL     1      -3.124   1.291  -2.073  0.00  0.00    +0.118 A 
ATOM     25  C   UNL     1      -2.812   2.302  -3.092  0.00  0.00    +0.266 A 
ATOM     26  O   UNL     1      -1.723   2.845  -3.114  0.00  0.00    -0.267 OA
ATOM     27  N   UNL     1      -3.756   2.615  -4.002  0.00  0.00    -0.274 N 
ATOM     28  H   UNL     1      -3.559   3.301  -4.702  0.00  0.00    +0.173 HD
ATOM     29  C   UNL     1      -4.959   2.017  -3.981  0.00  0.00    +0.331 A 
ATOM     30  O   UNL     1      -5.782   2.328  -4.819  0.00  0.00    -0.246 OA
BRANCH  23  31
ATOM     31  N   UNL     1      -4.743  -0.249  -1.191  0.00  0.00    -0.344 N 
ATOM     32  H   UNL     1      -4.141  -0.459  -0.460  0.00  0.00    +0.144 HD
ATOM     33  H   UNL     1      -5.591  -0.714  -1.270  0.00  0.00    +0.144 HD
ENDBRANCH  23  31
BRANCH  22  34
ATOM     34  C   UNL     1      -6.617   0.480  -3.106  0.00  0.00    +0.128 C 
BRANCH  34  36
ATOM     35  C   UNL     1      -7.973  -1.402  -4.034  0.00  0.00    +0.005 C 
ATOM     36  C   UNL     1      -6.582  -0.766  -3.993  0.00  0.00    +0.018 C 
ENDBRANCH  34  36
ENDBRANCH  22  34
ENDBRANCH  20  24
ENDBRANCH   1  20
TORSDOF 10
