REMARK  Name = ZINC20673747
REMARK  3 active torsions:
REMARK  status: ('A' for Active; 'I' for Inactive)
REMARK    1  A    between atoms: C_1  and  S_2
REMARK    2  A    between atoms: S_2  and  C_3
REMARK    3  A    between atoms: C_6  and  C_9
REMARK                            x       y       z     vdW  Elec       q    Type
REMARK                         _______ _______ _______ _____ _____    ______ ____
ROOT
ATOM      1  C   UNL     1       2.998  -1.452   5.038  0.00  0.00    +0.090 C 
ATOM      2  C   UNL     1       2.103  -2.261   5.926  0.00  0.00    +0.044 A 
ATOM      3  C   UNL     1       1.102  -1.649   6.675  0.00  0.00    +0.127 A 
ATOM      4  N   UNL     1       0.325  -2.404   7.449  0.00  0.00    -0.199 NA
ATOM      5  C   UNL     1       0.496  -3.716   7.510  0.00  0.00    +0.221 A 
ATOM      6  N   UNL     1       1.440  -4.330   6.811  0.00  0.00    -0.199 NA
ATOM      7  C   UNL     1       2.253  -3.638   6.019  0.00  0.00    +0.134 A 
ATOM      8  N   UNL     1       3.247  -4.270   5.292  0.00  0.00    -0.302 N 
ATOM      9  C   UNL     1       4.308  -3.559   4.801  0.00  0.00    +0.017 C 
ATOM     10  C   UNL     1       4.243  -2.219   4.669  0.00  0.00    +0.024 C 
ATOM     11  C   UNL     1       5.341  -1.489   4.180  0.00  0.00    +0.162 C 
ATOM     12  O   UNL     1       5.250  -0.282   4.066  0.00  0.00    -0.292 OA
ATOM     13  C   UNL     1       6.626  -2.170   3.797  0.00  0.00    +0.080 C 
ATOM     14  C   UNL     1       6.781  -3.446   4.631  0.00  0.00    +0.014 C 
ATOM     15  C   UNL     1       5.550  -4.321   4.407  0.00  0.00    +0.051 C 
ATOM     16  N   UNL     1      -0.334  -4.466   8.325  0.00  0.00    -0.300 N 
ATOM     17  C   UNL     1      -0.170  -5.923   8.423  0.00  0.00    +0.108 C 
ATOM     18  C   UNL     1      -0.027  -6.305   9.900  0.00  0.00    +0.019 C 
ATOM     19  C   UNL     1      -1.220  -5.753  10.683  0.00  0.00    +0.003 C 
ATOM     20  C   UNL     1      -1.238  -4.226  10.579  0.00  0.00    +0.019 C 
ATOM     21  C   UNL     1      -1.391  -3.819   9.115  0.00  0.00    +0.108 C 
ATOM     22  N   UNL     1       0.917  -0.277   6.616  0.00  0.00    -0.343 N 
ATOM     23  H   UNL     1       3.191  -5.225   5.129  0.00  0.00    +0.153 HD
ATOM     24  H   UNL     1       1.488   0.266   6.050  0.00  0.00    +0.144 HD
ATOM     25  H   UNL     1       0.217   0.142   7.141  0.00  0.00    +0.144 HD
ENDROOT
BRANCH   1  29
ATOM     26  C   UNL     1       0.877  -0.427   1.472  0.00  0.00    +0.008 A 
ATOM     27  C   UNL     1       1.349   0.574   2.313  0.00  0.00    +0.015 A 
ATOM     28  C   UNL     1       2.035   0.239   3.464  0.00  0.00    +0.005 A 
ATOM     29  C   UNL     1       2.250  -1.090   3.781  0.00  0.00    -0.035 A 
ATOM     30  C   UNL     1       1.782  -2.088   2.946  0.00  0.00    +0.005 A 
ATOM     31  C   UNL     1       1.090  -1.761   1.796  0.00  0.00    +0.015 A 
BRANCH  26  33
ATOM     32  C   UNL     1      -0.022   1.810   0.012  0.00  0.00    +0.090 C 
ATOM     33  S   UNL     1       0.002  -0.004   0.002  0.00  0.00    -0.129 S 
ENDBRANCH  26  33
ENDBRANCH   1  29
TORSDOF 2
