REMARK  Name = ZINC09518291
REMARK  9 active torsions:
REMARK  status: ('A' for Active; 'I' for Inactive)
REMARK    1  A    between atoms: C_1  and  C_2
REMARK    2  A    between atoms: N_4  and  C_5
REMARK    3  A    between atoms: C_6  and  N_26
REMARK    4  A    between atoms: C_11  and  S_13
REMARK    5  A    between atoms: S_13  and  C_14
REMARK    6  A    between atoms: C_14  and  C_15
REMARK    7  A    between atoms: N_17  and  C_18
REMARK    8  A    between atoms: C_18  and  C_19
REMARK    9  A    between atoms: C_27  and  C_29
REMARK                            x       y       z     vdW  Elec       q    Type
REMARK                         _______ _______ _______ _____ _____    ______ ____
ROOT
ATOM      1  C   UNL     1      -3.616   1.970  -0.103  0.00  0.00    +0.155 A 
ATOM      2  C   UNL     1      -2.442   1.230  -0.038  0.00  0.00    +0.139 A 
ATOM      3  C   UNL     1      -2.530  -0.172  -0.024  0.00  0.00    +0.275 A 
ATOM      4  O   UNL     1      -1.521  -0.858   0.036  0.00  0.00    -0.266 OA
ATOM      5  N   UNL     1      -3.749  -0.748  -0.080  0.00  0.00    -0.300 N 
ATOM      6  H   UNL     1      -3.829  -1.714  -0.071  0.00  0.00    +0.171 HD
ATOM      7  C   UNL     1      -4.868   0.026  -0.148  0.00  0.00    +0.171 A 
ATOM      8  N   UNL     1      -4.794   1.340  -0.162  0.00  0.00    -0.206 NA
ENDROOT
BRANCH   1  12
ATOM      9  C   UNL     1      -4.651   5.579  -0.185  0.00  0.00    +0.109 C 
ATOM     10  C   UNL     1      -4.706   4.073  -0.175  0.00  0.00    +0.215 C 
ATOM     11  O   UNL     1      -5.776   3.505  -0.223  0.00  0.00    -0.276 OA
ATOM     12  N   UNL     1      -3.565   3.357  -0.112  0.00  0.00    -0.269 N 
ATOM     13  H   UNL     1      -2.709   3.812  -0.074  0.00  0.00    +0.156 HD
ENDBRANCH   1  12
BRANCH   2  14
ATOM     14  N   UNL     1      -1.191   1.871   0.018  0.00  0.00    -0.274 N 
ATOM     15  C   UNL     1      -0.272   1.641  -0.941  0.00  0.00    +0.255 C 
ATOM     16  O   UNL     1      -0.491   0.815  -1.808  0.00  0.00    -0.269 OA
ATOM     17  H   UNL     1      -0.989   2.479   0.747  0.00  0.00    +0.155 HD
BRANCH  15  18
ATOM     18  C   UNL     1       0.988   2.390  -0.943  0.00  0.00    +0.074 A 
ATOM     19  C   UNL     1       2.050   2.311  -1.831  0.00  0.00    +0.021 A 
ATOM     20  C   UNL     1       3.122   3.137  -1.598  0.00  0.00    +0.008 A 
ATOM     21  C   UNL     1       3.093   3.977  -0.531  0.00  0.00    +0.046 A 
ATOM     22  S   UNL     1       1.551   3.647   0.191  0.00  0.00    -0.092 S 
ENDBRANCH  15  18
ENDBRANCH   2  14
BRANCH   7  23
ATOM     23  S   UNL     1      -6.449  -0.749  -0.220  0.00  0.00    -0.078 S 
BRANCH  23  24
ATOM     24  C   UNL     1      -7.513   0.713  -0.295  0.00  0.00    +0.173 C 
BRANCH  24  25
ATOM     25  C   UNL     1      -8.955   0.282  -0.364  0.00  0.00    +0.224 C 
ATOM     26  O   UNL     1      -9.236  -0.898  -0.363  0.00  0.00    -0.275 OA
ATOM     27  N   UNL     1      -9.933   1.207  -0.428  0.00  0.00    -0.310 N 
ATOM     28  H   UNL     1      -9.708   2.151  -0.428  0.00  0.00    +0.149 HD
BRANCH  27  29
ATOM     29  C   UNL     1     -11.335   0.788  -0.495  0.00  0.00    +0.141 C 
BRANCH  29  30
ATOM     30  C   UNL     1     -12.221   2.006  -0.557  0.00  0.00    -0.012 A 
ATOM     31  C   UNL     1     -12.861   2.454   0.583  0.00  0.00    +0.006 A 
ATOM     32  C   UNL     1     -13.670   3.573   0.527  0.00  0.00    +0.000 A 
ATOM     33  C   UNL     1     -13.848   4.239  -0.672  0.00  0.00    +0.001 A 
ATOM     34  C   UNL     1     -13.212   3.789  -1.813  0.00  0.00    +0.020 A 
ATOM     35  C   UNL     1     -12.398   2.671  -1.757  0.00  0.00    +0.046 A 
ATOM     36 CL   UNL     1     -11.601   2.105  -3.191  0.00  0.00    -0.083 Cl
ENDBRANCH  29  30
ENDBRANCH  27  29
ENDBRANCH  24  25
ENDBRANCH  23  24
ENDBRANCH   7  23
TORSDOF 8
