REMARK  Name = ZINC40645267
REMARK  10 active torsions:
REMARK  status: ('A' for Active; 'I' for Inactive)
REMARK    1  A    between atoms: C_1  and  C_2
REMARK    2  A    between atoms: C_2  and  C_32
REMARK    3  A    between atoms: C_4  and  N_10
REMARK    4  A    between atoms: C_6  and  C_8
REMARK    5  A    between atoms: C_6  and  C_9
REMARK    6  A    between atoms: C_12  and  N_29
REMARK    7  A    between atoms: C_13  and  N_17
REMARK    8  A    between atoms: N_17  and  C_18
REMARK    9  A    between atoms: C_21  and  O_24
REMARK   10  A    between atoms: O_24  and  C_25
REMARK                            x       y       z     vdW  Elec       q    Type
REMARK                         _______ _______ _______ _____ _____    ______ ____
ROOT
ATOM      1  N   UNL     1       2.843  -1.069  -2.426  0.00  0.00    -0.324 N 
ATOM      2  C   UNL     1       3.906  -0.432  -3.048  0.00  0.00    +0.155 A 
ATOM      3  C   UNL     1       4.428  -0.930  -4.238  0.00  0.00    +0.205 A 
ATOM      4  C   UNL     1       5.495  -0.255  -4.823  0.00  0.00    +0.159 A 
ATOM      5  N   UNL     1       5.974   0.836  -4.227  0.00  0.00    -0.218 NA
ATOM      6  C   UNL     1       5.452   1.276  -3.100  0.00  0.00    +0.225 A 
ATOM      7  N   UNL     1       4.438   0.667  -2.518  0.00  0.00    -0.218 NA
ATOM      8  H   UNL     1       2.460  -1.869  -2.818  0.00  0.00    +0.148 HD
ENDROOT
BRANCH   1  12
ATOM      9  C   UNL     1      -0.021   1.048   0.166  0.00  0.00    -0.010 C 
ATOM     10  C   UNL     1       0.255  -0.455   0.281  0.00  0.00    -0.072 C 
ATOM     11  C   UNL     1       0.840  -0.974  -1.029  0.00  0.00    +0.009 C 
ATOM     12  C   UNL     1       2.296  -0.531  -1.174  0.00  0.00    +0.069 C 
ATOM     13  C   UNL     1       3.086  -1.098   0.006  0.00  0.00    +0.009 C 
ATOM     14  C   UNL     1       2.518  -0.581   1.323  0.00  0.00    -0.072 C 
ATOM     15  N   UNL     1       1.081  -0.753   1.438  0.00  0.00    +0.386 N 
ATOM     16  C   UNL     1       2.921   0.884   1.522  0.00  0.00    -0.010 C 
ATOM     17  C   UNL     1       3.181  -1.391   2.462  0.00  0.00    -0.010 C 
ATOM     18  C   UNL     1      -1.110  -1.152   0.485  0.00  0.00    -0.010 C 
ATOM     19  H   UNL     1       0.751  -0.184   2.223  0.00  0.00    -0.084 HD
ATOM     20  H   UNL     1       0.896  -1.721   1.722  0.00  0.00    -0.084 HD
ENDBRANCH   1  12
BRANCH   3  21
ATOM     21  N   UNL     1       3.864  -2.147  -4.865  0.00  0.00    +0.063 N 
ATOM     22  O   UNL     1       2.961  -2.052  -5.663  0.00  0.00    -0.126 OA
ATOM     23  O   UNL     1       4.306  -3.235  -4.578  0.00  0.00    -0.126 OA
ENDBRANCH   3  21
BRANCH   4  24
ATOM     24  N   UNL     1       6.051  -0.711  -6.009  0.00  0.00    -0.297 N 
ATOM     25  H   UNL     1       5.646  -1.456  -6.479  0.00  0.00    +0.154 HD
BRANCH  24  26
ATOM     26  C   UNL     1       7.198  -0.096  -6.526  0.00  0.00    +0.033 A 
ATOM     27  C   UNL     1       7.350   0.046  -7.899  0.00  0.00    +0.027 A 
ATOM     28  C   UNL     1       8.481   0.654  -8.409  0.00  0.00    +0.048 A 
ATOM     29  C   UNL     1       9.464   1.122  -7.549  0.00  0.00    +0.130 A 
ATOM     30  C   UNL     1       9.313   0.980  -6.178  0.00  0.00    +0.048 A 
ATOM     31  C   UNL     1       8.180   0.378  -5.666  0.00  0.00    +0.027 A 
BRANCH  29  32
ATOM     32  O   UNL     1      10.578   1.719  -8.052  0.00  0.00    -0.406 OA
BRANCH  32  33
ATOM     33  C   UNL     1      11.550   2.177  -7.110  0.00  0.00    +0.575 C 
ATOM     34  F   UNL     1      12.013   1.095  -6.354  0.00  0.00    -0.133 F 
ATOM     35  F   UNL     1      12.622   2.762  -7.793  0.00  0.00    -0.133 F 
ATOM     36  F   UNL     1      10.966   3.123  -6.260  0.00  0.00    -0.133 F 
ENDBRANCH  32  33
ENDBRANCH  29  32
ENDBRANCH  24  26
ENDBRANCH   4  24
TORSDOF 6
