REMARK  Name = ZINC08430401
REMARK  13 active torsions:
REMARK  status: ('A' for Active; 'I' for Inactive)
REMARK    1  A    between atoms: C_1  and  C_2
REMARK    2  A    between atoms: C_2  and  O_3
REMARK    3  A    between atoms: O_3  and  C_4
REMARK    4  A    between atoms: C_7  and  C_12
REMARK    5  A    between atoms: C_9  and  O_10
REMARK    6  A    between atoms: O_10  and  C_11
REMARK    7  A    between atoms: C_17  and  C_27
REMARK    8  A    between atoms: C_29  and  O_37
REMARK    9  A    between atoms: C_30  and  O_35
REMARK   10  A    between atoms: C_31  and  O_33
REMARK   11  A    between atoms: O_33  and  C_34
REMARK   12  A    between atoms: O_35  and  C_36
REMARK   13  A    between atoms: O_37  and  C_38
REMARK                            x       y       z     vdW  Elec       q    Type
REMARK                         _______ _______ _______ _____ _____    ______ ____
ROOT
ATOM      1  C   UNL     1      -3.428   7.263   5.327  0.00  0.00    +0.032 C 
ATOM      2  C   UNL     1      -2.456   8.410   5.056  0.00  0.00    +0.059 C 
ATOM      3  C   UNL     1      -1.666   8.133   3.788  0.00  0.00    +0.017 C 
ATOM      4  C   UNL     1      -2.218   7.439   2.777  0.00  0.00    +0.036 C 
ATOM      5  C   UNL     1      -1.549   7.101   1.466  0.00  0.00    +0.136 C 
ATOM      6  N   UNL     1      -0.307   7.803   1.225  0.00  0.00    -0.331 N 
ATOM      7  C   UNL     1       0.806   7.591   2.038  0.00  0.00    +0.049 A 
ATOM      8  C   UNL     1       1.944   6.964   1.555  0.00  0.00    +0.025 A 
ATOM      9  C   UNL     1       2.979   6.671   2.426  0.00  0.00    +0.002 A 
ATOM     10  C   UNL     1       2.882   7.001   3.766  0.00  0.00    +0.002 A 
ATOM     11  C   UNL     1       1.756   7.648   4.246  0.00  0.00    +0.025 A 
ATOM     12  C   UNL     1       0.728   7.958   3.373  0.00  0.00    +0.052 A 
ATOM     13  N   UNL     1      -0.409   8.646   3.777  0.00  0.00    -0.316 N 
ATOM     14  C   UNL     1      -3.541   6.950   2.888  0.00  0.00    +0.163 C 
ATOM     15  O   UNL     1      -4.022   6.344   1.952  0.00  0.00    -0.292 OA
ATOM     16  C   UNL     1      -4.369   7.155   4.121  0.00  0.00    +0.088 C 
ATOM     17  H   UNL     1      -0.248   8.431   0.488  0.00  0.00    +0.147 HD
ATOM     18  H   UNL     1      -0.297   9.563   4.074  0.00  0.00    +0.152 HD
ENDROOT
BRANCH   1  22
ATOM     19  C   UNL     1      -5.693   8.092   8.859  0.00  0.00    +0.162 A 
ATOM     20  C   UNL     1      -5.754   8.954   7.775  0.00  0.00    +0.050 A 
ATOM     21  C   UNL     1      -5.021   8.683   6.635  0.00  0.00    +0.008 A 
ATOM     22  C   UNL     1      -4.225   7.554   6.573  0.00  0.00    -0.040 A 
ATOM     23  C   UNL     1      -4.164   6.688   7.648  0.00  0.00    +0.053 A 
ATOM     24  C   UNL     1      -4.893   6.956   8.796  0.00  0.00    +0.162 A 
BRANCH  24  25
ATOM     25  O   UNL     1      -4.829   6.108   9.857  0.00  0.00    -0.491 OA
ATOM     26  C   UNL     1      -3.987   4.961   9.722  0.00  0.00    +0.277 C 
ENDBRANCH  24  25
BRANCH  19  27
ATOM     27  O   UNL     1      -6.414   8.357   9.981  0.00  0.00    -0.489 OA
BRANCH  27  29
ATOM     28  C   UNL     1      -7.946   9.670  11.311  0.00  0.00    +0.048 C 
ATOM     29  C   UNL     1      -7.214   9.541   9.974  0.00  0.00    +0.226 C 
ENDBRANCH  27  29
ENDBRANCH  19  27
ENDBRANCH   1  22
BRANCH   5  30
ATOM     30  C   UNL     1      -1.273   5.620   1.440  0.00  0.00    -0.016 A 
ATOM     31  C   UNL     1      -1.840   4.831   0.456  0.00  0.00    +0.055 A 
ATOM     32  C   UNL     1      -1.588   3.468   0.427  0.00  0.00    +0.165 A 
ATOM     33  C   UNL     1      -0.765   2.895   1.389  0.00  0.00    +0.204 A 
ATOM     34  C   UNL     1      -0.202   3.691   2.380  0.00  0.00    +0.165 A 
ATOM     35  C   UNL     1      -0.454   5.054   2.398  0.00  0.00    +0.055 A 
BRANCH  34  36
ATOM     36  O   UNL     1       0.600   3.134   3.327  0.00  0.00    -0.491 OA
ATOM     37  C   UNL     1       1.065   3.992   4.370  0.00  0.00    +0.277 C 
ENDBRANCH  34  36
BRANCH  33  38
ATOM     38  O   UNL     1      -0.516   1.557   1.365  0.00  0.00    -0.488 OA
ATOM     39  C   UNL     1       0.615   1.121   0.608  0.00  0.00    +0.277 C 
ENDBRANCH  33  38
BRANCH  32  40
ATOM     40  O   UNL     1      -2.145   2.693  -0.541  0.00  0.00    -0.491 OA
ATOM     41  C   UNL     1      -2.980   3.349  -1.497  0.00  0.00    +0.277 C 
ENDBRANCH  32  40
ENDBRANCH   5  30
TORSDOF 8
