REMARK  Name = ZINC20323494
REMARK  6 active torsions:
REMARK  status: ('A' for Active; 'I' for Inactive)
REMARK    1  A    between atoms: C_1  and  C_2
REMARK    2  A    between atoms: C_5  and  S_8
REMARK    3  A    between atoms: S_8  and  N_11
REMARK    4  A    between atoms: N_11  and  N_12
REMARK    5  A    between atoms: C_14  and  C_23
REMARK    6  A    between atoms: N_25  and  C_26
REMARK                            x       y       z     vdW  Elec       q    Type
REMARK                         _______ _______ _______ _____ _____    ______ ____
ROOT
ATOM      1  N   UNL     1       0.403   5.037   0.343  0.00  0.00    -0.260 N 
ATOM      2  C   UNL     1       1.600   4.522   0.355  0.00  0.00    +0.225 A 
ATOM      3  C   UNL     1       1.808   3.069   0.154  0.00  0.00    +0.099 A 
ATOM      4  C   UNL     1       3.018   2.673  -0.362  0.00  0.00    +0.030 A 
ATOM      5  C   UNL     1       3.996   3.720  -0.684  0.00  0.00    +0.018 A 
ATOM      6  C   UNL     1       5.125   3.431  -1.457  0.00  0.00    +0.011 A 
ATOM      7  C   UNL     1       6.027   4.432  -1.746  0.00  0.00    +0.001 A 
ATOM      8  C   UNL     1       5.822   5.718  -1.274  0.00  0.00    +0.004 A 
ATOM      9  C   UNL     1       4.712   6.017  -0.507  0.00  0.00    +0.047 A 
ATOM     10  C   UNL     1       3.793   5.025  -0.203  0.00  0.00    +0.137 A 
ATOM     11  O   UNL     1       2.701   5.303   0.553  0.00  0.00    -0.437 OA
ATOM     12  H   UNL     1      -0.479   4.379   0.329  0.00  0.00    +0.189 HD
ENDROOT
BRANCH   3  13
ATOM     13  C   UNL     1       0.765   2.090   0.500  0.00  0.00    +0.253 C 
ATOM     14  O   UNL     1       0.869   0.934   0.133  0.00  0.00    -0.270 OA
ATOM     15  N   UNL     1      -0.308   2.474   1.220  0.00  0.00    -0.281 N 
ATOM     16  H   UNL     1      -0.450   3.535   1.472  0.00  0.00    +0.155 HD
BRANCH  15  17
ATOM     17  C   UNL     1      -1.242   1.524   1.644  0.00  0.00    +0.034 A 
ATOM     18  C   UNL     1      -0.821   0.260   2.035  0.00  0.00    +0.023 A 
ATOM     19  C   UNL     1      -1.745  -0.675   2.459  0.00  0.00    +0.002 A 
ATOM     20  C   UNL     1      -3.091  -0.356   2.484  0.00  0.00    +0.000 A 
ATOM     21  C   UNL     1      -3.514   0.900   2.090  0.00  0.00    +0.002 A 
ATOM     22  C   UNL     1      -2.595   1.841   1.670  0.00  0.00    +0.023 A 
ENDBRANCH  15  17
ENDBRANCH   3  13
BRANCH   1  23
ATOM     23  N   UNL     1       0.239   6.428   0.348  0.00  0.00    -0.157 N 
ATOM     24  H   UNL     1       1.012   7.007   0.441  0.00  0.00    +0.194 HD
BRANCH  23  25
ATOM     25  S   UNL     1      -1.274   7.085   0.195  0.00  0.00    +0.085 S 
ATOM     26  O   UNL     1      -1.111   8.495   0.243  0.00  0.00    -0.149 OA
ATOM     27  O   UNL     1      -1.893   6.426  -0.901  0.00  0.00    -0.149 OA
BRANCH  25  32
ATOM     28  C   UNL     1      -4.394   5.541   5.123  0.00  0.00    +0.044 C 
ATOM     29  C   UNL     1      -3.615   5.926   3.893  0.00  0.00    -0.050 A 
ATOM     30  C   UNL     1      -2.761   7.013   3.927  0.00  0.00    +0.005 A 
ATOM     31  C   UNL     1      -2.046   7.367   2.798  0.00  0.00    +0.029 A 
ATOM     32  C   UNL     1      -2.184   6.633   1.635  0.00  0.00    +0.110 A 
ATOM     33  C   UNL     1      -3.042   5.550   1.598  0.00  0.00    +0.029 A 
ATOM     34  C   UNL     1      -3.753   5.193   2.729  0.00  0.00    +0.005 A 
ENDBRANCH  25  32
ENDBRANCH  23  25
ENDBRANCH   1  23
TORSDOF 5
