REMARK  Name = ZINC50121499
REMARK  2 active torsions:
REMARK  status: ('A' for Active; 'I' for Inactive)
REMARK    1  A    between atoms: C_1  and  N_2
REMARK    2  A    between atoms: C_5  and  C_8
REMARK                            x       y       z     vdW  Elec       q    Type
REMARK                         _______ _______ _______ _____ _____    ______ ____
ROOT
ATOM      1  C   UNL     1      -0.013   1.086   0.008  0.00  0.00    +0.137 C 
ATOM      2  N   UNL     1      -0.721   1.571  -1.179  0.00  0.00    -0.284 N 
ATOM      3  C   UNL     1      -1.276   0.774  -2.140  0.00  0.00    +0.160 C 
ATOM      4  N   UNL     1      -1.844   1.435  -3.085  0.00  0.00    -0.366 N 
ATOM      5  C   UNL     1      -1.696   2.870  -2.795  0.00  0.00    +0.172 C 
ATOM      6  C   UNL     1      -0.931   2.898  -1.486  0.00  0.00    +0.100 C 
ATOM      7  N   UNL     1      -0.557   3.935  -0.810  0.00  0.00    -0.388 N 
ATOM      8  H   UNL     1      -0.067   3.823   0.019  0.00  0.00    +0.157 HD
ATOM      9  H   UNL     1      -0.767   4.825  -1.133  0.00  0.00    +0.157 HD
ATOM     10  H   UNL     1      -2.293   1.054  -3.856  0.00  0.00    +0.161 HD
ENDROOT
BRANCH   5  11
ATOM     11  C   UNL     1      -3.047   3.518  -2.627  0.00  0.00    -0.013 A 
ATOM     12  C   UNL     1      -3.270   4.787  -3.128  0.00  0.00    +0.055 A 
ATOM     13  C   UNL     1      -4.510   5.385  -2.975  0.00  0.00    +0.168 A 
ATOM     14  C   UNL     1      -5.531   4.704  -2.315  0.00  0.00    +0.180 A 
ATOM     15  C   UNL     1      -5.300   3.432  -1.815  0.00  0.00    +0.064 A 
ATOM     16  C   UNL     1      -4.061   2.839  -1.977  0.00  0.00    +0.025 A 
ATOM     17 BR   UNL     1      -6.682   2.504  -0.919  0.00  0.00    -0.046 Br
ATOM     18  O   UNL     1      -6.642   5.497  -2.295  0.00  0.00    -0.451 OA
ATOM     19  C   UNL     1      -6.171   6.826  -2.587  0.00  0.00    +0.466 C 
ATOM     20  O   UNL     1      -4.982   6.604  -3.368  0.00  0.00    -0.453 OA
ENDBRANCH   5  11
TORSDOF 1
