REMARK  Name = ZINC22041190
REMARK  7 active torsions:
REMARK  status: ('A' for Active; 'I' for Inactive)
REMARK    1  A    between atoms: C_5  and  C_7
REMARK    2  A    between atoms: C_10  and  S_13
REMARK    3  A    between atoms: N_11  and  N_12
REMARK    4  A    between atoms: S_13  and  C_14
REMARK    5  A    between atoms: C_14  and  C_15
REMARK    6  A    between atoms: N_17  and  C_18
REMARK    7  A    between atoms: C_23  and  N_24
REMARK                            x       y       z     vdW  Elec       q    Type
REMARK                         _______ _______ _______ _____ _____    ______ ____
ROOT
ATOM      1  S   UNL     1       2.237  -5.731  -0.811  0.00  0.00    -0.075 S 
ENDROOT
BRANCH   1   5
ATOM      2  C   UNL     1       0.198  -2.414  -1.143  0.00  0.00    +0.183 A 
ATOM      3  N   UNL     1      -0.744  -3.322  -1.028  0.00  0.00    -0.127 NA
ATOM      4  N   UNL     1      -0.217  -4.488  -0.915  0.00  0.00    -0.121 NA
ATOM      5  C   UNL     1       1.093  -4.397  -0.941  0.00  0.00    +0.209 A 
ATOM      6  N   UNL     1       1.404  -3.075  -1.087  0.00  0.00    -0.224 N 
BRANCH   2  11
ATOM      7  C   UNL     1       0.510   1.103  -2.421  0.00  0.00    +0.001 A 
ATOM      8  C   UNL     1      -0.369   1.772  -1.587  0.00  0.00    +0.001 A 
ATOM      9  C   UNL     1      -1.064   1.084  -0.609  0.00  0.00    +0.016 A 
ATOM     10  C   UNL     1      -0.885  -0.277  -0.459  0.00  0.00    +0.029 A 
ATOM     11  C   UNL     1       0.000  -0.958  -1.298  0.00  0.00    +0.035 A 
ATOM     12  C   UNL     1       0.698  -0.256  -2.282  0.00  0.00    +0.013 A 
ATOM     13 BR   UNL     1      -1.836  -1.217   0.878  0.00  0.00    -0.050 Br
ENDBRANCH   2  11
BRANCH   6  14
ATOM     14  N   UNL     1       2.651  -2.523  -1.161  0.00  0.00    -0.295 N 
ATOM     15  H   UNL     1       3.541  -3.166  -1.103  0.00  0.00    +0.163 HD
ATOM     16  H   UNL     1       2.765  -1.435  -1.279  0.00  0.00    +0.163 HD
ENDBRANCH   6  14
ENDBRANCH   1   5
BRANCH   1  17
ATOM     17  C   UNL     1       1.086  -7.117  -0.647  0.00  0.00    +0.173 C 
BRANCH  17  18
ATOM     18  C   UNL     1       1.862  -8.402  -0.518  0.00  0.00    +0.228 C 
ATOM     19  O   UNL     1       3.075  -8.383  -0.535  0.00  0.00    -0.275 OA
ATOM     20  N   UNL     1       1.209  -9.574  -0.384  0.00  0.00    -0.283 N 
ATOM     21  H   UNL     1       0.112  -9.603  -0.456  0.00  0.00    +0.155 HD
BRANCH  20  22
ATOM     22  C   UNL     1       1.927 -10.753  -0.154  0.00  0.00    +0.064 A 
ATOM     23  C   UNL     1       3.098 -11.003  -0.857  0.00  0.00    +0.027 A 
ATOM     24  C   UNL     1       3.805 -12.167  -0.628  0.00  0.00    +0.022 A 
ATOM     25  C   UNL     1       3.347 -13.084   0.302  0.00  0.00    +0.043 A 
ATOM     26  C   UNL     1       2.180 -12.838   1.004  0.00  0.00    +0.054 A 
ATOM     27  C   UNL     1       1.472 -11.673   0.782  0.00  0.00    +0.149 A 
ATOM     28 CL   UNL     1       4.237 -14.547   0.587  0.00  0.00    -0.083 Cl
BRANCH  27  29
ATOM     29  N   UNL     1       0.228 -11.407   1.537  0.00  0.00    +0.058 N 
ATOM     30  O   UNL     1      -0.231 -12.260   2.276  0.00  0.00    -0.126 OA
ATOM     31  O   UNL     1      -0.339 -10.335   1.420  0.00  0.00    -0.126 OA
ENDBRANCH  27  29
ENDBRANCH  20  22
ENDBRANCH  17  18
ENDBRANCH   1  17
TORSDOF 7
