REMARK  Name = ZINC39667449
REMARK  6 active torsions:
REMARK  status: ('A' for Active; 'I' for Inactive)
REMARK    1  A    between atoms: C_1  and  C_2
REMARK    2  A    between atoms: C_6  and  C_9
REMARK    3  A    between atoms: C_7  and  C_8
REMARK    4  A    between atoms: C_9  and  N_10
REMARK    5  A    between atoms: C_11  and  C_13
REMARK    6  A    between atoms: C_24  and  C_26
REMARK                            x       y       z     vdW  Elec       q    Type
REMARK                         _______ _______ _______ _____ _____    ______ ____
ROOT
ATOM      1  C   UNL     1      -3.606  -3.470   4.815  0.00  0.00    +0.100 C 
ATOM      2  C   UNL     1      -4.261  -4.266   3.665  0.00  0.00    +0.121 C 
ATOM      3  N   UNL     1      -4.219  -5.677   4.114  0.00  0.00    -0.296 N 
ATOM      4  C   UNL     1      -4.526  -5.612   5.563  0.00  0.00    +0.115 C 
ATOM      5  C   UNL     1      -3.785  -4.355   6.060  0.00  0.00    -0.004 C 
ATOM      6  C   UNL     1      -4.622  -3.628   7.109  0.00  0.00    -0.010 C 
ATOM      7  C   UNL     1      -4.737  -4.504   8.360  0.00  0.00    -0.082 C 
ATOM      8  N   UNL     1      -3.397  -4.789   8.886  0.00  0.00    +0.379 N 
ATOM      9  C   UNL     1      -2.630  -5.569   7.906  0.00  0.00    -0.082 C 
ATOM     10  C   UNL     1      -2.425  -4.738   6.636  0.00  0.00    -0.010 C 
ATOM     11  C   UNL     1      -3.960  -6.773   3.373  0.00  0.00    +0.247 C 
ATOM     12  O   UNL     1      -3.600  -6.654   2.218  0.00  0.00    -0.270 OA
ATOM     13  H   UNL     1      -2.918  -3.920   9.070  0.00  0.00    -0.086 HD
ATOM     14  H   UNL     1      -3.478  -5.315   9.743  0.00  0.00    -0.086 HD
ENDROOT
BRANCH  11  15
ATOM     15  C   UNL     1      -4.113  -8.118   3.965  0.00  0.00    +0.038 A 
ATOM     16  C   UNL     1      -4.914  -8.300   5.094  0.00  0.00    +0.014 A 
ATOM     17  C   UNL     1      -5.053  -9.558   5.643  0.00  0.00    +0.022 A 
ATOM     18  C   UNL     1      -4.400 -10.640   5.076  0.00  0.00    +0.059 A 
ATOM     19  C   UNL     1      -3.603 -10.466   3.956  0.00  0.00    +0.060 A 
ATOM     20  C   UNL     1      -3.461  -9.213   3.394  0.00  0.00    +0.034 A 
ATOM     21 CL   UNL     1      -2.788 -11.828   3.252  0.00  0.00    -0.082 Cl
ATOM     22 CL   UNL     1      -4.579 -12.220   5.773  0.00  0.00    -0.082 Cl
ENDBRANCH  11  15
BRANCH   1  24
ATOM     23  N   UNL     1      -1.493  -2.217   5.106  0.00  0.00    -0.311 N 
ATOM     24  C   UNL     1      -2.141  -3.250   4.534  0.00  0.00    +0.218 C 
ATOM     25  O   UNL     1      -1.546  -4.004   3.793  0.00  0.00    -0.275 OA
ATOM     26  H   UNL     1      -1.968  -1.614   5.699  0.00  0.00    +0.149 HD
BRANCH  23  27
ATOM     27  C   UNL     1      -0.069  -2.003   4.833  0.00  0.00    +0.139 C 
BRANCH  27  33
ATOM     28  C   UNL     1       1.494   0.111   9.091  0.00  0.00    +0.044 C 
ATOM     29  C   UNL     1       1.158   0.220   7.626  0.00  0.00    -0.047 A 
ATOM     30  C   UNL     1       1.291   1.433   6.975  0.00  0.00    +0.003 A 
ATOM     31  C   UNL     1       0.984   1.533   5.631  0.00  0.00    +0.001 A 
ATOM     32  C   UNL     1       0.543   0.421   4.938  0.00  0.00    +0.005 A 
ATOM     33  C   UNL     1       0.411  -0.791   5.589  0.00  0.00    -0.027 A 
ATOM     34  C   UNL     1       0.723  -0.893   6.932  0.00  0.00    -0.043 A 
ATOM     35  C   UNL     1       0.584  -2.216   7.640  0.00  0.00    +0.044 C 
ENDBRANCH  27  33
ENDBRANCH  23  27
ENDBRANCH   1  24
TORSDOF 4
