REMARK  Name = ZINC36597783
REMARK  11 active torsions:
REMARK  status: ('A' for Active; 'I' for Inactive)
REMARK    1  A    between atoms: C_1  and  C_2
REMARK    2  A    between atoms: C_5  and  C_7
REMARK    3  A    between atoms: C_7  and  N_8
REMARK    4  A    between atoms: N_8  and  C_9
REMARK    5  A    between atoms: C_9  and  C_11
REMARK    6  A    between atoms: C_9  and  C_20
REMARK    7  A    between atoms: C_14  and  N_17
REMARK    8  A    between atoms: N_22  and  C_23
REMARK    9  A    between atoms: C_29  and  C_31
REMARK   10  A    between atoms: C_35  and  O_38
REMARK   11  A    between atoms: C_36  and  O_37
REMARK                            x       y       z     vdW  Elec       q    Type
REMARK                         _______ _______ _______ _____ _____    ______ ____
ROOT
ATOM      1  N   UNL     1       2.929  -4.758  -0.804  0.00  0.00    -0.275 N 
ATOM      2  C   UNL     1       1.770  -4.745  -0.116  0.00  0.00    +0.252 C 
ATOM      3  O   UNL     1       0.953  -5.630  -0.283  0.00  0.00    -0.270 OA
ENDROOT
BRANCH   2   4
ATOM      4  C   UNL     1       1.491  -3.656   0.840  0.00  0.00    +0.082 A 
ATOM      5  C   UNL     1       1.573  -2.322   0.428  0.00  0.00    +0.017 A 
ATOM      6  C   UNL     1       1.312  -1.308   1.323  0.00  0.00    +0.005 A 
ATOM      7  C   UNL     1       0.968  -1.602   2.633  0.00  0.00    +0.049 A 
ATOM      8  C   UNL     1       0.884  -2.917   3.056  0.00  0.00    +0.159 A 
ATOM      9  C   UNL     1       1.139  -3.953   2.162  0.00  0.00    +0.171 A 
BRANCH   9  10
ATOM     10  O   UNL     1       1.052  -5.244   2.571  0.00  0.00    -0.503 OA
ATOM     11  H   UNL     1       1.879  -5.603   2.920  0.00  0.00    +0.292 HD
ENDBRANCH   9  10
BRANCH   8  12
ATOM     12  O   UNL     1       0.547  -3.197   4.343  0.00  0.00    -0.503 OA
ATOM     13  H   UNL     1      -0.404  -3.297   4.488  0.00  0.00    +0.292 HD
ENDBRANCH   8  12
ENDBRANCH   2   4
BRANCH   1  14
ATOM     14  C   UNL     1       3.258  -5.899  -1.662  0.00  0.00    +0.183 C 
BRANCH  14  19
ATOM     15  C   UNL     1       4.782  -9.597   1.410  0.00  0.00    +0.086 C 
ATOM     16  C   UNL     1       3.916  -8.771   0.494  0.00  0.00    +0.102 A 
ATOM     17  C   UNL     1       2.655  -9.062   0.130  0.00  0.00    +0.045 A 
ATOM     18  C   UNL     1       2.227  -8.025  -0.731  0.00  0.00    +0.046 A 
ATOM     19  C   UNL     1       3.253  -7.163  -0.842  0.00  0.00    +0.122 A 
ATOM     20  O   UNL     1       4.272  -7.617  -0.093  0.00  0.00    -0.463 OA
ENDBRANCH  14  19
ENDBRANCH   1  14
BRANCH   1  21
ATOM     21  C   UNL     1       3.859  -3.632  -0.693  0.00  0.00    +0.193 C 
BRANCH  21  22
ATOM     22  C   UNL     1       4.080  -3.027  -2.055  0.00  0.00    -0.018 A 
ATOM     23  C   UNL     1       3.193  -3.293  -3.082  0.00  0.00    +0.008 A 
ATOM     24  C   UNL     1       3.395  -2.738  -4.332  0.00  0.00    +0.033 A 
ATOM     25  C   UNL     1       4.484  -1.916  -4.555  0.00  0.00    +0.126 A 
ATOM     26  C   UNL     1       5.370  -1.649  -3.528  0.00  0.00    +0.033 A 
ATOM     27  C   UNL     1       5.166  -2.201  -2.277  0.00  0.00    +0.008 A 
BRANCH  25  28
ATOM     28  N   UNL     1       4.702  -1.323  -5.893  0.00  0.00    +0.056 N 
ATOM     29  O   UNL     1       3.927  -1.557  -6.791  0.00  0.00    -0.126 OA
ATOM     30  O   UNL     1       5.654  -0.604  -6.088  0.00  0.00    -0.126 OA
ENDBRANCH  25  28
ENDBRANCH  21  22
BRANCH  21  31
ATOM     31  C   UNL     1       5.174  -4.119  -0.141  0.00  0.00    +0.238 C 
ATOM     32  O   UNL     1       5.499  -5.279  -0.284  0.00  0.00    -0.273 OA
ATOM     33  N   UNL     1       5.988  -3.267   0.512  0.00  0.00    -0.311 N 
ATOM     34  H   UNL     1       5.728  -2.339   0.627  0.00  0.00    +0.149 HD
BRANCH  33  35
ATOM     35  C   UNL     1       7.266  -3.740   1.049  0.00  0.00    +0.073 C 
ATOM     36  C   UNL     1       7.042  -4.355   2.432  0.00  0.00    +0.022 C 
ATOM     37  C   UNL     1       8.377  -4.850   2.993  0.00  0.00    +0.002 C 
ATOM     38  C   UNL     1       9.349  -3.674   3.109  0.00  0.00    +0.000 C 
ATOM     39  C   UNL     1       9.573  -3.059   1.726  0.00  0.00    +0.002 C 
ATOM     40  C   UNL     1       8.238  -2.564   1.165  0.00  0.00    +0.022 C 
ENDBRANCH  33  35
ENDBRANCH  21  31
ENDBRANCH   1  21
TORSDOF 10
