REMARK  Name = ZINC08790700
REMARK  6 active torsions:
REMARK  status: ('A' for Active; 'I' for Inactive)
REMARK    1  A    between atoms: C_1  and  C_2
REMARK    2  A    between atoms: CA_16  and  C_18
REMARK    3  A    between atoms: C_18  and  O_19
REMARK    4  A    between atoms: N_22  and  C_25
REMARK    5  A    between atoms: C_25  and  C_26
REMARK    6  A    between atoms: C_26  and  C_27
REMARK                            x       y       z     vdW  Elec       q    Type
REMARK                         _______ _______ _______ _____ _____    ______ ____
ROOT
ATOM      1  C   UNL     1      -4.669  -1.755   2.843  0.00  0.00    +0.047 C 
ATOM      2  C   UNL     1      -3.278  -1.211   2.647  0.00  0.00    -0.011 A 
ATOM      3  C   UNL     1      -2.183  -1.982   2.984  0.00  0.00    +0.046 A 
ATOM      4  C   UNL     1      -0.902  -1.490   2.807  0.00  0.00    +0.020 A 
ATOM      5  C   UNL     1      -0.717  -0.220   2.290  0.00  0.00    +0.006 A 
ATOM      6  C   UNL     1      -1.806   0.552   1.953  0.00  0.00    -0.027 A 
ATOM      7  C   UNL     1      -3.100   0.068   2.126  0.00  0.00    +0.040 A 
ATOM      8  N   UNL     1      -4.031   1.024   1.715  0.00  0.00    -0.286 N 
ATOM      9  C   UNL     1      -3.441   2.148   1.266  0.00  0.00    +0.211 C 
ATOM     10  O   UNL     1      -3.998   3.141   0.847  0.00  0.00    -0.277 OA
ATOM     11  C   UNL     1      -1.957   1.935   1.385  0.00  0.00    +0.050 C 
ATOM     12  C   UNL     1      -1.260   2.065   0.019  0.00  0.00    +0.088 C 
ATOM     13  C   UNL     1      -0.698   3.514   0.012  0.00  0.00    +0.075 C 
ATOM     14  CA  UNL     1      -1.126   4.119   1.365  0.00  0.00    -0.031 C 
ATOM     15  C   UNL     1       0.799   3.307   0.007  0.00  0.00    +0.224 C 
ATOM     16  O   UNL     1       1.629   4.191   0.009  0.00  0.00    -0.275 OA
ATOM     17  N   UNL     1       1.067   1.996   0.003  0.00  0.00    -0.241 N 
ATOM     18  C   UNL     1      -0.014   1.208   0.009  0.00  0.00    +0.225 C 
ATOM     19  O   UNL     1       0.002  -0.004   0.002  0.00  0.00    -0.275 OA
ATOM     20 CL   UNL     1      -2.415  -3.575   3.632  0.00  0.00    -0.083 Cl
ATOM     21  H   UNL     1      -4.992   0.893   1.748  0.00  0.00    +0.155 HD
ATOM     22  N   UNL     1      -1.343   2.951   2.222  0.00  0.00    +0.396 N 
ATOM     23  H1  UNL     1      -0.448   2.612   2.594  0.00  0.00    -0.083 HD
ATOM     24  H2  UNL     1      -1.967   3.194   3.001  0.00  0.00    -0.083 HD
ENDROOT
BRANCH  14  25
ATOM     25  C   UNL     1      -0.021   5.020   1.919  0.00  0.00    +0.141 C 
BRANCH  25  26
ATOM     26  O   UNL     1      -0.481   5.660   3.111  0.00  0.00    -0.397 OA
ATOM     27  H   UNL     1       0.170   6.249   3.517  0.00  0.00    +0.209 HD
ENDBRANCH  25  26
ENDBRANCH  14  25
BRANCH  17  28
ATOM     28  C   UNL     1       2.433   1.466  -0.008  0.00  0.00    +0.121 C 
BRANCH  28  29
ATOM     29  C   UNL     1       2.898   1.284  -1.454  0.00  0.00    +0.054 C 
BRANCH  29  30
ATOM     30  C   UNL     1       4.303   0.739  -1.464  0.00  0.00    -0.046 A 
ATOM     31  C   UNL     1       5.381   1.606  -1.476  0.00  0.00    +0.004 A 
ATOM     32  C   UNL     1       6.670   1.106  -1.481  0.00  0.00    +0.000 A 
ATOM     33  C   UNL     1       6.881  -0.260  -1.485  0.00  0.00    +0.000 A 
ATOM     34  C   UNL     1       5.804  -1.127  -1.478  0.00  0.00    +0.000 A 
ATOM     35  C   UNL     1       4.515  -0.627  -1.468  0.00  0.00    +0.004 A 
ENDBRANCH  29  30
ENDBRANCH  28  29
ENDBRANCH  17  28
TORSDOF 5
