REMARK  Name = ZINC39635793
REMARK  6 active torsions:
REMARK  status: ('A' for Active; 'I' for Inactive)
REMARK    1  A    between atoms: C_1  and  C_2
REMARK    2  A    between atoms: C_2  and  C_3
REMARK    3  A    between atoms: C_6  and  C_9
REMARK    4  A    between atoms: C_13  and  C_22
REMARK    5  A    between atoms: N_24  and  C_25
REMARK    6  A    between atoms: C_31  and  C_33
REMARK                            x       y       z     vdW  Elec       q    Type
REMARK                         _______ _______ _______ _____ _____    ______ ____
ROOT
ATOM      1  C   UNL     1       2.783  -1.911   4.661  0.00  0.00    +0.247 C 
ATOM      2  O   UNL     1       3.963  -2.194   4.590  0.00  0.00    -0.270 OA
ATOM      3  N   UNL     1       2.123  -2.059   5.827  0.00  0.00    -0.296 N 
ATOM      4  C   UNL     1       0.672  -1.892   6.077  0.00  0.00    +0.121 C 
ATOM      5  C   UNL     1       0.312  -3.027   7.062  0.00  0.00    +0.100 C 
ATOM      6  C   UNL     1       1.636  -3.373   7.763  0.00  0.00    -0.004 C 
ATOM      7  C   UNL     1       2.684  -2.434   7.147  0.00  0.00    +0.115 C 
ATOM      8  C   UNL     1       2.014  -4.826   7.492  0.00  0.00    -0.010 C 
ATOM      9  C   UNL     1       3.304  -5.162   8.245  0.00  0.00    -0.082 C 
ATOM     10  N   UNL     1       3.102  -4.949   9.684  0.00  0.00    +0.379 N 
ATOM     11  C   UNL     1       2.830  -3.530   9.946  0.00  0.00    -0.082 C 
ATOM     12  C   UNL     1       1.520  -3.125   9.264  0.00  0.00    -0.010 C 
ATOM     13  H   UNL     1       2.320  -5.503   9.998  0.00  0.00    -0.086 HD
ATOM     14  H   UNL     1       3.932  -5.229  10.184  0.00  0.00    -0.086 HD
ENDROOT
BRANCH   1  18
ATOM     15  C   UNL     1       0.739  -0.452   1.235  0.00  0.00    -0.048 A 
ATOM     16  C   UNL     1       1.871  -1.233   1.082  0.00  0.00    +0.004 A 
ATOM     17  C   UNL     1       2.539  -1.710   2.190  0.00  0.00    +0.013 A 
ATOM     18  C   UNL     1       2.071  -1.403   3.469  0.00  0.00    +0.037 A 
ATOM     19  C   UNL     1       0.929  -0.615   3.617  0.00  0.00    +0.013 A 
ATOM     20  C   UNL     1       0.273  -0.140   2.500  0.00  0.00    +0.004 A 
BRANCH  15  22
ATOM     21  C   UNL     1       0.593   1.423  -0.380  0.00  0.00    +0.009 C 
ATOM     22  C   UNL     1       0.013   0.065   0.020  0.00  0.00    +0.032 C 
ENDBRANCH  15  22
ENDBRANCH   1  18
BRANCH   5  23
ATOM     23  C   UNL     1      -0.706  -2.548   8.065  0.00  0.00    +0.218 C 
ATOM     24  O   UNL     1      -0.789  -1.367   8.328  0.00  0.00    -0.275 OA
ATOM     25  N   UNL     1      -1.524  -3.433   8.670  0.00  0.00    -0.312 N 
ATOM     26  H   UNL     1      -1.457  -4.377   8.459  0.00  0.00    +0.149 HD
BRANCH  25  27
ATOM     27  C   UNL     1      -2.513  -2.967   9.645  0.00  0.00    +0.076 C 
ATOM     28  C   UNL     1      -3.780  -2.520   8.912  0.00  0.00    +0.022 C 
ATOM     29  C   UNL     1      -4.813  -2.034   9.930  0.00  0.00    +0.002 C 
ATOM     30  C   UNL     1      -5.156  -3.173  10.892  0.00  0.00    +0.000 C 
ATOM     31  C   UNL     1      -3.890  -3.620  11.625  0.00  0.00    +0.005 C 
ATOM     32  C   UNL     1      -2.856  -4.106  10.607  0.00  0.00    +0.006 C 
ATOM     33  C   UNL     1      -1.590  -4.554  11.339  0.00  0.00    +0.009 C 
ENDBRANCH  25  27
ENDBRANCH   5  23
TORSDOF 4
