REMARK  Name = ZINC02336372
REMARK  8 active torsions:
REMARK  status: ('A' for Active; 'I' for Inactive)
REMARK    1  A    between atoms: C_1  and  C_2
REMARK    2  A    between atoms: C_2  and  C_35
REMARK    3  A    between atoms: C_6  and  N_27
REMARK    4  A    between atoms: C_12  and  S_16
REMARK    5  A    between atoms: S_16  and  C_17
REMARK    6  A    between atoms: C_17  and  C_18
REMARK    7  A    between atoms: N_20  and  C_21
REMARK    8  A    between atoms: C_21  and  C_22
REMARK                            x       y       z     vdW  Elec       q    Type
REMARK                         _______ _______ _______ _____ _____    ______ ____
ROOT
ATOM      1  C   UNL     1      -2.590   9.103  -2.495  0.00  0.00    +0.041 C 
ATOM      2  C   UNL     1      -2.570   7.584  -2.308  0.00  0.00    +0.068 C 
ATOM      3  C   UNL     1      -2.641   6.896  -3.673  0.00  0.00    +0.070 C 
ATOM      4  C   UNL     1      -2.335   5.430  -3.519  0.00  0.00    -0.024 A 
ATOM      5  C   UNL     1      -1.736   4.933  -2.405  0.00  0.00    +0.020 A 
ATOM      6  C   UNL     1      -1.460   3.564  -2.313  0.00  0.00    +0.105 A 
ATOM      7  C   UNL     1      -2.380   3.194  -4.389  0.00  0.00    +0.089 A 
ATOM      8  C   UNL     1      -2.689   4.552  -4.573  0.00  0.00    +0.035 A 
ATOM      9  C   UNL     1      -3.347   4.896  -5.847  0.00  0.00    +0.092 A 
ATOM     10  C   UNL     1      -3.586   3.828  -6.721  0.00  0.00    +0.072 A 
ATOM     11  S   UNL     1      -2.954   2.406  -5.873  0.00  0.00    -0.066 S 
ATOM     12  C   UNL     1      -4.199   4.034  -7.949  0.00  0.00    +0.115 A 
ATOM     13  N   UNL     1      -4.557   5.276  -8.277  0.00  0.00    -0.228 NA
ATOM     14  C   UNL     1      -4.324   6.272  -7.442  0.00  0.00    +0.223 A 
ATOM     15  N   UNL     1      -3.748   6.114  -6.276  0.00  0.00    -0.234 NA
ATOM     16  C   UNL     1      -1.347   5.826  -1.255  0.00  0.00    +0.199 C 
ATOM     17  O   UNL     1      -1.351   7.193  -1.667  0.00  0.00    -0.369 OA
ATOM     18  C   UNL     1      -3.764   7.155  -1.453  0.00  0.00    +0.041 C 
ATOM     19  N   UNL     1      -1.776   2.672  -3.293  0.00  0.00    -0.337 N 
ATOM     20  H   UNL     1      -1.570   1.669  -3.208  0.00  0.00    +0.168 HD
ENDROOT
BRANCH   6  21
ATOM     21  N   UNL     1      -0.839   3.061  -1.178  0.00  0.00    -0.312 N 
ATOM     22  C   UNL     1       0.094   1.979  -1.524  0.00  0.00    +0.134 C 
ATOM     23  C   UNL     1       0.799   1.494  -0.255  0.00  0.00    +0.178 C 
ATOM     24  O   UNL     1      -0.181   1.079   0.700  0.00  0.00    -0.377 OA
ATOM     25  C   UNL     1      -1.107   2.108   1.060  0.00  0.00    +0.178 C 
ATOM     26  C   UNL     1      -1.831   2.599  -0.197  0.00  0.00    +0.134 C 
ENDBRANCH   6  21
BRANCH  12  27
ATOM     27  S   UNL     1      -4.498   2.688  -9.046  0.00  0.00    -0.095 S 
BRANCH  27  28
ATOM     28  C   UNL     1      -5.289   3.569 -10.415  0.00  0.00    +0.171 C 
BRANCH  28  29
ATOM     29  C   UNL     1      -5.644   2.589 -11.505  0.00  0.00    +0.224 C 
ATOM     30  O   UNL     1      -5.387   1.412 -11.368  0.00  0.00    -0.275 OA
ATOM     31  N   UNL     1      -6.246   3.022 -12.630  0.00  0.00    -0.308 N 
ATOM     32  H   UNL     1      -6.451   3.964 -12.739  0.00  0.00    +0.149 HD
BRANCH  31  33
ATOM     33  C   UNL     1      -6.591   2.070 -13.689  0.00  0.00    +0.178 C 
BRANCH  33  34
ATOM     34  C   UNL     1      -7.249   2.803 -14.829  0.00  0.00    +0.122 A 
ATOM     35  C   UNL     1      -6.617   3.346 -15.885  0.00  0.00    +0.046 A 
ATOM     36  C   UNL     1      -7.612   3.929 -16.703  0.00  0.00    +0.041 A 
ATOM     37  C   UNL     1      -8.792   3.709 -16.097  0.00  0.00    +0.195 A 
ATOM     38  O   UNL     1      -8.567   3.021 -14.966  0.00  0.00    -0.466 OA
ENDBRANCH  33  34
ENDBRANCH  31  33
ENDBRANCH  28  29
ENDBRANCH  27  28
ENDBRANCH  12  27
TORSDOF 6
