REMARK  Name = ZINC06828426
REMARK  3 active torsions:
REMARK  status: ('A' for Active; 'I' for Inactive)
REMARK    1  A    between atoms: C_2  and  C_25
REMARK    2  A    between atoms: C_6  and  C_22
REMARK    3  A    between atoms: C_9  and  C_12
REMARK                            x       y       z     vdW  Elec       q    Type
REMARK                         _______ _______ _______ _____ _____    ______ ____
ROOT
ATOM      1  C   UNL     1       5.699  -4.926  -0.927  0.00  0.00    +0.155 A 
ATOM      2  C   UNL     1       4.435  -4.295  -1.039  0.00  0.00    +0.111 A 
ATOM      3  C   UNL     1       4.599  -2.993  -0.606  0.00  0.00    +0.135 A 
ATOM      4  N   UNL     1       5.899  -2.840  -0.252  0.00  0.00    -0.241 N 
ATOM      5  N   UNL     1       6.552  -4.053  -0.461  0.00  0.00    -0.176 NA
ATOM      6  C   UNL     1       6.460  -1.585   0.257  0.00  0.00    +0.177 C 
ATOM      7  C   UNL     1       5.527  -0.432  -0.132  0.00  0.00    +0.055 C 
ATOM      8  C   UNL     1       4.084  -0.779   0.251  0.00  0.00    +0.080 C 
ATOM      9  N   UNL     1       3.670  -1.970  -0.517  0.00  0.00    -0.325 N 
ATOM     10  H   UNL     1       2.797  -2.032  -0.935  0.00  0.00    +0.148 HD
ENDROOT
BRANCH   8  11
ATOM     11  C   UNL     1       4.006  -1.075   1.750  0.00  0.00    -0.010 C 
ATOM     12  C   UNL     1       2.564  -0.901   2.230  0.00  0.00    +0.012 C 
ATOM     13  C   UNL     1       2.487  -1.197   3.729  0.00  0.00    -0.010 C 
ATOM     14  C   UNL     1       3.398  -0.230   4.488  0.00  0.00    +0.007 C 
ATOM     15  C   UNL     1       4.840  -0.404   4.007  0.00  0.00    -0.010 C 
ATOM     16  C   UNL     1       4.917  -0.108   2.508  0.00  0.00    +0.012 C 
ATOM     17  C   UNL     1       5.294  -1.842   4.267  0.00  0.00    +0.007 C 
ATOM     18  C   UNL     1       4.383  -2.809   3.508  0.00  0.00    -0.010 C 
ATOM     19  C   UNL     1       2.941  -2.635   3.989  0.00  0.00    +0.007 C 
ATOM     20  C   UNL     1       4.461  -2.513   2.009  0.00  0.00    +0.012 C 
ENDBRANCH   8  11
BRANCH   6  21
ATOM     21  C   UNL     1       7.843  -1.357  -0.354  0.00  0.00    +0.365 C 
ATOM     22  F   UNL     1       8.687  -2.417  -0.007  0.00  0.00    -0.207 F 
ATOM     23  F   UNL     1       7.732  -1.286  -1.747  0.00  0.00    -0.207 F 
ENDBRANCH   6  21
BRANCH   2  24
ATOM     24  C   UNL     1       3.221  -4.891  -1.510  0.00  0.00    +0.104 C 
ATOM     25  N   UNL     1       2.258  -5.364  -1.883  0.00  0.00    -0.191 NA
ENDBRANCH   2  24
TORSDOF 3
