REMARK  Name = ZINC39344849
REMARK  11 active torsions:
REMARK  status: ('A' for Active; 'I' for Inactive)
REMARK    1  A    between atoms: C_1  and  C_2
REMARK    2  A    between atoms: C_4  and  C_9
REMARK    3  A    between atoms: C_5  and  C_8
REMARK    4  A    between atoms: C_9  and  O_10
REMARK    5  A    between atoms: O_10  and  C_11
REMARK    6  A    between atoms: N_14  and  C_24
REMARK    7  A    between atoms: N_18  and  C_20
REMARK    8  A    between atoms: C_20  and  C_21
REMARK    9  A    between atoms: C_21  and  C_22
REMARK   10  A    between atoms: C_21  and  C_23
REMARK   11  A    between atoms: C_24  and  C_25
REMARK                            x       y       z     vdW  Elec       q    Type
REMARK                         _______ _______ _______ _____ _____    ______ ____
ROOT
ATOM      1  C   UNL     1       1.079  -0.762  -3.490  0.00  0.00    +0.120 C 
ATOM      2  C   UNL     1       1.620  -2.116  -3.902  0.00  0.00    -0.044 C 
ATOM      3  N   UNL     1       1.157  -2.577  -5.204  0.00  0.00    +0.391 N 
ATOM      4  C   UNL     1       1.719  -1.757  -6.285  0.00  0.00    +0.019 C 
ATOM      5  C   UNL     1       0.825  -0.553  -6.494  0.00  0.00    +0.199 C 
ATOM      6  O   UNL     1       0.130  -0.483  -7.485  0.00  0.00    -0.278 OA
ATOM      7  N   UNL     1       0.799   0.433  -5.594  0.00  0.00    -0.300 N 
ATOM      8  C   UNL     1       1.641   0.344  -4.388  0.00  0.00    +0.137 C 
ATOM      9  H   UNL     1       0.150  -2.523  -5.236  0.00  0.00    -0.080 HD
ENDROOT
BRANCH   1  10
ATOM     10  O   UNL     1       1.448  -0.501  -2.135  0.00  0.00    -0.372 OA
BRANCH  10  11
ATOM     11  C   UNL     1       0.510   0.308  -1.423  0.00  0.00    +0.195 C 
BRANCH  11  14
ATOM     12  C   UNL     1       0.033  -1.378   1.292  0.00  0.00    +0.045 C 
ATOM     13  C   UNL     1       1.295  -0.564   0.999  0.00  0.00    +0.175 C 
ATOM     14  C   UNL     1       0.997   0.519  -0.012  0.00  0.00    +0.007 C 
ATOM     15  C   UNL     1       1.239   1.679   0.560  0.00  0.00    +0.040 C 
ATOM     16  N   UNL     1       1.674   1.512   1.863  0.00  0.00    -0.269 N 
ATOM     17  O   UNL     1       1.726   0.130   2.179  0.00  0.00    -0.267 OA
ATOM     18  C   UNL     1       1.067   3.015  -0.115  0.00  0.00    +0.065 C 
ATOM     19  H   UNL     1       1.910   2.231   2.469  0.00  0.00    +0.194 HD
ENDBRANCH  11  14
ENDBRANCH  10  11
ENDBRANCH   1  10
BRANCH   7  20
ATOM     20  C   UNL     1      -0.064   1.599  -5.805  0.00  0.00    +0.110 C 
BRANCH  20  21
ATOM     21  C   UNL     1       0.748   2.723  -6.452  0.00  0.00    +0.000 C 
ATOM     22  C   UNL     1       1.177   2.298  -7.858  0.00  0.00    +0.009 C 
ATOM     23  C   UNL     1      -0.111   3.986  -6.541  0.00  0.00    +0.009 C 
ENDBRANCH  20  21
ENDBRANCH   7  20
BRANCH   3  24
ATOM     24  C   UNL     1       1.570  -3.974  -5.395  0.00  0.00    -0.024 C 
BRANCH  24  25
ATOM     25  C   UNL     1       0.990  -4.497  -6.685  0.00  0.00    +0.000 A 
ATOM     26  H   UNL     1      -0.908  -5.131  -6.107  0.00  0.00    +0.166 HD
ATOM     27  C   UNL     1       1.628  -4.512  -7.866  0.00  0.00    +0.029 A 
ATOM     28  C   UNL     1       0.708  -5.099  -8.842  0.00  0.00    -0.000 A 
ATOM     29  C   UNL     1       0.789  -5.377 -10.208  0.00  0.00    +0.010 A 
ATOM     30  C   UNL     1      -0.275  -5.946 -10.849  0.00  0.00    +0.001 A 
ATOM     31  C   UNL     1      -1.437  -6.249 -10.154  0.00  0.00    +0.002 A 
ATOM     32  C   UNL     1      -1.540  -5.983  -8.806  0.00  0.00    +0.026 A 
ATOM     33  C   UNL     1      -0.469  -5.405  -8.133  0.00  0.00    +0.047 A 
ATOM     34  N   UNL     1      -0.262  -5.032  -6.824  0.00  0.00    -0.360 N 
ENDBRANCH  24  25
ENDBRANCH   3  24
TORSDOF 7
