REMARK  Name = ZINC38547522
REMARK  11 active torsions:
REMARK  status: ('A' for Active; 'I' for Inactive)
REMARK    1  A    between atoms: C_1  and  C_2
REMARK    2  A    between atoms: C_3  and  C_35
REMARK    3  A    between atoms: C_5  and  N_26
REMARK    4  A    between atoms: C_6  and  C_7
REMARK    5  A    between atoms: C_7  and  C_9
REMARK    6  A    between atoms: C_7  and  N_19
REMARK    7  A    between atoms: C_13  and  O_17
REMARK    8  A    between atoms: C_14  and  O_15
REMARK    9  A    between atoms: O_15  and  C_16
REMARK   10  A    between atoms: O_17  and  C_18
REMARK   11  A    between atoms: C_27  and  C_29
REMARK                            x       y       z     vdW  Elec       q    Type
REMARK                         _______ _______ _______ _____ _____    ______ ____
ROOT
ATOM      1  C   UNL     1       0.139   0.014   2.364  0.00  0.00    +0.138 C 
ENDROOT
BRANCH   1   2
ATOM      2  N   UNL     1       1.281  -0.297   3.228  0.00  0.00    -0.319 N 
ATOM      3  C   UNL     1       2.558   0.114   2.866  0.00  0.00    +0.097 A 
ATOM      4  C   UNL     1       2.729   0.942   1.761  0.00  0.00    +0.041 A 
ATOM      5  C   UNL     1       4.006   1.343   1.412  0.00  0.00    +0.005 A 
ATOM      6  C   UNL     1       5.073   0.901   2.183  0.00  0.00    +0.018 A 
ATOM      7  C   UNL     1       4.831   0.081   3.266  0.00  0.00    +0.084 A 
ATOM      8  N   UNL     1       3.601  -0.281   3.579  0.00  0.00    -0.350 N 
ATOM      9  H   UNL     1       1.145  -0.789   4.053  0.00  0.00    +0.148 HD
ATOM     10  H   UNL     1       3.458  -0.856   4.348  0.00  0.00    +0.166 HD
ENDBRANCH   1   2
BRANCH   1  16
ATOM     11  C   UNL     1       0.547  -2.865   2.556  0.00  0.00    +0.045 C 
ATOM     12  C   UNL     1       0.398  -2.202   1.211  0.00  0.00    -0.033 A 
ATOM     13  C   UNL     1       0.446  -2.937   0.073  0.00  0.00    -0.008 A 
ATOM     14  S   UNL     1       0.223  -1.691  -1.185  0.00  0.00    -0.078 S 
ATOM     15  C   UNL     1       0.080  -0.271  -0.113  0.00  0.00    +0.078 A 
ATOM     16  C   UNL     1       0.205  -0.836   1.120  0.00  0.00    +0.009 A 
ATOM     17  C   UNL     1       0.639  -4.423  -0.087  0.00  0.00    +0.052 C 
BRANCH  15  18
ATOM     18  N   UNL     1      -0.116   1.070  -0.451  0.00  0.00    -0.276 N 
ATOM     19  C   UNL     1      -0.318   1.419  -1.737  0.00  0.00    +0.249 C 
ATOM     20  O   UNL     1      -0.426   0.559  -2.590  0.00  0.00    -0.270 OA
ATOM     21  H   UNL     1      -0.106   1.751   0.240  0.00  0.00    +0.156 HD
BRANCH  19  22
ATOM     22  C   UNL     1      -0.409   2.846  -2.110  0.00  0.00    +0.037 A 
ATOM     23  C   UNL     1      -0.168   3.837  -1.157  0.00  0.00    +0.013 A 
ATOM     24  C   UNL     1      -0.255   5.167  -1.512  0.00  0.00    +0.001 A 
ATOM     25  C   UNL     1      -0.580   5.520  -2.810  0.00  0.00    +0.000 A 
ATOM     26  C   UNL     1      -0.821   4.543  -3.760  0.00  0.00    +0.001 A 
ATOM     27  C   UNL     1      -0.732   3.209  -3.419  0.00  0.00    +0.013 A 
ENDBRANCH  19  22
ENDBRANCH  15  18
ENDBRANCH   1  16
BRANCH   1  28
ATOM     28  C   UNL     1      -1.143  -0.274   3.102  0.00  0.00    +0.022 A 
ATOM     29  C   UNL     1      -1.153  -1.191   4.137  0.00  0.00    +0.009 A 
ATOM     30  C   UNL     1      -2.327  -1.458   4.816  0.00  0.00    +0.004 A 
ATOM     31  C   UNL     1      -3.497  -0.809   4.463  0.00  0.00    +0.049 A 
ATOM     32  C   UNL     1      -3.493   0.110   3.426  0.00  0.00    +0.162 A 
ATOM     33  C   UNL     1      -2.309   0.383   2.747  0.00  0.00    +0.167 A 
BRANCH  33  34
ATOM     34  O   UNL     1      -2.299   1.289   1.732  0.00  0.00    -0.491 OA
ATOM     35  C   UNL     1      -2.733   0.832   0.450  0.00  0.00    +0.277 C 
ENDBRANCH  33  34
BRANCH  32  36
ATOM     36  O   UNL     1      -4.642   0.749   3.078  0.00  0.00    -0.491 OA
ATOM     37  C   UNL     1      -5.817   0.423   3.823  0.00  0.00    +0.277 C 
ENDBRANCH  32  36
ENDBRANCH   1  28
TORSDOF 7
