REMARK  Name = ZINC63110752
REMARK  7 active torsions:
REMARK  status: ('A' for Active; 'I' for Inactive)
REMARK    1  A    between atoms: C_1  and  C_2
REMARK    2  A    between atoms: C_4  and  C_12
REMARK    3  A    between atoms: C_12  and  C_13
REMARK    4  A    between atoms: C_13  and  N_14
REMARK    5  A    between atoms: N_14  and  C_15
REMARK    6  A    between atoms: C_17  and  C_32
REMARK    7  A    between atoms: N_19  and  C_22
REMARK                            x       y       z     vdW  Elec       q    Type
REMARK                         _______ _______ _______ _____ _____    ______ ____
ROOT
ATOM      1  C   UNL     1      -6.037  -1.380  -1.371  0.00  0.00    +0.082 C 
ATOM      2  C   UNL     1      -7.032  -1.170  -2.310  0.00  0.00    +0.084 C 
ATOM      3  C   UNL     1      -6.943  -0.384  -3.550  0.00  0.00    +0.175 C 
ATOM      4  N   UNL     1      -8.099  -0.446  -4.136  0.00  0.00    -0.170 NA
ATOM      5  N   UNL     1      -8.999  -1.218  -3.403  0.00  0.00    -0.158 N 
ATOM      6  C   UNL     1      -8.405  -1.688  -2.288  0.00  0.00    +0.272 C 
ATOM      7  O   UNL     1      -8.908  -2.398  -1.433  0.00  0.00    -0.268 OA
ENDROOT
BRANCH   5   8
ATOM      8  C   UNL     1     -10.387  -1.483  -3.791  0.00  0.00    +0.249 C 
ATOM      9  N   UNL     1     -10.455  -2.100  -5.123  0.00  0.00    -0.315 N 
ATOM     10  C   UNL     1     -11.125  -1.399  -6.125  0.00  0.00    +0.043 A 
ATOM     11  C   UNL     1     -11.290  -1.828  -7.454  0.00  0.00    +0.024 A 
ATOM     12  C   UNL     1     -11.970  -1.061  -8.370  0.00  0.00    +0.002 A 
ATOM     13  C   UNL     1     -12.515   0.160  -8.016  0.00  0.00    +0.001 A 
ATOM     14  C   UNL     1     -12.367   0.608  -6.714  0.00  0.00    +0.016 A 
ATOM     15  C   UNL     1     -11.686  -0.161  -5.798  0.00  0.00    +0.032 A 
ATOM     16  S   UNL     1     -11.305   0.083  -4.077  0.00  0.00    -0.080 S 
ATOM     17  H   UNL     1     -10.048  -2.963  -5.299  0.00  0.00    +0.149 HD
ENDBRANCH   5   8
BRANCH   3  18
ATOM     18  C   UNL     1      -5.730   0.359  -4.048  0.00  0.00    +0.436 C 
ATOM     19  F   UNL     1      -6.033   0.986  -5.261  0.00  0.00    -0.164 F 
ATOM     20  F   UNL     1      -5.354   1.322  -3.106  0.00  0.00    -0.164 F 
ATOM     21  F   UNL     1      -4.678  -0.543  -4.239  0.00  0.00    -0.164 F 
ENDBRANCH   3  18
BRANCH   1  22
ATOM     22  N   UNL     1      -4.819  -0.827  -1.544  0.00  0.00    -0.349 N 
ATOM     23  H   UNL     1      -4.641  -0.281  -2.327  0.00  0.00    +0.146 HD
BRANCH  22  24
ATOM     24  C   UNL     1      -3.765  -1.049  -0.551  0.00  0.00    +0.105 C 
BRANCH  24  25
ATOM     25  C   UNL     1      -2.494  -0.316  -0.984  0.00  0.00    +0.052 C 
BRANCH  25  28
ATOM     26  C   UNL     1      -0.019   1.526   0.010  0.00  0.00    +0.035 C 
ATOM     27  C   UNL     1       0.002  -0.004   0.002  0.00  0.00    +0.103 C 
ATOM     28  C   UNL     1      -1.410  -0.545   0.038  0.00  0.00    -0.037 C 
ATOM     29  C   UNL     1      -1.503  -1.275   1.173  0.00  0.00    -0.001 A 
ATOM     30  C   UNL     1      -2.599  -2.045   1.772  0.00  0.00    +0.010 A 
ATOM     31  C   UNL     1      -2.386  -2.686   2.944  0.00  0.00    +0.001 A 
ATOM     32  C   UNL     1      -1.148  -2.632   3.599  0.00  0.00    +0.002 A 
ATOM     33  C   UNL     1      -0.094  -1.946   3.110  0.00  0.00    +0.026 A 
ATOM     34  C   UNL     1      -0.205  -1.235   1.884  0.00  0.00    +0.043 A 
ATOM     35  N   UNL     1       0.658  -0.508   1.214  0.00  0.00    -0.378 N 
ATOM     36  H   UNL     1       1.576  -0.332   1.476  0.00  0.00    +0.160 HD
ENDBRANCH  25  28
ENDBRANCH  24  25
ENDBRANCH  22  24
ENDBRANCH   1  22
TORSDOF 6
