REMARK  Name = ZINC35718170
REMARK  7 active torsions:
REMARK  status: ('A' for Active; 'I' for Inactive)
REMARK    1  A    between atoms: C_1  and  C_2
REMARK    2  A    between atoms: C_17  and  C_35
REMARK    3  A    between atoms: C_22  and  C_23
REMARK    4  A    between atoms: C_26  and  N_29
REMARK    5  A    between atoms: N_29  and  C_30
REMARK    6  A    between atoms: N_29  and  C_31
REMARK    7  A    between atoms: C_32  and  O_34
REMARK                            x       y       z     vdW  Elec       q    Type
REMARK                         _______ _______ _______ _____ _____    ______ ____
ROOT
ATOM      1  C   UNL     1       1.112  -0.980  -0.160  0.00  0.00    +0.012 C 
ATOM      2  C   UNL     1       0.717  -2.411   0.219  0.00  0.00    -0.026 C 
ATOM      3  C   UNL     1       1.331  -3.389  -0.780  0.00  0.00    +0.007 C 
ATOM      4  C   UNL     1       2.858  -3.311  -0.722  0.00  0.00    +0.001 C 
ATOM      5  C   UNL     1       3.351  -3.616   0.691  0.00  0.00    +0.000 C 
ATOM      6  C   UNL     1       2.733  -2.637   1.691  0.00  0.00    +0.004 C 
ATOM      7  C   UNL     1       1.209  -2.747   1.624  0.00  0.00    -0.005 C 
ATOM      8  C   UNL     1       0.558  -1.854   2.674  0.00  0.00    +0.004 C 
ATOM      9  C   UNL     1      -0.969  -2.004   2.617  0.00  0.00    +0.004 C 
ATOM     10  C   UNL     1      -1.312  -3.019   1.529  0.00  0.00    -0.003 C 
ATOM     11  C   UNL     1      -0.815  -2.495   0.184  0.00  0.00    -0.001 C 
ATOM     12  C   UNL     1      -1.315  -3.329  -0.978  0.00  0.00    +0.005 C 
ATOM     13  C   UNL     1      -2.844  -3.449  -1.019  0.00  0.00    +0.010 C 
ATOM     14  C   UNL     1      -3.478  -2.883   0.221  0.00  0.00    +0.001 C 
ATOM     15  C   UNL     1      -2.756  -3.399   1.483  0.00  0.00    +0.005 C 
ATOM     16  C   UNL     1      -3.681  -2.888   2.595  0.00  0.00    +0.037 C 
ATOM     17  C   UNL     1      -5.080  -3.094   2.009  0.00  0.00    -0.040 C 
ATOM     18  C   UNL     1      -6.227  -3.026   2.669  0.00  0.00    +0.009 C 
ATOM     19  C   UNL     1      -4.906  -3.393   0.522  0.00  0.00    +0.147 C 
ATOM     20  C   UNL     1      -3.571  -1.359   0.165  0.00  0.00    +0.014 C 
ENDROOT
BRANCH  18  21
ATOM     21  C   UNL     1      -7.491  -3.388   1.993  0.00  0.00    -0.025 A 
ATOM     22  C   UNL     1      -8.396  -4.247   2.619  0.00  0.00    +0.010 A 
ATOM     23  C   UNL     1      -9.574  -4.583   1.987  0.00  0.00    +0.023 A 
ATOM     24  C   UNL     1      -9.860  -4.068   0.727  0.00  0.00    +0.029 A 
ATOM     25  C   UNL     1      -8.960  -3.212   0.102  0.00  0.00    +0.023 A 
ATOM     26  C   UNL     1      -7.783  -2.868   0.731  0.00  0.00    +0.010 A 
BRANCH  24  27
ATOM     27  N   UNL     1     -11.053  -4.410   0.090  0.00  0.00    -0.336 N 
ATOM     28  C   UNL     1     -11.947  -5.402   0.692  0.00  0.00    +0.129 C 
ATOM     29  C   UNL     1     -11.412  -3.777  -1.182  0.00  0.00    +0.129 C 
ENDBRANCH  24  27
ENDBRANCH  18  21
BRANCH  19  30
ATOM     30  O   UNL     1      -4.985  -4.794   0.281  0.00  0.00    -0.387 OA
ATOM     31  H   UNL     1      -5.857  -5.174   0.452  0.00  0.00    +0.210 HD
ENDBRANCH  19  30
TORSDOF 3
