REMARK  Name = ZINC35267929
REMARK  10 active torsions:
REMARK  status: ('A' for Active; 'I' for Inactive)
REMARK    1  A    between atoms: C_1  and  C_2
REMARK    2  A    between atoms: C_2  and  C_28
REMARK    3  A    between atoms: N_5  and  N_9
REMARK    4  A    between atoms: C_10  and  C_12
REMARK    5  A    between atoms: C_12  and  N_13
REMARK    6  A    between atoms: N_13  and  C_14
REMARK    7  A    between atoms: N_13  and  C_15
REMARK    8  A    between atoms: C_15  and  C_16
REMARK    9  A    between atoms: C_28  and  C_29
REMARK   10  A    between atoms: C_29  and  C_30
REMARK                            x       y       z     vdW  Elec       q    Type
REMARK                         _______ _______ _______ _____ _____    ______ ____
ROOT
ATOM      1  N   UNL     1       2.826  -1.867  -1.372  0.00  0.00    -0.223 N 
ATOM      2  C   UNL     1       4.063  -1.337  -1.451  0.00  0.00    +0.244 C 
ATOM      3  O   UNL     1       4.316  -0.299  -0.878  0.00  0.00    -0.273 OA
ATOM      4  H   UNL     1       2.623  -2.697  -1.830  0.00  0.00    +0.174 HD
ENDROOT
BRANCH   1   9
ATOM      5  C   UNL     1      -0.019   1.526   0.010  0.00  0.00    +0.041 C 
ATOM      6  C   UNL     1       0.002  -0.004   0.002  0.00  0.00    +0.112 C 
ATOM      7  C   UNL     1       0.815  -0.520  -1.169  0.00  0.00    +0.263 C 
ATOM      8  O   UNL     1       0.595  -0.342  -2.348  0.00  0.00    -0.271 OA
ATOM      9  N   UNL     1       1.833  -1.217  -0.627  0.00  0.00    -0.137 N 
ATOM     10  C   UNL     1       1.777  -1.214   0.710  0.00  0.00    +0.326 C 
ATOM     11  O   UNL     1       2.586  -1.776   1.421  0.00  0.00    -0.251 OA
ATOM     12  N   UNL     1       0.724  -0.519   1.178  0.00  0.00    -0.284 N 
ATOM     13  H   UNL     1       0.487  -0.383   2.109  0.00  0.00    +0.151 HD
BRANCH   6  14
ATOM     14  C   UNL     1      -1.423  -0.560  -0.041  0.00  0.00    +0.040 C 
BRANCH  14  15
ATOM     15  C   UNL     1      -2.200  -0.066   1.182  0.00  0.00    +0.038 C 
BRANCH  15  16
ATOM     16  C   UNL     1      -3.603  -0.614   1.140  0.00  0.00    -0.047 A 
ATOM     17  C   UNL     1      -4.603   0.095   0.500  0.00  0.00    +0.003 A 
ATOM     18  C   UNL     1      -5.890  -0.407   0.461  0.00  0.00    +0.000 A 
ATOM     19  C   UNL     1      -6.178  -1.618   1.062  0.00  0.00    +0.000 A 
ATOM     20  C   UNL     1      -5.178  -2.328   1.701  0.00  0.00    +0.000 A 
ATOM     21  C   UNL     1      -3.889  -1.827   1.736  0.00  0.00    +0.003 A 
ENDBRANCH  15  16
ENDBRANCH  14  15
ENDBRANCH   6  14
ENDBRANCH   1   9
BRANCH   2  22
ATOM     22  C   UNL     1       5.131  -2.036  -2.252  0.00  0.00    +0.182 C 
BRANCH  22  23
ATOM     23  N   UNL     1       6.379  -1.264  -2.181  0.00  0.00    -0.290 NA
ATOM     24  C   UNL     1       6.234   0.035  -2.851  0.00  0.00    +0.105 C 
BRANCH  23  25
ATOM     25  C   UNL     1       7.502  -2.025  -2.746  0.00  0.00    +0.158 C 
BRANCH  25  26
ATOM     26  C   UNL     1       8.795  -1.315  -2.438  0.00  0.00    +0.124 A 
ATOM     27  N   UNL     1       9.954  -1.865  -2.886  0.00  0.00    -0.309 N 
ATOM     28  H   UNL     1       9.930  -2.694  -3.390  0.00  0.00    +0.170 HD
ATOM     29  C   UNL     1      11.142  -1.267  -2.636  0.00  0.00    +0.259 A 
ATOM     30  O   UNL     1      12.188  -1.748  -3.032  0.00  0.00    -0.267 OA
ATOM     31  C   UNL     1      11.120  -0.013  -1.869  0.00  0.00    +0.065 A 
ATOM     32  C   UNL     1      12.288   0.681  -1.558  0.00  0.00    +0.015 A 
ATOM     33  C   UNL     1      12.209   1.852  -0.835  0.00  0.00    +0.001 A 
ATOM     34  C   UNL     1      10.979   2.342  -0.416  0.00  0.00    +0.002 A 
ATOM     35  C   UNL     1       9.815   1.671  -0.713  0.00  0.00    +0.028 A 
ATOM     36  C   UNL     1       9.868   0.483  -1.444  0.00  0.00    +0.078 A 
ATOM     37  N   UNL     1       8.745  -0.207  -1.763  0.00  0.00    -0.232 NA
ENDBRANCH  25  26
ENDBRANCH  23  25
ENDBRANCH  22  23
ENDBRANCH   2  22
TORSDOF 8
