REMARK  Name = ZINC12776484
REMARK  9 active torsions:
REMARK  status: ('A' for Active; 'I' for Inactive)
REMARK    1  A    between atoms: C_1  and  C_2
REMARK    2  A    between atoms: C_7  and  N_8
REMARK    3  A    between atoms: C_9  and  C_11
REMARK    4  A    between atoms: C_11  and  N_12
REMARK    5  A    between atoms: C_13  and  C_15
REMARK    6  A    between atoms: C_27  and  C_29
REMARK    7  A    between atoms: C_27  and  C_30
REMARK    8  A    between atoms: C_32  and  C_34
REMARK    9  A    between atoms: C_32  and  C_35
REMARK                            x       y       z     vdW  Elec       q    Type
REMARK                         _______ _______ _______ _____ _____    ______ ____
ROOT
ATOM      1  N   UNL     1      -0.017   1.460   0.026  0.00  0.00    -0.304 N 
ATOM      2  C   UNL     1       1.141   2.150   0.029  0.00  0.00    +0.245 C 
ATOM      3  O   UNL     1       2.200   1.557   0.024  0.00  0.00    -0.273 OA
ATOM      4  H   UNL     1      -0.863   1.934   0.027  0.00  0.00    +0.149 HD
ENDROOT
BRANCH   2   5
ATOM      5  C   UNL     1       1.121   3.658   0.039  0.00  0.00    +0.238 C 
ATOM      6  C   UNL     1       0.308   4.150   1.225  0.00  0.00    +0.191 C 
ATOM      7  C   UNL     1       1.112   4.653   2.431  0.00  0.00    +0.187 C 
ATOM      8  C   UNL     1       2.463   5.184   2.052  0.00  0.00    +0.209 C 
ATOM      9  C   UNL     1       3.167   4.154   1.132  0.00  0.00    +0.286 C 
ATOM     10  O   UNL     1       2.446   4.154  -0.076  0.00  0.00    -0.333 OA
ATOM     11  O   UNL     1       4.502   4.647   1.118  0.00  0.00    -0.318 OA
ATOM     12  C   UNL     1       4.696   5.274   2.407  0.00  0.00    +0.168 C 
ATOM     13  O   UNL     1       3.427   5.300   3.104  0.00  0.00    -0.338 OA
ATOM     14  C   UNL     1       5.212   6.700   2.212  0.00  0.00    +0.074 C 
ATOM     15  C   UNL     1       5.714   4.467   3.220  0.00  0.00    +0.074 C 
ATOM     16  O   UNL     1       1.175   3.535   3.329  0.00  0.00    -0.341 OA
ATOM     17  C   UNL     1      -0.068   2.842   3.118  0.00  0.00    +0.166 C 
ATOM     18  O   UNL     1      -0.421   3.005   1.739  0.00  0.00    -0.340 OA
ATOM     19  C   UNL     1       0.106   1.359   3.451  0.00  0.00    +0.074 C 
ATOM     20  C   UNL     1      -1.155   3.441   4.014  0.00  0.00    +0.074 C 
ENDBRANCH   2   5
BRANCH   1  21
ATOM     21  C   UNL     1       0.003  -0.004   0.017  0.00  0.00    +0.200 C 
BRANCH  21  23
ATOM     22  N   UNL     1      -1.640  -1.854   0.008  0.00  0.00    -0.284 N 
ATOM     23  C   UNL     1      -1.411  -0.526   0.016  0.00  0.00    +0.234 C 
ATOM     24  O   UNL     1      -2.344   0.250   0.022  0.00  0.00    -0.274 OA
ATOM     25  H   UNL     1      -0.898  -2.473  -0.078  0.00  0.00    +0.155 HD
BRANCH  22  32
ATOM     26  C   UNL     1      -2.218  -4.425  -1.065  0.00  0.00    +0.045 C 
ATOM     27  C   UNL     1      -3.272  -3.590  -0.386  0.00  0.00    -0.029 A 
ATOM     28  C   UNL     1      -4.562  -4.069  -0.266  0.00  0.00    +0.005 A 
ATOM     29  C   UNL     1      -5.532  -3.300   0.352  0.00  0.00    +0.000 A 
ATOM     30  C   UNL     1      -5.212  -2.052   0.855  0.00  0.00    +0.002 A 
ATOM     31  C   UNL     1      -3.923  -1.570   0.743  0.00  0.00    +0.023 A 
ATOM     32  C   UNL     1      -2.947  -2.340   0.123  0.00  0.00    +0.036 A 
ENDBRANCH  22  32
ENDBRANCH  21  23
ENDBRANCH   1  21
TORSDOF 4
