REMARK  Name = ZINC13639873
REMARK  6 active torsions:
REMARK  status: ('A' for Active; 'I' for Inactive)
REMARK    1  A    between atoms: C_1  and  C_2
REMARK    2  A    between atoms: N_5  and  S_8
REMARK    3  A    between atoms: S_8  and  C_11
REMARK    4  A    between atoms: C_24  and  C_27
REMARK    5  A    between atoms: C_30  and  O_34
REMARK    6  A    between atoms: C_32  and  O_33
REMARK                            x       y       z     vdW  Elec       q    Type
REMARK                         _______ _______ _______ _____ _____    ______ ____
ROOT
ATOM      1  C   UNL     1      -3.566   3.220   2.021  0.00  0.00    +0.106 A 
ATOM      2  C   UNL     1      -3.818   3.280   0.663  0.00  0.00    +0.030 A 
ATOM      3  C   UNL     1      -3.416   2.242  -0.154  0.00  0.00    +0.025 A 
ATOM      4  C   UNL     1      -2.761   1.143   0.391  0.00  0.00    +0.031 A 
ATOM      5  C   UNL     1      -2.509   1.078   1.750  0.00  0.00    -0.018 A 
ATOM      6  C   UNL     1      -2.917   2.128   2.562  0.00  0.00    +0.034 A 
ATOM      7  C   UNL     1      -1.809  -0.086   2.397  0.00  0.00    +0.049 C 
ATOM      8  C   UNL     1      -2.748  -0.685   3.435  0.00  0.00    -0.023 C 
ATOM      9  C   UNL     1      -3.387  -1.712   2.934  0.00  0.00    -0.030 C 
ATOM     10  C   UNL     1      -2.966  -1.950   1.495  0.00  0.00    +0.033 C 
ATOM     11  C   UNL     1      -1.586  -1.254   1.420  0.00  0.00    +0.029 C 
ATOM     12  C   UNL     1      -1.293  -0.775   0.011  0.00  0.00    +0.108 C 
ATOM     13  N   UNL     1      -2.382   0.095  -0.449  0.00  0.00    -0.336 N 
ATOM     14  H   UNL     1      -2.805  -0.045  -1.310  0.00  0.00    +0.147 HD
ENDROOT
BRANCH  12  15
ATOM     15  C   UNL     1       0.002  -0.004   0.002  0.00  0.00    +0.015 A 
ATOM     16  C   UNL     1      -0.017   1.377  -0.043  0.00  0.00    +0.012 A 
ATOM     17  C   UNL     1       1.169   2.086  -0.050  0.00  0.00    +0.046 A 
ATOM     18  C   UNL     1       2.382   1.413  -0.013  0.00  0.00    +0.120 A 
ATOM     19  C   UNL     1       2.403   0.028   0.032  0.00  0.00    +0.091 A 
ATOM     20  C   UNL     1       1.212  -0.682   0.039  0.00  0.00    +0.125 A 
BRANCH  20  21
ATOM     21  O   UNL     1       1.230  -2.040   0.084  0.00  0.00    -0.506 OA
ATOM     22  H   UNL     1       1.246  -2.462  -0.786  0.00  0.00    +0.292 HD
ENDBRANCH  20  21
BRANCH  18  23
ATOM     23  O   UNL     1       3.548   2.111  -0.020  0.00  0.00    -0.507 OA
ATOM     24  H   UNL     1       3.897   2.285  -0.905  0.00  0.00    +0.292 HD
ENDBRANCH  18  23
ENDBRANCH  12  15
BRANCH   1  25
ATOM     25  S   UNL     1      -4.075   4.544   3.067  0.00  0.00    +0.061 S 
ATOM     26  O   UNL     1      -3.240   4.499   4.215  0.00  0.00    -0.153 OA
ATOM     27  O   UNL     1      -4.175   5.697   2.242  0.00  0.00    -0.153 OA
BRANCH  25  32
ATOM     28  C   UNL     1      -8.941   1.551   3.557  0.00  0.00    +0.007 C 
ATOM     29  C   UNL     1      -8.019   2.738   3.840  0.00  0.00    -0.012 C 
ATOM     30  C   UNL     1      -6.735   2.238   4.506  0.00  0.00    +0.020 C 
ATOM     31  C   UNL     1      -5.828   3.432   4.819  0.00  0.00    +0.110 C 
ATOM     32  N   UNL     1      -5.609   4.197   3.584  0.00  0.00    -0.177 NA
ATOM     33  C   UNL     1      -6.778   4.654   2.820  0.00  0.00    +0.110 C 
ATOM     34  C   UNL     1      -7.674   3.441   2.526  0.00  0.00    +0.020 C 
ENDBRANCH  25  32
ENDBRANCH   1  25
TORSDOF 5
