REMARK  Name = ZINC59170400
REMARK  7 active torsions:
REMARK  status: ('A' for Active; 'I' for Inactive)
REMARK    1  A    between atoms: C_1  and  C_2
REMARK    2  A    between atoms: C_5  and  N_8
REMARK    3  A    between atoms: C_9  and  C_11
REMARK    4  A    between atoms: C_15  and  C_32
REMARK    5  A    between atoms: N_21  and  C_22
REMARK    6  A    between atoms: C_25  and  S_28
REMARK    7  A    between atoms: S_28  and  N_31
REMARK                            x       y       z     vdW  Elec       q    Type
REMARK                         _______ _______ _______ _____ _____    ______ ____
ROOT
ATOM      1  C   UNL     1       0.352  -6.290   1.110  0.00  0.00    +0.098 A 
ATOM      2  C   UNL     1       0.356  -7.009   2.298  0.00  0.00    +0.030 A 
ATOM      3  C   UNL     1       0.433  -8.469   2.200  0.00  0.00    +0.018 A 
ATOM      4  C   UNL     1       0.177  -9.277   3.315  0.00  0.00    +0.015 A 
ATOM      5  C   UNL     1       0.253 -10.636   3.198  0.00  0.00    -0.050 A 
ATOM      6  C   UNL     1       0.581 -11.222   1.984  0.00  0.00    +0.007 A 
ATOM      7  C   UNL     1       0.838 -10.444   0.873  0.00  0.00    +0.047 A 
ATOM      8  C   UNL     1       0.769  -9.062   0.969  0.00  0.00    +0.137 A 
ATOM      9  O   UNL     1       1.026  -8.281  -0.109  0.00  0.00    -0.439 OA
ATOM     10  C   UNL     1       0.419  -7.064  -0.145  0.00  0.00    +0.212 A 
ATOM     11  N   UNL     1      -0.087  -6.589  -1.262  0.00  0.00    -0.325 N 
ATOM     12  C   UNL     1      -0.022 -11.506   4.397  0.00  0.00    +0.044 C 
ATOM     13  H   UNL     1      -0.607  -5.770  -1.250  0.00  0.00    +0.169 HD
ENDROOT
BRANCH  11  14
ATOM     14  C   UNL     1       0.120  -7.249  -2.442  0.00  0.00    +0.042 A 
ATOM     15  C   UNL     1       1.391  -7.733  -2.762  0.00  0.00    +0.027 A 
ATOM     16  C   UNL     1       1.592  -8.398  -3.953  0.00  0.00    +0.030 A 
ATOM     17  C   UNL     1       0.539  -8.587  -4.831  0.00  0.00    +0.105 A 
ATOM     18  C   UNL     1      -0.722  -8.110  -4.521  0.00  0.00    +0.030 A 
ATOM     19  C   UNL     1      -0.940  -7.448  -3.330  0.00  0.00    +0.027 A 
BRANCH  17  20
ATOM     20  S   UNL     1       0.806  -9.437  -6.350  0.00  0.00    +0.056 S 
ATOM     21  O   UNL     1      -0.214  -9.006  -7.241  0.00  0.00    -0.153 OA
ATOM     22  O   UNL     1       2.188  -9.305  -6.653  0.00  0.00    -0.153 OA
BRANCH  20  23
ATOM     23  N   UNL     1       0.536 -11.046  -6.065  0.00  0.00    -0.204 NA
ATOM     24  H   UNL     1       0.204 -11.616  -6.776  0.00  0.00    +0.144 HD
ATOM     25  H   UNL     1       0.710 -11.419  -5.186  0.00  0.00    +0.144 HD
ENDBRANCH  20  23
ENDBRANCH  17  20
ENDBRANCH  11  14
BRANCH   1  27
ATOM     26  N   UNL     1       0.412  -4.143  -0.055  0.00  0.00    -0.281 N 
ATOM     27  C   UNL     1       0.276  -4.819   1.103  0.00  0.00    +0.253 C 
ATOM     28  O   UNL     1       0.092  -4.215   2.142  0.00  0.00    -0.270 OA
ATOM     29  H   UNL     1       0.505  -4.627  -0.891  0.00  0.00    +0.155 HD
BRANCH  26  34
ATOM     30  C   UNL     1       0.432   1.529  -0.043  0.00  0.00    +0.044 C 
ATOM     31  C   UNL     1       0.427   0.022  -0.046  0.00  0.00    -0.050 A 
ATOM     32  C   UNL     1       1.219  -0.669  -0.944  0.00  0.00    +0.005 A 
ATOM     33  C   UNL     1       1.217  -2.050  -0.950  0.00  0.00    +0.023 A 
ATOM     34  C   UNL     1       0.417  -2.745  -0.052  0.00  0.00    +0.034 A 
ATOM     35  C   UNL     1      -0.378  -2.048   0.849  0.00  0.00    +0.023 A 
ATOM     36  C   UNL     1      -0.366  -0.667   0.853  0.00  0.00    +0.005 A 
ENDBRANCH  26  34
ENDBRANCH   1  27
TORSDOF 5
