REMARK  Name = ZINC35292369
REMARK  9 active torsions:
REMARK  status: ('A' for Active; 'I' for Inactive)
REMARK    1  A    between atoms: C_1  and  C_2
REMARK    2  A    between atoms: C_2  and  O_3
REMARK    3  A    between atoms: O_3  and  C_4
REMARK    4  A    between atoms: C_4  and  C_6
REMARK    5  A    between atoms: C_7  and  C_35
REMARK    6  A    between atoms: N_8  and  C_22
REMARK    7  A    between atoms: C_12  and  C_14
REMARK    8  A    between atoms: C_22  and  C_23
REMARK    9  A    between atoms: N_25  and  C_26
REMARK                            x       y       z     vdW  Elec       q    Type
REMARK                         _______ _______ _______ _____ _____    ______ ____
ROOT
ATOM      1  C   UNL     1      -2.174  -3.285   0.622  0.00  0.00    +0.061 C 
ATOM      2  C   UNL     1      -2.826  -4.406   0.274  0.00  0.00    +0.021 C 
ATOM      3  N   UNL     1      -4.092  -4.359  -0.246  0.00  0.00    -0.266 N 
ATOM      4  C   UNL     1      -4.616  -3.202  -0.689  0.00  0.00    +0.221 C 
ATOM      5  O   UNL     1      -5.769  -3.165  -1.063  0.00  0.00    -0.275 OA
ATOM      6  C   UNL     1      -3.775  -1.952  -0.722  0.00  0.00    +0.109 C 
ATOM      7  C   UNL     1      -2.840  -1.939   0.493  0.00  0.00    +0.066 C 
ATOM      8  C   UNL     1      -2.153  -5.742   0.460  0.00  0.00    +0.061 C 
ENDROOT
BRANCH   7   9
ATOM      9  C   UNL     1      -3.633  -1.650   1.741  0.00  0.00    -0.038 A 
ATOM     10  C   UNL     1      -4.558  -2.569   2.201  0.00  0.00    +0.006 A 
ATOM     11  C   UNL     1      -5.286  -2.304   3.345  0.00  0.00    +0.022 A 
ATOM     12  C   UNL     1      -5.091  -1.119   4.031  0.00  0.00    +0.059 A 
ATOM     13  C   UNL     1      -4.165  -0.199   3.570  0.00  0.00    +0.060 A 
ATOM     14  C   UNL     1      -3.433  -0.468   2.428  0.00  0.00    +0.025 A 
ATOM     15 CL   UNL     1      -3.918   1.290   4.430  0.00  0.00    -0.082 Cl
ATOM     16 CL   UNL     1      -6.006  -0.786   5.468  0.00  0.00    -0.082 Cl
ENDBRANCH   7   9
BRANCH   1  17
ATOM     17  C   UNL     1      -0.851  -3.368   1.119  0.00  0.00    +0.337 C 
ATOM     18  O   UNL     1       0.090  -3.115   0.391  0.00  0.00    -0.245 OA
BRANCH  17  19
ATOM     19  O   UNL     1      -0.634  -3.728   2.402  0.00  0.00    -0.462 OA
BRANCH  19  21
ATOM     20  C   UNL     1       0.772  -4.213   4.306  0.00  0.00    +0.048 C 
ATOM     21  C   UNL     1       0.726  -3.791   2.837  0.00  0.00    +0.229 C 
ENDBRANCH  19  21
ENDBRANCH  17  19
ENDBRANCH   1  17
BRANCH   3  22
ATOM     22  C   UNL     1      -4.887  -5.587  -0.323  0.00  0.00    +0.209 C 
BRANCH  22  23
ATOM     23  C   UNL     1      -4.735  -6.199  -1.691  0.00  0.00    +0.231 C 
ATOM     24  O   UNL     1      -3.987  -5.695  -2.502  0.00  0.00    -0.274 OA
ATOM     25  N   UNL     1      -5.431  -7.308  -2.015  0.00  0.00    -0.303 N 
ATOM     26  H   UNL     1      -6.029  -7.711  -1.366  0.00  0.00    +0.149 HD
BRANCH  25  27
ATOM     27  C   UNL     1      -5.283  -7.903  -3.345  0.00  0.00    +0.159 C 
ATOM     28  C   UNL     1      -6.418  -8.900  -3.591  0.00  0.00    +0.032 C 
ATOM     29  C   UNL     1      -6.798  -9.611  -2.305  0.00  0.00    +0.004 C 
ATOM     30  C   UNL     1      -5.713 -10.527  -1.768  0.00  0.00    +0.019 C 
ATOM     31  C   UNL     1      -4.498  -9.720  -1.307  0.00  0.00    +0.104 C 
ATOM     32  N   UNL     1      -3.614  -9.497  -2.463  0.00  0.00    -0.314 N 
ATOM     33  C   UNL     1      -3.964  -8.641  -3.429  0.00  0.00    +0.233 C 
ATOM     34  O   UNL     1      -3.228  -8.459  -4.375  0.00  0.00    -0.274 OA
ATOM     35  H   UNL     1      -2.771  -9.972  -2.524  0.00  0.00    +0.149 HD
ENDBRANCH  25  27
ENDBRANCH  22  23
ENDBRANCH   3  22
TORSDOF 7
