REMARK  Name = ZINC25682137
REMARK  8 active torsions:
REMARK  status: ('A' for Active; 'I' for Inactive)
REMARK    1  A    between atoms: C_1  and  C_2
REMARK    2  A    between atoms: C_4  and  C_13
REMARK    3  A    between atoms: C_6  and  C_12
REMARK    4  A    between atoms: N_8  and  C_11
REMARK    5  A    between atoms: C_18  and  C_21
REMARK    6  A    between atoms: C_21  and  C_22
REMARK    7  A    between atoms: N_28  and  C_29
REMARK    8  A    between atoms: C_29  and  C_30
REMARK                            x       y       z     vdW  Elec       q    Type
REMARK                         _______ _______ _______ _____ _____    ______ ____
ROOT
ATOM      1  C   UNL     1       0.192   1.946   4.847  0.00  0.00    +0.250 C 
ATOM      2  O   UNL     1      -0.304   2.535   5.787  0.00  0.00    -0.270 OA
ATOM      3  N   UNL     1       1.436   1.439   4.950  0.00  0.00    -0.261 N 
ATOM      4  C   UNL     1       2.151   1.590   6.131  0.00  0.00    +0.165 A 
ATOM      5  N   UNL     1       3.365   1.165   6.425  0.00  0.00    -0.229 NA
ATOM      6  C   UNL     1       3.904   1.399   7.605  0.00  0.00    +0.058 A 
ATOM      7  C   UNL     1       3.176   2.080   8.524  0.00  0.00    +0.072 A 
ATOM      8  S   UNL     1       1.674   2.379   7.602  0.00  0.00    -0.060 S 
ATOM      9  H   UNL     1       1.886   0.906   4.099  0.00  0.00    +0.157 HD
ENDROOT
BRANCH   1  13
ATOM     10  C   UNL     1      -0.075   0.520   0.066  0.00  0.00    +0.065 C 
ATOM     11  C   UNL     1      -0.723   1.108   1.293  0.00  0.00    +0.041 A 
ATOM     12  C   UNL     1       0.025   1.242   2.453  0.00  0.00    +0.037 A 
ATOM     13  C   UNL     1      -0.569   1.786   3.590  0.00  0.00    +0.051 A 
ATOM     14  C   UNL     1      -1.924   2.179   3.502  0.00  0.00    +0.054 A 
ATOM     15  C   UNL     1      -2.838   2.750   4.412  0.00  0.00    +0.070 A 
ATOM     16  N   UNL     1      -3.979   2.913   3.807  0.00  0.00    -0.174 NA
ATOM     17  N   UNL     1      -3.882   2.465   2.484  0.00  0.00    -0.249 N 
ATOM     18  C   UNL     1      -2.606   2.005   2.281  0.00  0.00    +0.159 A 
ATOM     19  N   UNL     1      -1.980   1.486   1.235  0.00  0.00    -0.233 NA
ATOM     20  C   UNL     1      -4.957   2.484   1.489  0.00  0.00    +0.174 C 
ATOM     21  C   UNL     1      -2.543   3.111   5.845  0.00  0.00    +0.068 C 
ENDBRANCH   1  13
BRANCH   6  22
ATOM     22  C   UNL     1       5.293   0.914   7.929  0.00  0.00    +0.132 C 
BRANCH  22  23
ATOM     23  C   UNL     1       5.377  -0.571   7.684  0.00  0.00    +0.138 A 
ATOM     24  N   UNL     1       5.130  -1.493   8.558  0.00  0.00    -0.158 NA
ATOM     25  N   UNL     1       5.316  -2.739   7.943  0.00  0.00    -0.254 N 
ATOM     26  H   UNL     1       5.150  -3.664   8.513  0.00  0.00    +0.191 HD
ATOM     27  C   UNL     1       5.693  -2.504   6.668  0.00  0.00    +0.176 A 
ATOM     28  S   UNL     1       6.053  -3.686   5.484  0.00  0.00    -0.011 S 
ATOM     29  N   UNL     1       5.733  -1.167   6.500  0.00  0.00    -0.303 N 
BRANCH  29  30
ATOM     30  C   UNL     1       6.095  -0.469   5.263  0.00  0.00    +0.152 C 
BRANCH  30  31
ATOM     31  C   UNL     1       7.581  -0.219   5.244  0.00  0.00    -0.013 C 
ATOM     32  C   UNL     1       8.302  -0.637   4.233  0.00  0.00    +0.005 C 
ENDBRANCH  30  31
ENDBRANCH  29  30
ENDBRANCH  22  23
ENDBRANCH   6  22
TORSDOF 5
