REMARK  Name = ZINC40795759
REMARK  6 active torsions:
REMARK  status: ('A' for Active; 'I' for Inactive)
REMARK    1  A    between atoms: C_1  and  C_2
REMARK    2  A    between atoms: C_6  and  N_9
REMARK    3  A    between atoms: C_7  and  C_8
REMARK    4  A    between atoms: C_10  and  C_12
REMARK    5  A    between atoms: C_12  and  C_24
REMARK    6  A    between atoms: N_15  and  C_23
REMARK                            x       y       z     vdW  Elec       q    Type
REMARK                         _______ _______ _______ _____ _____    ______ ____
ROOT
ATOM      1  C   UNL     1      -0.129  -4.898   3.686  0.00  0.00    +0.170 C 
ATOM      2  C   UNL     1       0.183  -6.354   3.450  0.00  0.00    +0.245 C 
ATOM      3  O   UNL     1      -0.742  -7.128   3.324  0.00  0.00    -0.273 OA
ATOM      4  N   UNL     1       1.421  -6.829   3.372  0.00  0.00    -0.272 N 
ATOM      5  C   UNL     1       2.598  -6.123   3.603  0.00  0.00    +0.049 A 
ATOM      6  C   UNL     1       3.805  -6.650   3.154  0.00  0.00    +0.024 A 
ATOM      7  C   UNL     1       4.985  -5.964   3.362  0.00  0.00    +0.002 A 
ATOM      8  C   UNL     1       4.982  -4.747   4.019  0.00  0.00    +0.001 A 
ATOM      9  C   UNL     1       3.791  -4.213   4.475  0.00  0.00    +0.016 A 
ATOM     10  C   UNL     1       2.605  -4.900   4.272  0.00  0.00    +0.031 A 
ATOM     11  S   UNL     1       1.082  -4.235   4.870  0.00  0.00    -0.098 S 
ATOM     12  C   UNL     1       1.562  -8.241   3.005  0.00  0.00    +0.138 C 
ATOM     13  C   UNL     1      -1.540  -4.756   4.258  0.00  0.00    +0.043 C 
ENDROOT
BRANCH   1  15
ATOM     14  N   UNL     1       0.052  -2.797   2.393  0.00  0.00    -0.284 N 
ATOM     15  C   UNL     1      -0.031  -4.143   2.385  0.00  0.00    +0.242 C 
ATOM     16  O   UNL     1      -0.028  -4.745   1.333  0.00  0.00    -0.273 OA
ATOM     17  H   UNL     1       0.130  -2.321   3.234  0.00  0.00    +0.155 HD
BRANCH  14  23
ATOM     18  C   UNL     1       1.207   1.236  -0.172  0.00  0.00    +0.044 C 
ATOM     19  C   UNL     1       0.578  -0.131  -0.084  0.00  0.00    -0.046 A 
ATOM     20  C   UNL     1      -0.026  -0.686  -1.198  0.00  0.00    +0.004 A 
ATOM     21  C   UNL     1      -0.604  -1.940  -1.122  0.00  0.00    +0.002 A 
ATOM     22  C   UNL     1      -0.580  -2.642   0.067  0.00  0.00    +0.023 A 
ATOM     23  C   UNL     1       0.026  -2.088   1.187  0.00  0.00    +0.037 A 
ATOM     24  C   UNL     1       0.610  -0.831   1.106  0.00  0.00    -0.026 A 
ATOM     25  C   UNL     1       1.274  -0.228   2.317  0.00  0.00    +0.046 C 
ENDBRANCH  14  23
ENDBRANCH   1  15
TORSDOF 2
