REMARK  Name = ZINC15619333
REMARK  7 active torsions:
REMARK  status: ('A' for Active; 'I' for Inactive)
REMARK    1  A    between atoms: C_1  and  C_2
REMARK    2  A    between atoms: C_7  and  N_8
REMARK    3  A    between atoms: C_9  and  C_11
REMARK    4  A    between atoms: C_11  and  N_12
REMARK    5  A    between atoms: C_13  and  C_15
REMARK    6  A    between atoms: C_15  and  N_16
REMARK    7  A    between atoms: C_24  and  C_26
REMARK                            x       y       z     vdW  Elec       q    Type
REMARK                         _______ _______ _______ _____ _____    ______ ____
ROOT
ATOM      1  N   UNL     1      -3.408   0.332   6.847  0.00  0.00    -0.305 N 
ATOM      2  C   UNL     1      -2.968   0.373   5.574  0.00  0.00    +0.231 C 
ATOM      3  O   UNL     1      -1.778   0.412   5.344  0.00  0.00    -0.274 OA
ATOM      4  H   UNL     1      -4.360   0.300   7.030  0.00  0.00    +0.149 HD
ENDROOT
BRANCH   1   5
ATOM      5  C   UNL     1      -2.448   0.334   7.954  0.00  0.00    +0.200 C 
BRANCH   5   7
ATOM      6  N   UNL     1      -2.510   0.276  10.426  0.00  0.00    -0.284 N 
ATOM      7  C   UNL     1      -3.192   0.283   9.263  0.00  0.00    +0.234 C 
ATOM      8  O   UNL     1      -4.404   0.248   9.271  0.00  0.00    -0.274 OA
ATOM      9  H   UNL     1      -1.541   0.223  10.419  0.00  0.00    +0.155 HD
BRANCH   6  16
ATOM     10  C   UNL     1      -1.257  -0.799  12.743  0.00  0.00    +0.046 C 
ATOM     11  C   UNL     1      -2.624  -0.168  12.797  0.00  0.00    -0.028 A 
ATOM     12  C   UNL     1      -3.304  -0.093  13.997  0.00  0.00    +0.020 A 
ATOM     13  C   UNL     1      -4.561   0.482  14.047  0.00  0.00    +0.018 A 
ATOM     14  C   UNL     1      -5.139   0.988  12.896  0.00  0.00    +0.017 A 
ATOM     15  C   UNL     1      -4.462   0.921  11.694  0.00  0.00    +0.024 A 
ATOM     16  C   UNL     1      -3.199   0.345  11.642  0.00  0.00    +0.036 A 
ATOM     17 BR   UNL     1      -5.492   0.576  15.690  0.00  0.00    -0.050 Br
ENDBRANCH   6  16
ENDBRANCH   5   7
ENDBRANCH   1   5
BRANCH   2  18
ATOM     18  C   UNL     1      -3.956   0.371   4.435  0.00  0.00    +0.213 C 
BRANCH  18  19
ATOM     19  N   UNL     1      -3.233   0.421   3.162  0.00  0.00    -0.215 N 
ATOM     20  C   UNL     1      -2.890   1.562   2.528  0.00  0.00    +0.247 C 
ATOM     21  O   UNL     1      -3.114   2.697   2.889  0.00  0.00    -0.273 OA
ATOM     22  C   UNL     1      -2.170   1.126   1.273  0.00  0.00    +0.115 C 
ATOM     23  C   UNL     1      -2.916   1.610   0.035  0.00  0.00    +0.035 C 
ATOM     24  C   UNL     1      -2.188   1.127  -1.222  0.00  0.00    +0.003 C 
ATOM     25  C   UNL     1      -0.758   1.672  -1.223  0.00  0.00    +0.000 C 
ATOM     26  C   UNL     1      -0.015   1.161   0.013  0.00  0.00    +0.006 C 
ATOM     27  C   UNL     1      -0.735   1.644   1.276  0.00  0.00    +0.018 C 
ATOM     28  C   UNL     1      -0.005   1.117   2.512  0.00  0.00    +0.010 C 
ATOM     29  N   UNL     1      -2.186  -0.341   1.343  0.00  0.00    -0.285 N 
ATOM     30  C   UNL     1      -2.829  -0.660   2.483  0.00  0.00    +0.310 C 
ATOM     31  O   UNL     1      -3.022  -1.802   2.853  0.00  0.00    -0.252 OA
ATOM     32  H   UNL     1      -1.808  -0.958   0.697  0.00  0.00    +0.151 HD
ENDBRANCH  18  19
ENDBRANCH   2  18
TORSDOF 5
