REMARK  Name = ZINC59913294
REMARK  12 active torsions:
REMARK  status: ('A' for Active; 'I' for Inactive)
REMARK    1  A    between atoms: C_1  and  C_2
REMARK    2  A    between atoms: C_5  and  N_8
REMARK    3  A    between atoms: N_8  and  S_9
REMARK    4  A    between atoms: S_9  and  C_12
REMARK    5  A    between atoms: C_15  and  N_18
REMARK    6  A    between atoms: C_19  and  C_21
REMARK    7  A    between atoms: C_21  and  S_22
REMARK    8  A    between atoms: S_22  and  C_23
REMARK    9  A    between atoms: C_26  and  C_29
REMARK   10  A    between atoms: N_27  and  N_28
REMARK   11  A    between atoms: C_29  and  C_30
REMARK   12  A    between atoms: C_29  and  C_31
REMARK                            x       y       z     vdW  Elec       q    Type
REMARK                         _______ _______ _______ _____ _____    ______ ____
ROOT
ATOM      1  C   UNL     1       0.449  -4.542   2.683  0.00  0.00    +0.109 A 
ATOM      2  C   UNL     1       0.927  -3.447   3.381  0.00  0.00    +0.030 A 
ATOM      3  C   UNL     1       0.435  -3.162   4.640  0.00  0.00    +0.025 A 
ATOM      4  C   UNL     1      -0.539  -3.975   5.204  0.00  0.00    +0.034 A 
ATOM      5  C   UNL     1      -1.017  -5.072   4.500  0.00  0.00    +0.025 A 
ATOM      6  C   UNL     1      -0.525  -5.350   3.240  0.00  0.00    +0.030 A 
ENDROOT
BRANCH   4   7
ATOM      7  N   UNL     1      -1.038  -3.688   6.480  0.00  0.00    -0.285 N 
ATOM      8  C   UNL     1      -1.146  -2.409   6.890  0.00  0.00    +0.227 C 
ATOM      9  O   UNL     1      -0.900  -1.503   6.122  0.00  0.00    -0.275 OA
ATOM     10  H   UNL     1      -1.307  -4.411   7.069  0.00  0.00    +0.155 HD
BRANCH   8  11
ATOM     11  C   UNL     1      -1.573  -2.104   8.303  0.00  0.00    +0.173 C 
BRANCH  11  12
ATOM     12  S   UNL     1      -1.622  -0.307   8.544  0.00  0.00    -0.075 S 
BRANCH  12  13
ATOM     13  C   UNL     1      -2.131  -0.116  10.221  0.00  0.00    +0.209 A 
ATOM     14  N   UNL     1      -2.397  -1.081  11.070  0.00  0.00    -0.121 NA
ATOM     15  N   UNL     1      -2.738  -0.583  12.205  0.00  0.00    -0.132 NA
ATOM     16  C   UNL     1      -2.710   0.719  12.148  0.00  0.00    +0.154 A 
ATOM     17  N   UNL     1      -2.317   1.063  10.884  0.00  0.00    -0.228 N 
BRANCH  17  18
ATOM     18  N   UNL     1      -2.148   2.324  10.387  0.00  0.00    -0.295 N 
ATOM     19  H   UNL     1      -3.005   2.670   9.981  0.00  0.00    +0.163 HD
ATOM     20  H   UNL     1      -1.807   2.951  11.100  0.00  0.00    +0.163 HD
ENDBRANCH  17  18
BRANCH  16  21
ATOM     21  C   UNL     1      -3.044   1.669  13.268  0.00  0.00    +0.052 C 
ATOM     22  C   UNL     1      -4.488   1.440  13.719  0.00  0.00    +0.015 C 
ATOM     23  C   UNL     1      -2.098   1.422  14.445  0.00  0.00    +0.015 C 
ENDBRANCH  16  21
ENDBRANCH  12  13
ENDBRANCH  11  12
ENDBRANCH   8  11
ENDBRANCH   4   7
BRANCH   1  24
ATOM     24  S   UNL     1       1.079  -4.902   1.077  0.00  0.00    +0.072 S 
ATOM     25  O   UNL     1       0.746  -6.257   0.806  0.00  0.00    -0.150 OA
ATOM     26  O   UNL     1       2.417  -4.426   1.049  0.00  0.00    -0.150 OA
BRANCH  24  27
ATOM     27  N   UNL     1       0.225  -3.980  -0.002  0.00  0.00    -0.216 N 
ATOM     28  H   UNL     1       0.684  -3.320  -0.545  0.00  0.00    +0.174 HD
BRANCH  27  33
ATOM     29  C   UNL     1      -5.378  -4.680  -0.521  0.00  0.00    +0.044 C 
ATOM     30  C   UNL     1      -3.889  -4.494  -0.383  0.00  0.00    -0.050 A 
ATOM     31  C   UNL     1      -3.359  -3.220  -0.286  0.00  0.00    +0.005 A 
ATOM     32  C   UNL     1      -1.995  -3.046  -0.160  0.00  0.00    +0.025 A 
ATOM     33  C   UNL     1      -1.155  -4.152  -0.129  0.00  0.00    +0.048 A 
ATOM     34  C   UNL     1      -1.691  -5.430  -0.227  0.00  0.00    +0.025 A 
ATOM     35  C   UNL     1      -3.056  -5.598  -0.348  0.00  0.00    +0.005 A 
ENDBRANCH  27  33
ENDBRANCH  24  27
ENDBRANCH   1  24
TORSDOF 9
