REMARK  Name = ZINC09836162
REMARK  6 active torsions:
REMARK  status: ('A' for Active; 'I' for Inactive)
REMARK    1  A    between atoms: C_1  and  C_2
REMARK    2  A    between atoms: C_7  and  N_12
REMARK    3  A    between atoms: C_9  and  C_11
REMARK    4  A    between atoms: C_13  and  C_15
REMARK    5  A    between atoms: C_15  and  O_33
REMARK    6  A    between atoms: N_25  and  C_26
REMARK                            x       y       z     vdW  Elec       q    Type
REMARK                         _______ _______ _______ _____ _____    ______ ____
ROOT
ATOM      1  C   UNL     1      -1.240  -0.865  -0.414  0.00  0.00    +0.247 C 
ATOM      2  C   UNL     1       0.038  -0.057  -0.392  0.00  0.00    +0.033 A 
ATOM      3  C   UNL     1       0.053   1.268  -0.762  0.00  0.00    +0.010 A 
ATOM      4  C   UNL     1       1.242   1.976  -0.728  0.00  0.00    +0.001 A 
ATOM      5  C   UNL     1       2.409   1.352  -0.325  0.00  0.00    +0.002 A 
ATOM      6  C   UNL     1       2.396   0.022   0.048  0.00  0.00    +0.024 A 
ATOM      7  C   UNL     1       1.206  -0.692   0.016  0.00  0.00    +0.043 A 
ATOM      8  N   UNL     1       1.172  -2.036   0.389  0.00  0.00    -0.269 N 
ATOM      9  C   UNL     1       0.050  -2.768   0.376  0.00  0.00    +0.314 C 
ATOM     10  O   UNL     1       0.115  -3.933   0.717  0.00  0.00    -0.252 OA
ATOM     11  N   UNL     1      -1.144  -2.274   0.002  0.00  0.00    -0.214 N 
ATOM     12  H   UNL     1       1.998  -2.460   0.670  0.00  0.00    +0.156 HD
ENDROOT
BRANCH  11  13
ATOM     13  C   UNL     1      -2.282  -3.090   0.009  0.00  0.00    +0.041 A 
ATOM     14  C   UNL     1      -3.129  -3.092   1.109  0.00  0.00    +0.025 A 
ATOM     15  C   UNL     1      -4.254  -3.893   1.111  0.00  0.00    +0.022 A 
ATOM     16  C   UNL     1      -4.531  -4.702   0.023  0.00  0.00    +0.041 A 
ATOM     17  C   UNL     1      -3.685  -4.706  -1.072  0.00  0.00    +0.022 A 
ATOM     18  C   UNL     1      -2.562  -3.902  -1.081  0.00  0.00    +0.025 A 
ATOM     19 CL   UNL     1      -5.942  -5.713   0.032  0.00  0.00    -0.084 Cl
ENDBRANCH  11  13
BRANCH   1  21
ATOM     20  N   UNL     1      -1.096  -1.404  -2.824  0.00  0.00    -0.308 N 
ATOM     21  C   UNL     1      -1.786  -0.831  -1.819  0.00  0.00    +0.269 C 
ATOM     22  O   UNL     1      -2.847  -0.287  -2.043  0.00  0.00    -0.270 OA
ATOM     23  H   UNL     1      -0.248  -1.839  -2.644  0.00  0.00    +0.149 HD
BRANCH  20  29
ATOM     24  C   UNL     1      -1.042  -3.685  -7.210  0.00  0.00    +0.008 C 
ATOM     25  C   UNL     1      -1.612  -2.511  -6.412  0.00  0.00    -0.009 C 
ATOM     26  C   UNL     1      -1.212  -1.196  -7.084  0.00  0.00    +0.003 C 
ATOM     27  C   UNL     1      -1.782  -0.021  -6.286  0.00  0.00    +0.002 C 
ATOM     28  C   UNL     1      -1.227  -0.056  -4.861  0.00  0.00    +0.022 C 
ATOM     29  C   UNL     1      -1.628  -1.371  -4.189  0.00  0.00    +0.076 C 
ATOM     30  C   UNL     1      -1.057  -2.545  -4.987  0.00  0.00    +0.009 C 
ATOM     31  C   UNL     1       0.468  -2.439  -5.031  0.00  0.00    +0.009 C 
ENDBRANCH  20  29
ENDBRANCH   1  21
BRANCH   1  32
ATOM     32  O   UNL     1      -2.186  -0.217   0.438  0.00  0.00    -0.360 OA
ATOM     33  H   UNL     1      -2.400   0.688   0.172  0.00  0.00    +0.213 HD
ENDBRANCH   1  32
TORSDOF 4
