REMARK  Name = ZINC50376768
REMARK  6 active torsions:
REMARK  status: ('A' for Active; 'I' for Inactive)
REMARK    1  A    between atoms: C_1  and  O_2
REMARK    2  A    between atoms: O_2  and  C_3
REMARK    3  A    between atoms: C_8  and  N_10
REMARK    4  A    between atoms: C_11  and  C_13
REMARK    5  A    between atoms: C_13  and  C_19
REMARK    6  A    between atoms: N_20  and  O_21
REMARK                            x       y       z     vdW  Elec       q    Type
REMARK                         _______ _______ _______ _____ _____    ______ ____
ROOT
ATOM      1  C   UNL     1      -2.970  -2.696  -4.006  0.00  0.00    +0.105 C 
ATOM      2  C   UNL     1      -4.380  -2.972  -3.481  0.00  0.00    +0.024 C 
ATOM      3  C   UNL     1      -4.435  -4.378  -2.881  0.00  0.00    +0.001 C 
ATOM      4  C   UNL     1      -4.082  -5.406  -3.959  0.00  0.00    +0.000 C 
ATOM      5  C   UNL     1      -2.672  -5.130  -4.485  0.00  0.00    +0.001 C 
ATOM      6  C   UNL     1      -2.617  -3.723  -5.084  0.00  0.00    +0.024 C 
ENDROOT
BRANCH   1   7
ATOM      7  C   UNL     1      -2.916  -1.310  -4.597  0.00  0.00    +0.147 C 
ATOM      8  N   UNL     1      -2.702  -1.155  -5.861  0.00  0.00    -0.076 NA
ATOM      9  N   UNL     1      -3.096  -0.210  -3.788  0.00  0.00    -0.343 N 
ATOM     10  H   UNL     1      -3.330  -0.327  -2.854  0.00  0.00    +0.144 HD
ATOM     11  H   UNL     1      -2.987   0.683  -4.153  0.00  0.00    +0.144 HD
BRANCH   8  12
ATOM     12  O   UNL     1      -2.651   0.147  -6.416  0.00  0.00    -0.408 OA
ATOM     13  H   UNL     1      -2.486   0.163  -7.368  0.00  0.00    +0.328 HD
ENDBRANCH   8  12
ENDBRANCH   1   7
BRANCH   1  15
ATOM     14  N   UNL     1      -0.660  -2.734  -3.123  0.00  0.00    -0.309 N 
ATOM     15  C   UNL     1      -1.982  -2.797  -2.873  0.00  0.00    +0.227 C 
ATOM     16  O   UNL     1      -2.378  -2.936  -1.735  0.00  0.00    -0.275 OA
ATOM     17  H   UNL     1      -0.341  -2.696  -4.039  0.00  0.00    +0.149 HD
BRANCH  14  22
ATOM     18  C   UNL     1       1.658  -3.263  -2.485  0.00  0.00    +0.138 C 
ATOM     19  C   UNL     1       2.680  -2.125  -2.282  0.00  0.00    +0.033 C 
ATOM     20  C   UNL     1       1.821  -0.837  -2.292  0.00  0.00    +0.004 C 
ATOM     21  C   UNL     1       0.540  -1.274  -1.539  0.00  0.00    +0.025 C 
ATOM     22  C   UNL     1       0.297  -2.722  -2.014  0.00  0.00    +0.102 C 
BRANCH  18  24
ATOM     23  C   UNL     1       2.849  -5.342  -2.401  0.00  0.00    +0.194 C 
ATOM     24  O   UNL     1       2.030  -4.401  -1.704  0.00  0.00    -0.378 OA
ENDBRANCH  18  24
ENDBRANCH  14  22
ENDBRANCH   1  15
TORSDOF 5
