REMARK  Name = ZINC64789084
REMARK  10 active torsions:
REMARK  status: ('A' for Active; 'I' for Inactive)
REMARK    1  A    between atoms: C_1  and  C_2
REMARK    2  A    between atoms: C_2  and  N_3
REMARK    3  A    between atoms: N_3  and  C_4
REMARK    4  A    between atoms: N_3  and  C_6
REMARK    5  A    between atoms: C_4  and  C_5
REMARK    6  A    between atoms: C_9  and  C_12
REMARK    7  A    between atoms: C_18  and  C_20
REMARK    8  A    between atoms: N_26  and  C_29
REMARK    9  A    between atoms: C_31  and  C_36
REMARK   10  A    between atoms: C_33  and  C_35
REMARK                            x       y       z     vdW  Elec       q    Type
REMARK                         _______ _______ _______ _____ _____    ______ ____
ROOT
ATOM      1  C   UNL     1       2.376  -4.875   0.438  0.00  0.00    +0.132 C 
ATOM      2  C   UNL     1       2.654  -5.589  -0.898  0.00  0.00    +0.082 C 
ATOM      3  C   UNL     1       4.054  -6.138  -0.745  0.00  0.00    +0.041 C 
ATOM      4  N   UNL     1       4.518  -5.805   0.469  0.00  0.00    -0.264 N 
ATOM      5  N   UNL     1       3.603  -5.069   1.223  0.00  0.00    -0.215 N 
ATOM      6  C   UNL     1       3.809  -4.609   2.473  0.00  0.00    +0.229 C 
ATOM      7  O   UNL     1       2.941  -3.977   3.037  0.00  0.00    -0.274 OA
ATOM      8  C   UNL     1       5.118  -4.879   3.168  0.00  0.00    +0.111 C 
ATOM      9  C   UNL     1       4.743  -6.864  -1.698  0.00  0.00    +0.118 C 
ATOM     10  C   UNL     1       4.145  -7.174  -3.009  0.00  0.00    +0.258 C 
ATOM     11  N   UNL     1       4.875  -7.887  -3.891  0.00  0.00    -0.235 N 
ATOM     12  C   UNL     1       6.113  -8.309  -3.595  0.00  0.00    +0.320 C 
ATOM     13  O   UNL     1       6.719  -8.948  -4.434  0.00  0.00    -0.251 OA
ATOM     14  N   UNL     1       6.719  -8.063  -2.425  0.00  0.00    -0.190 N 
ATOM     15  C   UNL     1       6.110  -7.356  -1.451  0.00  0.00    +0.265 C 
ATOM     16  O   UNL     1       6.672  -7.135  -0.395  0.00  0.00    -0.269 OA
ATOM     17  O   UNL     1       3.022  -6.798  -3.288  0.00  0.00    -0.270 OA
ATOM     18  H   UNL     1       4.497  -8.100  -4.758  0.00  0.00    +0.159 HD
ATOM     19  H   UNL     1       5.400  -6.051   0.790  0.00  0.00    +0.170 HD
ENDROOT
BRANCH  14  20
ATOM     20  C   UNL     1       8.016  -8.548  -2.211  0.00  0.00    +0.046 A 
ATOM     21  C   UNL     1       8.210  -9.737  -1.521  0.00  0.00    +0.027 A 
ATOM     22  C   UNL     1       9.490 -10.211  -1.311  0.00  0.00    -0.048 A 
ATOM     23  C   UNL     1      10.578  -9.503  -1.787  0.00  0.00    +0.006 A 
ATOM     24  C   UNL     1      10.388  -8.318  -2.474  0.00  0.00    -0.048 A 
ATOM     25  C   UNL     1       9.110  -7.842  -2.693  0.00  0.00    +0.027 A 
ATOM     26  C   UNL     1      11.577  -7.549  -2.991  0.00  0.00    +0.044 C 
ATOM     27  C   UNL     1       9.701 -11.502  -0.562  0.00  0.00    +0.044 C 
ENDBRANCH  14  20
BRANCH   1  31
ATOM     28  C   UNL     1       1.666  -0.713  -0.213  0.00  0.00    +0.013 A 
ATOM     29  C   UNL     1       0.604  -1.570   0.007  0.00  0.00    +0.022 A 
ATOM     30  C   UNL     1       0.833  -2.916   0.217  0.00  0.00    +0.007 A 
ATOM     31  C   UNL     1       2.126  -3.407   0.207  0.00  0.00    -0.025 A 
ATOM     32  C   UNL     1       3.188  -2.551  -0.013  0.00  0.00    +0.007 A 
ATOM     33  C   UNL     1       2.958  -1.205  -0.227  0.00  0.00    +0.022 A 
BRANCH  28  34
ATOM     34  N   UNL     1       1.434   0.649  -0.425  0.00  0.00    -0.394 NA
ATOM     35  H   UNL     1       2.314   1.121  -0.572  0.00  0.00    +0.126 HD
BRANCH  34  37
ATOM     36  C   UNL     1       1.318   0.302  -2.847  0.00  0.00    +0.022 C 
ATOM     37  C   UNL     1       0.583   0.821  -1.610  0.00  0.00    +0.081 C 
ENDBRANCH  34  37
BRANCH  34  38
ATOM     38  C   UNL     1       0.761   1.220   0.749  0.00  0.00    +0.081 C 
ATOM     39  C   UNL     1       1.690   1.133   1.962  0.00  0.00    +0.022 C 
ENDBRANCH  34  38
ENDBRANCH  28  34
ENDBRANCH   1  31
TORSDOF 5
