REMARK  Name = ZINC38598438
REMARK  6 active torsions:
REMARK  status: ('A' for Active; 'I' for Inactive)
REMARK    1  A    between atoms: C_1  and  C_2
REMARK    2  A    between atoms: C_4  and  C_25
REMARK    3  A    between atoms: C_30  and  O_31
REMARK    4  A    between atoms: O_31  and  C_32
REMARK    5  A    between atoms: C_32  and  C_33
REMARK    6  A    between atoms: C_32  and  C_34
REMARK                            x       y       z     vdW  Elec       q    Type
REMARK                         _______ _______ _______ _____ _____    ______ ____
ROOT
ATOM      1  C   UNL     1      -0.372   1.966  -0.017  0.00  0.00    +0.062 C 
ATOM      2  C   UNL     1      -0.083   0.487  -0.011  0.00  0.00    +0.023 C 
ATOM      3  C   UNL     1      -1.002  -0.444   0.002  0.00  0.00    +0.005 C 
ATOM      4  C   UNL     1      -2.512  -0.264  -0.047  0.00  0.00    +0.111 C 
ATOM      5  S   UNL     1      -3.257  -1.712   0.773  0.00  0.00    -0.139 S 
ATOM      6  C   UNL     1      -3.130  -3.046  -0.436  0.00  0.00    +0.165 C 
ATOM      7  C   UNL     1      -1.957  -3.032  -1.309  0.00  0.00    +0.225 C 
ATOM      8  O   UNL     1      -2.127  -3.570  -2.383  0.00  0.00    -0.275 OA
ATOM      9  N   UNL     1      -0.752  -2.539  -1.135  0.00  0.00    -0.291 N 
ATOM     10  C   UNL     1      -0.313  -1.786   0.033  0.00  0.00    +0.210 C 
ATOM     11  N   UNL     1       1.118  -1.460  -0.058  0.00  0.00    -0.213 N 
ATOM     12  N   UNL     1       1.190  -0.059  -0.024  0.00  0.00    -0.265 N 
ATOM     13  C   UNL     1       2.147  -2.327  -0.158  0.00  0.00    +0.150 C 
ATOM     14  N   UNL     1       1.943  -3.631  -0.191  0.00  0.00    -0.221 NA
ATOM     15  C   UNL     1       2.920  -4.532  -0.224  0.00  0.00    +0.225 C 
ATOM     16  N   UNL     1       4.175  -4.233   0.091  0.00  0.00    -0.218 NA
ATOM     17  C   UNL     1       4.416  -2.958   0.378  0.00  0.00    +0.164 C 
ATOM     18  N   UNL     1       5.243  -2.345   1.170  0.00  0.00    -0.219 NA
ATOM     19  C   UNL     1       4.865  -1.077   1.382  0.00  0.00    +0.218 C 
ATOM     20  N   UNL     1       3.869  -0.706   0.627  0.00  0.00    -0.253 NA
ATOM     21  C   UNL     1       3.570  -1.844  -0.243  0.00  0.00    +0.239 C 
ATOM     22  H   UNL     1      -0.102  -2.688  -1.839  0.00  0.00    +0.151 HD
ATOM     23  H   UNL     1       2.013   0.454  -0.008  0.00  0.00    +0.170 HD
ENDROOT
BRANCH   4  24
ATOM     24  C   UNL     1      -2.901   0.997   0.682  0.00  0.00    +0.011 A 
ATOM     25  C   UNL     1      -3.080   2.174  -0.019  0.00  0.00    +0.008 A 
ATOM     26  C   UNL     1      -3.437   3.330   0.648  0.00  0.00    +0.001 A 
ATOM     27  C   UNL     1      -3.616   3.312   2.019  0.00  0.00    +0.004 A 
ATOM     28  C   UNL     1      -3.440   2.138   2.725  0.00  0.00    +0.046 A 
ATOM     29  C   UNL     1      -3.087   0.975   2.056  0.00  0.00    +0.125 A 
BRANCH  29  30
ATOM     30  O   UNL     1      -2.917  -0.183   2.748  0.00  0.00    -0.489 OA
BRANCH  30  31
ATOM     31  C   UNL     1      -3.002  -0.106   4.172  0.00  0.00    +0.167 C 
ATOM     32  C   UNL     1      -4.467  -0.200   4.603  0.00  0.00    +0.051 C 
ATOM     33  C   UNL     1      -2.213  -1.261   4.793  0.00  0.00    +0.051 C 
ENDBRANCH  30  31
ENDBRANCH  29  30
ENDBRANCH   4  24
TORSDOF 3
