REMARK  Name = ZINC17994171
REMARK  5 active torsions:
REMARK  status: ('A' for Active; 'I' for Inactive)
REMARK    1  A    between atoms: C_1  and  C_2
REMARK    2  A    between atoms: C_4  and  C_7
REMARK    3  A    between atoms: C_12  and  C_13
REMARK    4  A    between atoms: C_16  and  O_20
REMARK    5  A    between atoms: C_18  and  O_19
REMARK                            x       y       z     vdW  Elec       q    Type
REMARK                         _______ _______ _______ _____ _____    ______ ____
ROOT
ATOM      1  C   UNL     1      -1.981  -3.088   0.043  0.00  0.00    +0.046 A 
ATOM      2  C   UNL     1      -1.909  -4.443  -0.072  0.00  0.00    +0.115 A 
ATOM      3  N   UNL     1      -3.171  -4.924  -0.092  0.00  0.00    -0.283 N 
ATOM      4  H   UNL     1      -3.420  -5.859  -0.166  0.00  0.00    +0.188 HD
ATOM      5  N   UNL     1      -4.056  -3.846   0.014  0.00  0.00    -0.173 NA
ATOM      6  C   UNL     1      -3.353  -2.737   0.102  0.00  0.00    +0.105 A 
ENDROOT
BRANCH   1  10
ATOM      7  C   UNL     1       0.009   1.447   0.652  0.00  0.00    +0.073 C 
ATOM      8  C   UNL     1       0.019  -0.038   0.394  0.00  0.00    +0.076 A 
ATOM      9  N   UNL     1      -0.999  -0.858   0.342  0.00  0.00    -0.244 NA
ATOM     10  C   UNL     1      -0.832  -2.150   0.103  0.00  0.00    +0.082 A 
ATOM     11  C   UNL     1       0.455  -2.575  -0.085  0.00  0.00    +0.075 A 
ATOM     12  S   UNL     1       1.341  -1.035   0.096  0.00  0.00    -0.080 S 
ENDBRANCH   1  10
BRANCH   6  13
ATOM     13  C   UNL     1      -3.899  -1.365   0.234  0.00  0.00    +0.044 A 
ATOM     14  C   UNL     1      -3.496  -0.365  -0.648  0.00  0.00    +0.017 A 
ATOM     15  C   UNL     1      -4.005   0.910  -0.523  0.00  0.00    +0.046 A 
ATOM     16  C   UNL     1      -4.919   1.202   0.481  0.00  0.00    +0.120 A 
ATOM     17  C   UNL     1      -5.325   0.212   1.364  0.00  0.00    +0.091 A 
ATOM     18  C   UNL     1      -4.823  -1.072   1.242  0.00  0.00    +0.130 A 
BRANCH  18  19
ATOM     19  O   UNL     1      -5.223  -2.044   2.103  0.00  0.00    -0.506 OA
ATOM     20  H   UNL     1      -4.678  -2.115   2.898  0.00  0.00    +0.292 HD
ENDBRANCH  18  19
BRANCH  16  21
ATOM     21  O   UNL     1      -5.417   2.461   0.600  0.00  0.00    -0.507 OA
ATOM     22  H   UNL     1      -6.225   2.614   0.092  0.00  0.00    +0.292 HD
ENDBRANCH  16  21
ENDBRANCH   6  13
TORSDOF 4
