REMARK  Name = ZINC01052116
REMARK  15 active torsions:
REMARK  status: ('A' for Active; 'I' for Inactive)
REMARK    1  A    between atoms: C_1  and  C_2
REMARK    2  A    between atoms: C_3  and  C_36
REMARK    3  A    between atoms: C_4  and  C_34
REMARK    4  A    between atoms: C_5  and  S_9
REMARK    5  A    between atoms: C_7  and  C_8
REMARK    6  A    between atoms: S_9  and  C_10
REMARK    7  A    between atoms: C_10  and  C_11
REMARK    8  A    between atoms: C_12  and  C_28
REMARK    9  A    between atoms: C_13  and  C_21
REMARK   10  A    between atoms: C_15  and  C_19
REMARK   11  A    between atoms: C_16  and  N_18
REMARK   12  A    between atoms: C_28  and  O_30
REMARK   13  A    between atoms: O_30  and  C_31
REMARK   14  A    between atoms: C_31  and  C_32
REMARK   15  A    between atoms: C_31  and  C_33
REMARK                            x       y       z     vdW  Elec       q    Type
REMARK                         _______ _______ _______ _____ _____    ______ ____
ROOT
ATOM      1  C   UNL     1      -1.777   7.427  -0.945  0.00  0.00    +0.128 C 
ATOM      2  C   UNL     1      -0.749   6.596  -1.159  0.00  0.00    +0.088 C 
ATOM      3  C   UNL     1      -0.335   5.589  -0.121  0.00  0.00    +0.105 C 
ATOM      4  C   UNL     1      -0.937   5.952   1.210  0.00  0.00    +0.098 C 
ATOM      5  C   UNL     1      -1.965   6.831   1.287  0.00  0.00    +0.198 C 
ATOM      6  O   UNL     1      -2.488   7.409   0.192  0.00  0.00    -0.444 OA
ENDROOT
BRANCH   3   7
ATOM      7  C   UNL     1      -0.814   4.220  -0.531  0.00  0.00    -0.034 A 
ATOM      8  C   UNL     1       0.098   3.202  -0.739  0.00  0.00    +0.006 A 
ATOM      9  C   UNL     1      -0.342   1.947  -1.115  0.00  0.00    +0.020 A 
ATOM     10  C   UNL     1      -1.694   1.709  -1.283  0.00  0.00    +0.041 A 
ATOM     11  C   UNL     1      -2.606   2.730  -1.080  0.00  0.00    +0.020 A 
ATOM     12  C   UNL     1      -2.166   3.983  -0.698  0.00  0.00    +0.006 A 
ATOM     13 CL   UNL     1      -2.247   0.133  -1.756  0.00  0.00    -0.084 Cl
ENDBRANCH   3   7
BRANCH   5  14
ATOM     14  N   UNL     1      -2.487   7.141   2.519  0.00  0.00    -0.328 N 
ATOM     15  H   UNL     1      -2.120   6.732   3.318  0.00  0.00    +0.145 HD
ATOM     16  H   UNL     1      -3.223   7.768   2.590  0.00  0.00    +0.145 HD
ENDBRANCH   5  14
BRANCH   4  17
ATOM     17  C   UNL     1      -0.418   5.363   2.407  0.00  0.00    +0.101 C 
ATOM     18  N   UNL     1      -0.006   4.895   3.356  0.00  0.00    -0.191 NA
ENDBRANCH   4  17
BRANCH   2  19
ATOM     19  C   UNL     1      -0.040   6.666  -2.383  0.00  0.00    +0.340 C 
ATOM     20  O   UNL     1      -0.571   7.146  -3.367  0.00  0.00    -0.245 OA
BRANCH  19  21
ATOM     21  O   UNL     1       1.224   6.201  -2.458  0.00  0.00    -0.459 OA
BRANCH  21  22
ATOM     22  C   UNL     1       1.880   6.304  -3.724  0.00  0.00    +0.171 C 
ATOM     23  C   UNL     1       2.614   7.643  -3.810  0.00  0.00    +0.052 C 
ATOM     24  C   UNL     1       2.885   5.160  -3.872  0.00  0.00    +0.052 C 
ENDBRANCH  21  22
ENDBRANCH  19  21
ENDBRANCH   2  19
BRANCH   1  25
ATOM     25  C   UNL     1      -2.148   8.417  -2.019  0.00  0.00    +0.150 C 
BRANCH  25  26
ATOM     26  S   UNL     1      -3.638   7.850  -2.875  0.00  0.00    -0.097 S 
BRANCH  26  31
ATOM     27  C   UNL     1      -4.224  12.347  -6.806  0.00  0.00    +0.046 C 
ATOM     28  C   UNL     1      -4.117  11.197  -5.838  0.00  0.00    -0.025 A 
ATOM     29  C   UNL     1      -5.049  10.174  -5.865  0.00  0.00    -0.026 A 
ATOM     30  C   UNL     1      -4.909   9.123  -4.951  0.00  0.00    +0.087 A 
ATOM     31  C   UNL     1      -3.837   9.155  -4.041  0.00  0.00    +0.115 A 
ATOM     32  N   UNL     1      -2.974  10.159  -4.060  0.00  0.00    -0.244 NA
ATOM     33  C   UNL     1      -3.086  11.156  -4.916  0.00  0.00    +0.043 A 
ATOM     34  C   UNL     1      -2.073  12.271  -4.890  0.00  0.00    +0.066 C 
ATOM     35  C   UNL     1      -6.183  10.189  -6.857  0.00  0.00    +0.045 C 
BRANCH  30  36
ATOM     36  C   UNL     1      -5.843   8.037  -4.941  0.00  0.00    +0.102 C 
ATOM     37  N   UNL     1      -6.583   7.176  -4.932  0.00  0.00    -0.191 NA
ENDBRANCH  30  36
ENDBRANCH  26  31
ENDBRANCH  25  26
ENDBRANCH   1  25
TORSDOF 10
