REMARK  Name = ZINC03437740
REMARK  7 active torsions:
REMARK  status: ('A' for Active; 'I' for Inactive)
REMARK    1  A    between atoms: C_1  and  C_2
REMARK    2  A    between atoms: C_2  and  C_28
REMARK    3  A    between atoms: N_5  and  C_9
REMARK    4  A    between atoms: C_9  and  C_10
REMARK    5  A    between atoms: N_12  and  C_13
REMARK    6  A    between atoms: C_16  and  S_19
REMARK    7  A    between atoms: S_19  and  N_22
REMARK                            x       y       z     vdW  Elec       q    Type
REMARK                         _______ _______ _______ _____ _____    ______ ____
ROOT
ATOM      1  C   UNL     1      -2.530   5.078  -0.443  0.00  0.00    +0.235 C 
ATOM      2  O   UNL     1      -1.563   5.580  -0.975  0.00  0.00    -0.274 OA
ATOM      3  N   UNL     1      -2.456   3.823   0.044  0.00  0.00    -0.284 N 
ATOM      4  H   UNL     1      -3.249   3.394   0.401  0.00  0.00    +0.155 HD
ENDROOT
BRANCH   3   5
ATOM      5  C   UNL     1      -1.235   3.140   0.035  0.00  0.00    +0.034 A 
ATOM      6  C   UNL     1      -1.209   1.764  -0.151  0.00  0.00    +0.025 A 
ATOM      7  C   UNL     1      -0.002   1.092  -0.155  0.00  0.00    +0.030 A 
ATOM      8  C   UNL     1       1.179   1.789   0.016  0.00  0.00    +0.106 A 
ATOM      9  C   UNL     1       1.157   3.160   0.196  0.00  0.00    +0.030 A 
ATOM     10  C   UNL     1      -0.046   3.837   0.205  0.00  0.00    +0.025 A 
BRANCH   8  11
ATOM     11  S   UNL     1       2.717   0.929   0.004  0.00  0.00    +0.061 S 
ATOM     12  O   UNL     1       3.638   1.733   0.728  0.00  0.00    -0.153 OA
ATOM     13  O   UNL     1       2.433  -0.416   0.364  0.00  0.00    -0.153 OA
BRANCH  11  14
ATOM     14  N   UNL     1       3.248   0.897  -1.564  0.00  0.00    -0.177 NA
ATOM     15  C   UNL     1       2.881  -0.211  -2.457  0.00  0.00    +0.109 C 
ATOM     16  C   UNL     1       2.251   0.374  -3.729  0.00  0.00    +0.017 C 
ATOM     17  C   UNL     1       3.216   1.387  -4.350  0.00  0.00    +0.003 C 
ATOM     18  C   UNL     1       3.461   2.531  -3.364  0.00  0.00    +0.017 C 
ATOM     19  C   UNL     1       4.100   1.973  -2.088  0.00  0.00    +0.109 C 
ENDBRANCH  11  14
ENDBRANCH   8  11
ENDBRANCH   3   5
BRANCH   1  20
ATOM     20  C   UNL     1      -3.815   5.857  -0.325  0.00  0.00    +0.214 C 
BRANCH  20  25
ATOM     21  C   UNL     1      -4.813   9.711  -2.821  0.00  0.00    +0.042 C 
ATOM     22  C   UNL     1      -3.566   8.938  -2.384  0.00  0.00    +0.113 C 
ATOM     23  C   UNL     1      -3.882   7.465  -2.220  0.00  0.00    +0.247 C 
ATOM     24  O   UNL     1      -4.273   6.700  -3.075  0.00  0.00    -0.273 OA
ATOM     25  N   UNL     1      -3.639   7.182  -0.925  0.00  0.00    -0.215 N 
ATOM     26  C   UNL     1      -3.222   8.262  -0.254  0.00  0.00    +0.310 C 
ATOM     27  O   UNL     1      -2.944   8.256   0.930  0.00  0.00    -0.252 OA
ATOM     28  N   UNL     1      -3.142   9.354  -1.036  0.00  0.00    -0.285 N 
ATOM     29  H   UNL     1      -2.863  10.242  -0.764  0.00  0.00    +0.151 HD
BRANCH  22  30
ATOM     30  C   UNL     1      -2.431   9.137  -3.390  0.00  0.00    +0.021 C 
ATOM     31  C   UNL     1      -1.091   9.641  -2.853  0.00  0.00    +0.006 C 
ATOM     32  C   UNL     1      -1.984  10.572  -3.676  0.00  0.00    +0.006 C 
ENDBRANCH  22  30
ENDBRANCH  20  25
ENDBRANCH   1  20
TORSDOF 6
