REMARK  Name = ZINC36505980
REMARK  17 active torsions:
REMARK  status: ('A' for Active; 'I' for Inactive)
REMARK    1  A    between atoms: C_1  and  C_2
REMARK    2  A    between atoms: C_2  and  C_3
REMARK    3  A    between atoms: C_2  and  C_4
REMARK    4  A    between atoms: C_2  and  C_5
REMARK    5  A    between atoms: C_5  and  C_6
REMARK    6  A    between atoms: C_6  and  C_7
REMARK    7  A    between atoms: C_6  and  C_8
REMARK    8  A    between atoms: C_6  and  N_9
REMARK    9  A    between atoms: C_10  and  C_12
REMARK   10  A    between atoms: C_12  and  C_14
REMARK   11  A    between atoms: C_12  and  N_23
REMARK   12  A    between atoms: C_15  and  O_22
REMARK   13  A    between atoms: C_17  and  O_21
REMARK   14  A    between atoms: C_19  and  O_20
REMARK   15  A    between atoms: N_23  and  C_24
REMARK   16  A    between atoms: C_24  and  C_25
REMARK   17  A    between atoms: C_30  and  C_32
REMARK                            x       y       z     vdW  Elec       q    Type
REMARK                         _______ _______ _______ _____ _____    ______ ____
ROOT
ATOM      1  C   UNL     1       5.252  -0.644  -3.892  0.00  0.00    +0.200 C 
ENDROOT
BRANCH   1   2
ATOM      2  C   UNL     1       5.276  -2.147  -3.780  0.00  0.00    +0.065 A 
ATOM      3  C   UNL     1       5.990  -2.755  -2.758  0.00  0.00    +0.129 A 
ATOM      4  C   UNL     1       6.012  -4.137  -2.655  0.00  0.00    +0.091 A 
ATOM      5  C   UNL     1       5.319  -4.912  -3.573  0.00  0.00    +0.124 A 
ATOM      6  C   UNL     1       4.604  -4.305  -4.593  0.00  0.00    +0.091 A 
ATOM      7  C   UNL     1       4.578  -2.922  -4.694  0.00  0.00    +0.129 A 
BRANCH   7   8
ATOM      8  O   UNL     1       3.874  -2.326  -5.692  0.00  0.00    -0.506 OA
ATOM      9  H   UNL     1       4.383  -2.182  -6.501  0.00  0.00    +0.292 HD
ENDBRANCH   7   8
BRANCH   5  10
ATOM     10  O   UNL     1       5.342  -6.267  -3.472  0.00  0.00    -0.507 OA
ATOM     11  H   UNL     1       4.633  -6.633  -2.925  0.00  0.00    +0.292 HD
ENDBRANCH   5  10
BRANCH   3  12
ATOM     12  O   UNL     1       6.669  -1.995  -1.859  0.00  0.00    -0.506 OA
ATOM     13  H   UNL     1       6.176  -1.812  -1.048  0.00  0.00    +0.292 HD
ENDBRANCH   3  12
ENDBRANCH   1   2
BRANCH   1  15
ATOM     14  N   UNL     1       3.296  -0.387  -2.400  0.00  0.00    -0.308 N 
ATOM     15  C   UNL     1       4.573  -0.061  -2.680  0.00  0.00    +0.239 C 
ATOM     16  O   UNL     1       5.177   0.702  -1.956  0.00  0.00    -0.273 OA
ATOM     17  H   UNL     1       2.813  -0.997  -2.979  0.00  0.00    +0.149 HD
BRANCH  14  18
ATOM     18  C   UNL     1       2.637   0.181  -1.221  0.00  0.00    +0.030 C 
ATOM     19  C   UNL     1       2.818   1.700  -1.217  0.00  0.00    +0.031 C 
ATOM     20  C   UNL     1       3.259  -0.411   0.046  0.00  0.00    +0.031 C 
BRANCH  18  21
ATOM     21  C   UNL     1       1.144  -0.154  -1.261  0.00  0.00    +0.031 C 
BRANCH  21  23
ATOM     22  C   UNL     1       0.961  -1.084  -3.572  0.00  0.00    +0.010 C 
ATOM     23  C   UNL     1       0.602   0.098  -2.669  0.00  0.00    -0.036 C 
ATOM     24  C   UNL     1       1.223   1.377  -3.233  0.00  0.00    +0.010 C 
ATOM     25  C   UNL     1      -0.919   0.252  -2.610  0.00  0.00    +0.010 C 
ENDBRANCH  21  23
ENDBRANCH  18  21
ENDBRANCH  14  18
ENDBRANCH   1  15
BRANCH   1  26
ATOM     26  N   UNL     1       6.624  -0.139  -3.975  0.00  0.00    -0.274 N 
ATOM     27  C   UNL     1       6.860   1.186  -3.903  0.00  0.00    +0.249 C 
ATOM     28  O   UNL     1       8.000   1.597  -3.809  0.00  0.00    -0.270 OA
BRANCH  27  29
ATOM     29  C   UNL     1       5.732   2.140  -3.938  0.00  0.00    +0.055 A 
ATOM     30  C   UNL     1       4.431   1.681  -4.156  0.00  0.00    +0.014 A 
ATOM     31  C   UNL     1       3.383   2.576  -4.187  0.00  0.00    +0.001 A 
ATOM     32  C   UNL     1       3.617   3.928  -4.005  0.00  0.00    +0.001 A 
ATOM     33  C   UNL     1       4.902   4.391  -3.790  0.00  0.00    +0.021 A 
ATOM     34  C   UNL     1       5.961   3.505  -3.749  0.00  0.00    +0.053 A 
ATOM     35 CL   UNL     1       7.573   4.087  -3.471  0.00  0.00    -0.083 Cl
ENDBRANCH  27  29
BRANCH  26  36
ATOM     36  C   UNL     1       7.741  -1.074  -4.135  0.00  0.00    +0.183 C 
BRANCH  36  37
ATOM     37  C   UNL     1       8.528  -0.709  -5.368  0.00  0.00    +0.122 A 
ATOM     38  C   UNL     1       9.637   0.052  -5.396  0.00  0.00    +0.046 A 
ATOM     39  C   UNL     1      10.042   0.135  -6.748  0.00  0.00    +0.041 A 
ATOM     40  C   UNL     1       9.156  -0.579  -7.465  0.00  0.00    +0.195 A 
ATOM     41  O   UNL     1       8.244  -1.093  -6.623  0.00  0.00    -0.466 OA
ENDBRANCH  36  37
ENDBRANCH  26  36
ENDBRANCH   1  26
TORSDOF 12
