REMARK  Name = ZINC63786787
REMARK  5 active torsions:
REMARK  status: ('A' for Active; 'I' for Inactive)
REMARK    1  A    between atoms: C_7  and  C_10
REMARK    2  A    between atoms: C_10  and  C_11
REMARK    3  A    between atoms: N_15  and  C_19
REMARK    4  A    between atoms: C_19  and  C_20
REMARK    5  A    between atoms: N_22  and  C_23
REMARK                            x       y       z     vdW  Elec       q    Type
REMARK                         _______ _______ _______ _____ _____    ______ ____
ROOT
ATOM      1  C   UNL     1       0.444  -3.626  -1.480  0.00  0.00    +0.165 C 
ATOM      2  C   UNL     1      -0.438  -4.859  -1.504  0.00  0.00    +0.244 C 
ATOM      3  O   UNL     1      -0.199  -5.940  -1.009  0.00  0.00    -0.273 OA
ATOM      4  N   UNL     1      -1.544  -4.503  -2.188  0.00  0.00    -0.216 N 
ATOM      5  C   UNL     1      -1.483  -3.230  -2.595  0.00  0.00    +0.310 C 
ATOM      6  O   UNL     1      -2.362  -2.682  -3.231  0.00  0.00    -0.252 OA
ATOM      7  N   UNL     1      -0.337  -2.623  -2.225  0.00  0.00    -0.287 N 
ATOM      8  H   UNL     1      -0.077  -1.707  -2.409  0.00  0.00    +0.151 HD
ENDROOT
BRANCH   1   9
ATOM      9  C   UNL     1       0.683  -3.163  -0.042  0.00  0.00    +0.065 C 
BRANCH   9  16
ATOM     10  C   UNL     1      -0.046   1.367   0.014  0.00  0.00    +0.001 A 
ATOM     11  C   UNL     1       1.132   2.126   0.003  0.00  0.00    +0.002 A 
ATOM     12  C   UNL     1       2.360   1.566  -0.020  0.00  0.00    +0.026 A 
ATOM     13  C   UNL     1       2.505   0.152  -0.036  0.00  0.00    +0.043 A 
ATOM     14  N   UNL     1       3.566  -0.617  -0.060  0.00  0.00    -0.380 N 
ATOM     15  C   UNL     1       3.130  -2.018  -0.067  0.00  0.00    +0.144 C 
ATOM     16  C   UNL     1       1.618  -1.981  -0.044  0.00  0.00    -0.039 C 
ATOM     17  C   UNL     1       1.275  -0.673  -0.025  0.00  0.00    -0.001 A 
ATOM     18  C   UNL     1      -0.021   0.015   0.001  0.00  0.00    +0.010 A 
ATOM     19  H   UNL     1       4.487  -0.311  -0.071  0.00  0.00    +0.160 HD
ENDBRANCH   9  16
ENDBRANCH   1   9
BRANCH   4  20
ATOM     20  C   UNL     1      -2.671  -5.399  -2.453  0.00  0.00    +0.214 C 
BRANCH  20  21
ATOM     21  C   UNL     1      -3.674  -5.290  -1.333  0.00  0.00    +0.235 C 
ATOM     22  O   UNL     1      -3.466  -4.538  -0.404  0.00  0.00    -0.274 OA
ATOM     23  N   UNL     1      -4.801  -6.029  -1.363  0.00  0.00    -0.282 N 
ATOM     24  H   UNL     1      -4.998  -6.582  -2.135  0.00  0.00    +0.155 HD
BRANCH  23  25
ATOM     25  C   UNL     1      -5.688  -5.998  -0.278  0.00  0.00    +0.072 A 
ATOM     26  C   UNL     1      -5.868  -4.824   0.439  0.00  0.00    +0.029 A 
ATOM     27  C   UNL     1      -6.742  -4.794   1.509  0.00  0.00    +0.043 A 
ATOM     28  C   UNL     1      -7.440  -5.935   1.867  0.00  0.00    +0.161 A 
ATOM     29  C   UNL     1      -7.263  -7.111   1.154  0.00  0.00    +0.195 A 
ATOM     30  C   UNL     1      -6.392  -7.143   0.078  0.00  0.00    +0.182 A 
ATOM     31  F   UNL     1      -6.223  -8.286  -0.622  0.00  0.00    -0.200 F 
ATOM     32  F   UNL     1      -7.943  -8.224   1.506  0.00  0.00    -0.199 F 
ATOM     33  F   UNL     1      -8.293  -5.903   2.913  0.00  0.00    -0.202 F 
ENDBRANCH  23  25
ENDBRANCH  20  21
ENDBRANCH   4  20
TORSDOF 5
