REMARK  Name = ZINC13645204
REMARK  12 active torsions:
REMARK  status: ('A' for Active; 'I' for Inactive)
REMARK    1  A    between atoms: C_1  and  C_2
REMARK    2  A    between atoms: C_2  and  N_68
REMARK    3  A    between atoms: C_3  and  C_4
REMARK    4  A    between atoms: C_3  and  N_68
REMARK    5  A    between atoms: C_5  and  C_6
REMARK    6  A    between atoms: C_5  and  N_68
REMARK    7  A    between atoms: C_6  and  N_7
REMARK    8  A    between atoms: C_8  and  C_10
REMARK    9  A    between atoms: C_23  and  C_26
REMARK   10  A    between atoms: C_29  and  N_32
REMARK   11  A    between atoms: N_32  and  C_33
REMARK   12  A    between atoms: N_32  and  C_34
REMARK                            x       y       z     vdW  Elec       q    Type
REMARK                         _______ _______ _______ _____ _____    ______ ____
ROOT
ATOM      1  C   UNL     1       3.304   1.956  -1.236  0.00  0.00    +0.037 A 
ATOM      2  C   UNL     1       3.923   2.727  -0.248  0.00  0.00    +0.015 A 
ATOM      3  C   UNL     1       3.151   3.408   0.664  0.00  0.00    +0.024 A 
ATOM      4  C   UNL     1       1.762   3.330   0.604  0.00  0.00    +0.031 A 
ATOM      5  C   UNL     1       1.136   2.564  -0.373  0.00  0.00    -0.019 A 
ATOM      6  C   UNL     1       1.912   1.880  -1.291  0.00  0.00    +0.019 A 
ATOM      7  C   UNL     1      -0.353   2.452  -0.470  0.00  0.00    +0.049 C 
ATOM      8  C   UNL     1      -0.892   3.267  -1.622  0.00  0.00    -0.023 C 
ATOM      9  C   UNL     1      -2.028   3.810  -1.319  0.00  0.00    -0.030 C 
ATOM     10  C   UNL     1      -2.430   3.431   0.093  0.00  0.00    +0.033 C 
ATOM     11  C   UNL     1      -1.080   3.033   0.758  0.00  0.00    +0.029 C 
ATOM     12  C   UNL     1      -0.404   4.313   1.220  0.00  0.00    +0.105 C 
ATOM     13  N   UNL     1       1.001   4.032   1.536  0.00  0.00    -0.336 N 
ATOM     14  H   UNL     1       1.391   4.329   2.373  0.00  0.00    +0.147 HD
ENDROOT
BRANCH  12  15
ATOM     15  C   UNL     1      -0.478   5.337   0.117  0.00  0.00    -0.027 A 
ATOM     16  C   UNL     1       0.527   5.405  -0.830  0.00  0.00    +0.007 A 
ATOM     17  C   UNL     1       0.459   6.338  -1.846  0.00  0.00    +0.023 A 
ATOM     18  C   UNL     1      -0.615   7.217  -1.909  0.00  0.00    +0.029 A 
ATOM     19  C   UNL     1      -1.620   7.150  -0.953  0.00  0.00    +0.023 A 
ATOM     20  C   UNL     1      -1.549   6.210   0.057  0.00  0.00    +0.007 A 
BRANCH  18  21
ATOM     21  N   UNL     1      -0.684   8.166  -2.931  0.00  0.00    -0.336 N 
ATOM     22  C   UNL     1      -1.817   9.092  -2.996  0.00  0.00    +0.129 C 
ATOM     23  C   UNL     1       0.377   8.235  -3.939  0.00  0.00    +0.129 C 
ENDBRANCH  18  21
ENDBRANCH  12  15
BRANCH   1  25
ATOM     24  N   UNL     1       5.467   1.295  -2.166  0.00  0.00    -0.313 N 
ATOM     25  C   UNL     1       4.122   1.222  -2.220  0.00  0.00    +0.244 C 
ATOM     26  O   UNL     1       3.584   0.551  -3.079  0.00  0.00    -0.270 OA
ATOM     27  H   UNL     1       5.897   1.830  -1.481  0.00  0.00    +0.149 HD
BRANCH  24  28
ATOM     28  C   UNL     1       6.280   0.566  -3.143  0.00  0.00    +0.086 C 
BRANCH  28  29
ATOM     29  C   UNL     1       7.763   0.817  -2.861  0.00  0.00    -0.060 C 
BRANCH  29  30
ATOM     30  N   UNL     1       8.569   0.059  -3.841  0.00  0.00    +0.380 N 
ATOM     31  H   UNL     1       8.258  -0.920  -3.843  0.00  0.00    -0.082 HD
BRANCH  30  33
ATOM     32  C   UNL     1       8.796   2.097  -5.221  0.00  0.00    -0.017 C 
ATOM     33  C   UNL     1       8.383   0.624  -5.194  0.00  0.00    -0.082 C 
ENDBRANCH  30  33
BRANCH  30  34
ATOM     34  C   UNL     1       9.998   0.108  -3.465  0.00  0.00    -0.082 C 
ATOM     35  C   UNL     1      10.778  -0.854  -4.364  0.00  0.00    -0.017 C 
ENDBRANCH  30  34
ENDBRANCH  29  30
ENDBRANCH  28  29
ENDBRANCH  24  28
ENDBRANCH   1  25
TORSDOF 8
