REMARK  Name = ZINC33638003
REMARK  8 active torsions:
REMARK  status: ('A' for Active; 'I' for Inactive)
REMARK    1  A    between atoms: C_1  and  C_2
REMARK    2  A    between atoms: C_2  and  C_3
REMARK    3  A    between atoms: C_2  and  C_4
REMARK    4  A    between atoms: C_2  and  N_5
REMARK    5  A    between atoms: C_10  and  C_28
REMARK    6  A    between atoms: C_13  and  C_18
REMARK    7  A    between atoms: C_13  and  C_25
REMARK    8  A    between atoms: C_18  and  C_19
REMARK                            x       y       z     vdW  Elec       q    Type
REMARK                         _______ _______ _______ _____ _____    ______ ____
ROOT
ATOM      1  N   UNL     1       1.148   0.928   3.775  0.00  0.00    -0.236 N 
ATOM      2  C   UNL     1       0.298  -0.142   3.768  0.00  0.00    +0.225 C 
ATOM      3  O   UNL     1       0.096  -0.924   4.672  0.00  0.00    -0.275 OA
ATOM      4  C   UNL     1      -0.335  -0.144   2.404  0.00  0.00    +0.077 C 
ATOM      5  C   UNL     1      -1.828  -0.428   2.260  0.00  0.00    -0.025 C 
ATOM      6  N   UNL     1      -2.328   0.583   1.278  0.00  0.00    +0.396 N 
ATOM      7  C   UNL     1      -1.218   1.567   1.030  0.00  0.00    +0.048 C 
ATOM      8  C   UNL     1      -0.407   1.430   2.256  0.00  0.00    +0.086 C 
ATOM      9  C   UNL     1       0.892   1.815   2.759  0.00  0.00    +0.225 C 
ATOM     10  O   UNL     1       1.598   2.720   2.370  0.00  0.00    -0.275 OA
ATOM     11  H   UNL     1      -2.607   0.077   0.341  0.00  0.00    -0.083 HD
ATOM     12  H   UNL     1      -3.208   1.095   1.694  0.00  0.00    -0.083 HD
ENDROOT
BRANCH   5  13
ATOM     13  C   UNL     1      -2.523  -0.256   3.586  0.00  0.00    -0.039 A 
ATOM     14  C   UNL     1      -3.059   0.971   3.931  0.00  0.00    +0.023 A 
ATOM     15  C   UNL     1      -3.702   1.128   5.146  0.00  0.00    +0.043 A 
ATOM     16  C   UNL     1      -3.799   0.061   6.021  0.00  0.00    +0.041 A 
ATOM     17  C   UNL     1      -3.258  -1.165   5.679  0.00  0.00    +0.061 A 
ATOM     18  C   UNL     1      -2.619  -1.323   4.460  0.00  0.00    +0.061 A 
ATOM     19 CL   UNL     1      -1.939  -2.861   4.030  0.00  0.00    -0.082 Cl
ATOM     20 CL   UNL     1      -3.379  -2.504   6.776  0.00  0.00    -0.082 Cl
ATOM     21 CL   UNL     1      -4.382   2.667   5.575  0.00  0.00    -0.083 Cl
ENDBRANCH   5  13
BRANCH   1  23
ATOM     22  C   UNL     1       2.212  -0.065   5.741  0.00  0.00    +0.031 C 
ATOM     23  C   UNL     1       2.217   1.110   4.761  0.00  0.00    +0.036 C 
ATOM     24  C   UNL     1       3.567   1.170   4.043  0.00  0.00    +0.031 C 
ATOM     25  C   UNL     1       1.988   2.414   5.527  0.00  0.00    +0.031 C 
ENDBRANCH   1  23
BRANCH   7  26
ATOM     26  C   UNL     1      -1.760   2.967   0.897  0.00  0.00    +0.346 C 
ATOM     27  O   UNL     1      -1.160   3.896   1.384  0.00  0.00    -0.248 OA
ATOM     28  O   UNL     1      -2.910   3.182   0.239  0.00  0.00    -0.248 OA
ENDBRANCH   7  26
BRANCH   7  29
ATOM     29  C   UNL     1      -0.408   1.178  -0.208  0.00  0.00    +0.003 C 
BRANCH  29  30
ATOM     30  C   UNL     1      -1.271   1.356  -1.459  0.00  0.00    -0.012 C 
ATOM     31  C   UNL     1      -2.419   0.346  -1.435  0.00  0.00    +0.003 C 
ATOM     32  C   UNL     1      -3.282   0.524  -2.685  0.00  0.00    +0.000 C 
ATOM     33  C   UNL     1      -2.426   0.294  -3.932  0.00  0.00    +0.000 C 
ATOM     34  C   UNL     1      -1.277   1.304  -3.957  0.00  0.00    +0.000 C 
ATOM     35  C   UNL     1      -0.415   1.125  -2.706  0.00  0.00    +0.003 C 
ENDBRANCH  29  30
ENDBRANCH   7  29
TORSDOF 5
