REMARK  Name = ZINC31167292
REMARK  13 active torsions:
REMARK  status: ('A' for Active; 'I' for Inactive)
REMARK    1  A    between atoms: C_1  and  O_2
REMARK    2  A    between atoms: O_2  and  C_3
REMARK    3  A    between atoms: C_5  and  C_10
REMARK    4  A    between atoms: C_8  and  O_9
REMARK    5  A    between atoms: C_11  and  C_12
REMARK    6  A    between atoms: C_14  and  O_40
REMARK    7  A    between atoms: C_19  and  C_31
REMARK    8  A    between atoms: C_21  and  C_23
REMARK    9  A    between atoms: C_25  and  O_30
REMARK   10  A    between atoms: C_27  and  O_29
REMARK   11  A    between atoms: C_34  and  O_39
REMARK   12  A    between atoms: C_35  and  O_37
REMARK   13  A    between atoms: O_37  and  C_38
REMARK                            x       y       z     vdW  Elec       q    Type
REMARK                         _______ _______ _______ _____ _____    ______ ____
ROOT
ATOM      1  C   UNL     1       6.380   2.943   4.420  0.00  0.00    -0.018 A 
ATOM      2  C   UNL     1       6.986   1.766   3.974  0.00  0.00    +0.053 A 
ATOM      3  C   UNL     1       6.981   1.466   2.622  0.00  0.00    +0.125 A 
ATOM      4  C   UNL     1       6.380   2.328   1.722  0.00  0.00    +0.047 A 
ATOM      5  C   UNL     1       5.780   3.506   2.150  0.00  0.00    +0.129 A 
ATOM      6  C   UNL     1       5.779   3.809   3.507  0.00  0.00    +0.054 A 
ATOM      7  O   UNL     1       5.266   4.206   1.101  0.00  0.00    -0.483 OA
ATOM      8  C   UNL     1       5.106   3.325  -0.024  0.00  0.00    +0.216 C 
ATOM      9  C   UNL     1       6.202   2.260   0.217  0.00  0.00    +0.101 C 
ENDROOT
BRANCH   9  10
ATOM     10  C   UNL     1       7.479   2.631  -0.493  0.00  0.00    -0.029 A 
ATOM     11  C   UNL     1       8.117   3.818  -0.189  0.00  0.00    +0.050 A 
ATOM     12  C   UNL     1       9.296   4.160  -0.837  0.00  0.00    +0.121 A 
ATOM     13  C   UNL     1       9.827   3.314  -1.799  0.00  0.00    +0.090 A 
ATOM     14  C   UNL     1       9.181   2.127  -2.107  0.00  0.00    +0.121 A 
ATOM     15  C   UNL     1       8.006   1.787  -1.452  0.00  0.00    +0.050 A 
BRANCH  14  16
ATOM     16  O   UNL     1       9.699   1.296  -3.049  0.00  0.00    -0.507 OA
ATOM     17  H   UNL     1       9.186   0.353  -3.293  0.00  0.00    +0.292 HD
ENDBRANCH  14  16
BRANCH  12  18
ATOM     18  O   UNL     1       9.927   5.324  -0.533  0.00  0.00    -0.507 OA
ATOM     19  H   UNL     1      10.861   5.595  -1.047  0.00  0.00    +0.292 HD
ENDBRANCH  12  18
ENDBRANCH   9  10
BRANCH   8  20
ATOM     20  C   UNL     1       3.738   2.693  -0.018  0.00  0.00    -0.003 A 
ATOM     21  C   UNL     1       3.121   2.396   1.183  0.00  0.00    +0.011 A 
ATOM     22  C   UNL     1       1.863   1.823   1.193  0.00  0.00    +0.049 A 
ATOM     23  C   UNL     1       1.224   1.533  -0.001  0.00  0.00    +0.158 A 
ATOM     24  C   UNL     1       1.845   1.831  -1.210  0.00  0.00    +0.162 A 
ATOM     25  C   UNL     1       3.103   2.412  -1.214  0.00  0.00    +0.056 A 
BRANCH  24  26
ATOM     26  O   UNL     1       1.220   1.554  -2.385  0.00  0.00    -0.491 OA
ATOM     27  C   UNL     1       1.917   1.888  -3.587  0.00  0.00    +0.277 C 
ENDBRANCH  24  26
BRANCH  23  28
ATOM     28  O   UNL     1      -0.011   0.963   0.007  0.00  0.00    -0.503 OA
ATOM     29  H   UNL     1      -0.517   0.733  -0.942  0.00  0.00    +0.292 HD
ENDBRANCH  23  28
ENDBRANCH   8  20
BRANCH   1  31
ATOM     30  C   UNL     1       6.952   2.437   6.737  0.00  0.00    +0.008 C 
ATOM     31  C   UNL     1       6.375   3.271   5.857  0.00  0.00    +0.009 C 
BRANCH  30  34
ATOM     32  C   UNL     1       7.540   2.210  10.438  0.00  0.00    +0.162 A 
ATOM     33  C   UNL     1       7.544   1.895   9.092  0.00  0.00    +0.057 A 
ATOM     34  C   UNL     1       6.948   2.764   8.174  0.00  0.00    -0.021 A 
ATOM     35  C   UNL     1       6.342   3.941   8.623  0.00  0.00    +0.012 A 
ATOM     36  C   UNL     1       6.338   4.245   9.968  0.00  0.00    +0.050 A 
ATOM     37  C   UNL     1       6.935   3.385  10.878  0.00  0.00    +0.158 A 
BRANCH  32  39
ATOM     38  C   UNL     1       8.727   0.183  10.813  0.00  0.00    +0.277 C 
ATOM     39  O   UNL     1       8.124   1.369  11.334  0.00  0.00    -0.491 OA
ENDBRANCH  32  39
BRANCH  37  40
ATOM     40  O   UNL     1       6.928   3.689  12.203  0.00  0.00    -0.503 OA
ATOM     41  H   UNL     1       6.450   4.617  12.552  0.00  0.00    +0.292 HD
ENDBRANCH  37  40
ENDBRANCH  30  34
ENDBRANCH   1  31
BRANCH   3  42
ATOM     42  O   UNL     1       7.569   0.323   2.179  0.00  0.00    -0.506 OA
ATOM     43  H   UNL     1       7.566   0.083   1.106  0.00  0.00    +0.292 HD
ENDBRANCH   3  42
TORSDOF 11
