REMARK  Name = ZINC40621730
REMARK  4 active torsions:
REMARK  status: ('A' for Active; 'I' for Inactive)
REMARK    1  A    between atoms: C_3  and  N_9
REMARK    2  A    between atoms: C_11  and  N_27
REMARK    3  A    between atoms: C_12  and  N_16
REMARK    4  A    between atoms: N_16  and  C_17
REMARK                            x       y       z     vdW  Elec       q    Type
REMARK                         _______ _______ _______ _____ _____    ______ ____
ROOT
ATOM      1  N   UNL     1       3.584   2.128  -0.021  0.00  0.00    -0.295 N 
ATOM      2  C   UNL     1       3.567   3.512  -0.119  0.00  0.00    +0.159 A 
ATOM      3  C   UNL     1       4.755   4.226  -0.238  0.00  0.00    +0.205 A 
ATOM      4  C   UNL     1       4.684   5.612  -0.333  0.00  0.00    +0.155 A 
ATOM      5  N   UNL     1       3.490   6.202  -0.307  0.00  0.00    -0.218 NA
ATOM      6  C   UNL     1       2.387   5.490  -0.193  0.00  0.00    +0.225 A 
ATOM      7  N   UNL     1       2.412   4.176  -0.105  0.00  0.00    -0.218 NA
ATOM      8  H   UNL     1       4.418   1.645  -0.130  0.00  0.00    +0.154 HD
ENDROOT
BRANCH   1  11
ATOM      9  C   UNL     1       0.190   1.357   1.167  0.00  0.00    +0.017 A 
ATOM     10  C   UNL     1       1.359   2.049   0.916  0.00  0.00    +0.027 A 
ATOM     11  C   UNL     1       2.398   1.430   0.235  0.00  0.00    +0.068 A 
ATOM     12  C   UNL     1       2.258   0.113  -0.193  0.00  0.00    +0.145 A 
ATOM     13  C   UNL     1       1.085  -0.573   0.061  0.00  0.00    +0.055 A 
ATOM     14  C   UNL     1       0.052   0.049   0.741  0.00  0.00    +0.021 A 
ATOM     15 BR   UNL     1      -1.550  -0.893   1.087  0.00  0.00    -0.050 Br
ATOM     16  F   UNL     1       3.267  -0.493  -0.857  0.00  0.00    -0.204 F 
ENDBRANCH   1  11
BRANCH   3  17
ATOM     17  N   UNL     1       6.061   3.529  -0.262  0.00  0.00    +0.063 N 
ATOM     18  O   UNL     1       6.535   3.170  -1.315  0.00  0.00    -0.126 OA
ATOM     19  O   UNL     1       6.653   3.320   0.770  0.00  0.00    -0.126 OA
ENDBRANCH   3  17
BRANCH   4  20
ATOM     20  N   UNL     1       5.839   6.369  -0.453  0.00  0.00    -0.322 N 
ATOM     21  H   UNL     1       6.705   5.933  -0.471  0.00  0.00    +0.148 HD
BRANCH  20  22
ATOM     22  C   UNL     1       5.752   7.828  -0.552  0.00  0.00    +0.034 C 
ATOM     23  C   UNL     1       5.073   8.385   0.701  0.00  0.00    +0.029 C 
ATOM     24  C   UNL     1       4.982   9.909   0.597  0.00  0.00    -0.008 C 
ATOM     25  C   UNL     1       6.389  10.497   0.475  0.00  0.00    +0.007 C 
ATOM     26  C   UNL     1       7.068   9.940  -0.778  0.00  0.00    -0.008 C 
ATOM     27  C   UNL     1       7.159   8.416  -0.674  0.00  0.00    +0.029 C 
ATOM     28  C   UNL     1       6.248  10.319  -2.013  0.00  0.00    +0.007 C 
ATOM     29  C   UNL     1       4.841   9.731  -1.891  0.00  0.00    -0.008 C 
ATOM     30  C   UNL     1       4.162  10.288  -0.638  0.00  0.00    +0.007 C 
ATOM     31  C   UNL     1       4.932   8.207  -1.787  0.00  0.00    +0.029 C 
ENDBRANCH  20  22
ENDBRANCH   4  20
TORSDOF 4
