REMARK  Name = ZINC43223293
REMARK  8 active torsions:
REMARK  status: ('A' for Active; 'I' for Inactive)
REMARK    1  A    between atoms: C_4  and  C_7
REMARK    2  A    between atoms: C_7  and  C_8
REMARK    3  A    between atoms: C_8  and  C_10
REMARK    4  A    between atoms: C_8  and  N_16
REMARK    5  A    between atoms: C_17  and  C_19
REMARK    6  A    between atoms: C_24  and  C_26
REMARK    7  A    between atoms: N_28  and  C_29
REMARK    8  A    between atoms: C_29  and  C_30
REMARK                            x       y       z     vdW  Elec       q    Type
REMARK                         _______ _______ _______ _____ _____    ______ ____
ROOT
ATOM      1  N   UNL     1       3.229  -1.870   2.059  0.00  0.00    -0.308 N 
ATOM      2  C   UNL     1       3.109  -1.856   3.402  0.00  0.00    +0.215 C 
ATOM      3  O   UNL     1       3.781  -1.094   4.063  0.00  0.00    -0.276 OA
ATOM      4  H   UNL     1       2.691  -2.480   1.530  0.00  0.00    +0.149 HD
ENDROOT
BRANCH   2   5
ATOM      5  C   UNL     1       2.139  -2.789   4.081  0.00  0.00    +0.068 C 
ATOM      6  C   UNL     1       2.540  -4.258   3.826  0.00  0.00    -0.069 C 
ATOM      7  N   UNL     1       3.350  -4.636   5.013  0.00  0.00    +0.380 N 
ATOM      8  C   UNL     1       2.649  -3.992   6.153  0.00  0.00    -0.069 C 
ATOM      9  C   UNL     1       2.209  -2.612   5.612  0.00  0.00    +0.068 C 
ATOM     10  H   UNL     1       3.361  -5.639   5.127  0.00  0.00    -0.086 HD
ATOM     11  H   UNL     1       4.289  -4.279   4.928  0.00  0.00    -0.086 HD
BRANCH   9  12
ATOM     12  C   UNL     1       0.855  -2.241   6.158  0.00  0.00    +0.215 C 
ATOM     13  O   UNL     1      -0.091  -2.124   5.407  0.00  0.00    -0.276 OA
ATOM     14  N   UNL     1       0.694  -2.039   7.481  0.00  0.00    -0.313 N 
ATOM     15  H   UNL     1       1.450  -2.132   8.081  0.00  0.00    +0.149 HD
BRANCH  14  16
ATOM     16  C   UNL     1      -0.623  -1.678   8.012  0.00  0.00    +0.135 C 
BRANCH  16  17
ATOM     17  C   UNL     1      -0.532  -1.508   9.530  0.00  0.00    +0.135 C 
ATOM     18  C   UNL     1      -1.938  -1.247  10.113  0.00  0.00    +0.035 C 
ATOM     19  C   UNL     1      -1.648  -0.181  11.205  0.00  0.00    +0.031 C 
ATOM     20  C   UNL     1      -0.492   0.611  10.544  0.00  0.00    +0.160 C 
ATOM     21  O   UNL     1       0.286  -0.375   9.843  0.00  0.00    -0.375 OA
ENDBRANCH  16  17
ENDBRANCH  14  16
ENDBRANCH   9  12
ENDBRANCH   2   5
BRANCH   1  22
ATOM     22  C   UNL     1       4.171  -0.963   1.399  0.00  0.00    +0.107 C 
BRANCH  22  23
ATOM     23  C   UNL     1       5.543  -1.588   1.383  0.00  0.00    -0.027 A 
ATOM     24  C   UNL     1       5.683  -2.940   1.128  0.00  0.00    +0.005 A 
ATOM     25  C   UNL     1       6.941  -3.513   1.114  0.00  0.00    +0.000 A 
ATOM     26  C   UNL     1       8.058  -2.735   1.354  0.00  0.00    +0.000 A 
ATOM     27  C   UNL     1       7.917  -1.384   1.608  0.00  0.00    +0.000 A 
ATOM     28  C   UNL     1       6.660  -0.809   1.618  0.00  0.00    +0.005 A 
ENDBRANCH  22  23
BRANCH  22  29
ATOM     29  C   UNL     1       3.711  -0.707  -0.038  0.00  0.00    +0.062 C 
BRANCH  29  33
ATOM     30  C   UNL     1      -0.017   1.378   0.010  0.00  0.00    +0.000 A 
ATOM     31  C   UNL     1       1.171   2.086   0.002  0.00  0.00    +0.000 A 
ATOM     32  C   UNL     1       2.377   1.411  -0.013  0.00  0.00    +0.004 A 
ATOM     33  C   UNL     1       2.396   0.029  -0.020  0.00  0.00    -0.045 A 
ATOM     34  C   UNL     1       1.208  -0.679  -0.012  0.00  0.00    +0.004 A 
ATOM     35  C   UNL     1       0.002  -0.004   0.002  0.00  0.00    +0.000 A 
ENDBRANCH  29  33
ENDBRANCH  22  29
ENDBRANCH   1  22
TORSDOF 8
