REMARK  Name = ZINC39659295
REMARK  7 active torsions:
REMARK  status: ('A' for Active; 'I' for Inactive)
REMARK    1  A    between atoms: C_1  and  C_2
REMARK    2  A    between atoms: C_2  and  C_32
REMARK    3  A    between atoms: C_5  and  C_8
REMARK    4  A    between atoms: C_8  and  N_9
REMARK    5  A    between atoms: C_10  and  C_12
REMARK    6  A    between atoms: C_23  and  C_25
REMARK    7  A    between atoms: C_25  and  C_31
REMARK                            x       y       z     vdW  Elec       q    Type
REMARK                         _______ _______ _______ _____ _____    ______ ____
ROOT
ATOM      1  C   UNL     1       3.247  -2.242   5.684  0.00  0.00    +0.100 C 
ATOM      2  C   UNL     1       2.197  -1.668   6.662  0.00  0.00    +0.121 C 
ATOM      3  N   UNL     1       1.919  -2.776   7.606  0.00  0.00    -0.300 N 
ATOM      4  C   UNL     1       3.244  -3.399   7.842  0.00  0.00    +0.115 C 
ATOM      5  C   UNL     1       3.934  -3.375   6.464  0.00  0.00    -0.004 C 
ATOM      6  C   UNL     1       5.423  -3.079   6.624  0.00  0.00    -0.010 C 
ATOM      7  C   UNL     1       6.095  -4.247   7.351  0.00  0.00    -0.082 C 
ATOM      8  N   UNL     1       5.902  -5.482   6.582  0.00  0.00    +0.379 N 
ATOM      9  C   UNL     1       4.472  -5.809   6.512  0.00  0.00    -0.082 C 
ATOM     10  C   UNL     1       3.731  -4.707   5.750  0.00  0.00    -0.010 C 
ATOM     11  C   UNL     1       0.732  -3.135   8.132  0.00  0.00    +0.222 C 
ATOM     12  O   UNL     1      -0.283  -2.572   7.779  0.00  0.00    -0.275 OA
ATOM     13  H   UNL     1       6.262  -5.355   5.648  0.00  0.00    -0.086 HD
ATOM     14  H   UNL     1       6.397  -6.238   7.031  0.00  0.00    -0.086 HD
ENDROOT
BRANCH  11  15
ATOM     15  C   UNL     1       0.665  -4.237   9.158  0.00  0.00    +0.044 C 
ATOM     16  C   UNL     1       1.049  -5.566   8.506  0.00  0.00    +0.016 C 
ATOM     17  C   UNL     1       0.079  -5.873   7.364  0.00  0.00    +0.001 C 
ATOM     18  C   UNL     1      -1.345  -5.969   7.916  0.00  0.00    +0.000 C 
ATOM     19  C   UNL     1      -1.730  -4.640   8.569  0.00  0.00    +0.001 C 
ATOM     20  C   UNL     1      -0.759  -4.333   9.711  0.00  0.00    +0.016 C 
ATOM     21  C   UNL     1       1.635  -3.929  10.300  0.00  0.00    +0.021 C 
ENDBRANCH  11  15
BRANCH   1  23
ATOM     22  N   UNL     1       3.225  -2.786   3.271  0.00  0.00    -0.312 N 
ATOM     23  C   UNL     1       2.574  -2.787   4.451  0.00  0.00    +0.218 C 
ATOM     24  O   UNL     1       1.445  -3.227   4.521  0.00  0.00    -0.275 OA
ATOM     25  H   UNL     1       4.127  -2.434   3.216  0.00  0.00    +0.149 HD
BRANCH  22  26
ATOM     26  C   UNL     1       2.571  -3.316   2.073  0.00  0.00    +0.138 C 
BRANCH  26  31
ATOM     27  C   UNL     1       6.286  -4.367  -0.739  0.00  0.00    +0.074 C 
ATOM     28  C   UNL     1       4.847  -4.671  -0.318  0.00  0.00    +0.165 C 
ATOM     29  O   UNL     1       3.933  -4.058  -1.242  0.00  0.00    -0.347 OA
ATOM     30  C   UNL     1       2.812  -3.634  -0.428  0.00  0.00    +0.196 C 
ATOM     31  C   UNL     1       3.520  -3.198   0.879  0.00  0.00    +0.164 C 
ATOM     32  O   UNL     1       4.606  -4.139   0.992  0.00  0.00    -0.342 OA
ATOM     33  C   UNL     1       4.624  -6.185  -0.307  0.00  0.00    +0.074 C 
ENDBRANCH  26  31
ENDBRANCH  22  26
ENDBRANCH   1  23
TORSDOF 4
