REMARK  Name = ZINC06134456
REMARK  13 active torsions:
REMARK  status: ('A' for Active; 'I' for Inactive)
REMARK    1  A    between atoms: C_1  and  C_2
REMARK    2  A    between atoms: C_2  and  C_3
REMARK    3  A    between atoms: C_2  and  C_4
REMARK    4  A    between atoms: C_4  and  C_5
REMARK    5  A    between atoms: C_5  and  N_6
REMARK    6  A    between atoms: C_7  and  C_9
REMARK    7  A    between atoms: C_9  and  C_11
REMARK    8  A    between atoms: C_9  and  N_18
REMARK    9  A    between atoms: N_18  and  C_19
REMARK   10  A    between atoms: C_19  and  C_20
REMARK   11  A    between atoms: C_25  and  C_27
REMARK   12  A    between atoms: C_28  and  N_35
REMARK   13  A    between atoms: C_29  and  C_32
REMARK                            x       y       z     vdW  Elec       q    Type
REMARK                         _______ _______ _______ _____ _____    ______ ____
ROOT
ATOM      1  N   UNL     1      -4.374   2.148   0.214  0.00  0.00    -0.277 N 
ATOM      2  C   UNL     1      -5.675   2.455   0.382  0.00  0.00    +0.258 C 
ATOM      3  O   UNL     1      -6.515   1.575   0.370  0.00  0.00    -0.269 OA
ENDROOT
BRANCH   2   4
ATOM      4  C   UNL     1      -6.078   3.849   0.579  0.00  0.00    +0.115 A 
ATOM      5  C   UNL     1      -7.335   4.371   0.893  0.00  0.00    +0.076 A 
ATOM      6  C   UNL     1      -7.324   5.762   1.000  0.00  0.00    +0.155 A 
ATOM      7  N   UNL     1      -6.198   6.413   0.806  0.00  0.00    -0.203 NA
ATOM      8  S   UNL     1      -5.096   5.332   0.490  0.00  0.00    +0.019 S 
BRANCH   6   9
ATOM      9  C   UNL     1      -8.561   6.494   1.325  0.00  0.00    +0.262 C 
ATOM     10  O   UNL     1      -9.599   5.885   1.503  0.00  0.00    -0.269 OA
ATOM     11  N   UNL     1      -8.543   7.838   1.427  0.00  0.00    -0.324 N 
ATOM     12  H   UNL     1      -7.715   8.324   1.285  0.00  0.00    +0.145 HD
ATOM     13  H   UNL     1      -9.357   8.319   1.641  0.00  0.00    +0.145 HD
ENDBRANCH   6   9
BRANCH   5  14
ATOM     14  N   UNL     1      -8.469   3.593   1.078  0.00  0.00    -0.355 N 
ATOM     15  H   UNL     1      -8.415   2.628   0.990  0.00  0.00    +0.142 HD
ATOM     16  H   UNL     1      -9.316   4.013   1.295  0.00  0.00    +0.142 HD
ENDBRANCH   5  14
ENDBRANCH   2   4
BRANCH   1  17
ATOM     17  C   UNL     1      -3.979   0.766  -0.072  0.00  0.00    +0.193 C 
BRANCH  17  18
ATOM     18  C   UNL     1      -3.752   0.604  -1.553  0.00  0.00    -0.018 A 
ATOM     19  C   UNL     1      -3.018   1.548  -2.247  0.00  0.00    +0.007 A 
ATOM     20  C   UNL     1      -2.805   1.397  -3.604  0.00  0.00    +0.020 A 
ATOM     21  C   UNL     1      -3.337   0.307  -4.270  0.00  0.00    +0.041 A 
ATOM     22  C   UNL     1      -4.076  -0.634  -3.576  0.00  0.00    +0.020 A 
ATOM     23  C   UNL     1      -4.284  -0.485  -2.218  0.00  0.00    +0.007 A 
ATOM     24 CL   UNL     1      -3.076   0.120  -5.976  0.00  0.00    -0.084 Cl
ENDBRANCH  17  18
BRANCH  17  26
ATOM     25  N   UNL     1      -2.542  -0.771   1.229  0.00  0.00    -0.313 N 
ATOM     26  C   UNL     1      -2.707   0.444   0.669  0.00  0.00    +0.238 C 
ATOM     27  O   UNL     1      -1.831   1.278   0.762  0.00  0.00    -0.273 OA
ATOM     28  H   UNL     1      -3.243  -1.438   1.155  0.00  0.00    +0.149 HD
BRANCH  25  29
ATOM     29  C   UNL     1      -1.303  -1.086   1.944  0.00  0.00    +0.104 C 
BRANCH  29  30
ATOM     30  C   UNL     1      -1.370  -2.520   2.473  0.00  0.00    +0.022 C 
BRANCH  30  32
ATOM     31  C   UNL     1       0.035  -1.965   4.463  0.00  0.00    +0.007 C 
ATOM     32  C   UNL     1      -0.076  -2.849   3.219  0.00  0.00    -0.016 C 
ATOM     33  C   UNL     1      -0.089  -4.321   3.640  0.00  0.00    +0.007 C 
ENDBRANCH  30  32
ENDBRANCH  29  30
ENDBRANCH  25  29
ENDBRANCH  17  26
ENDBRANCH   1  17
BRANCH   1  34
ATOM     34  C   UNL     1      -3.354   3.195   0.316  0.00  0.00    +0.151 C 
BRANCH  34  35
ATOM     35  C   UNL     1      -3.017   3.427   1.766  0.00  0.00    +0.007 A 
ATOM     36  C   UNL     1      -1.800   3.476   2.362  0.00  0.00    +0.013 A 
ATOM     37  C   UNL     1      -1.730   3.706   3.723  0.00  0.00    +0.008 A 
ATOM     38  C   UNL     1      -2.879   3.875   4.422  0.00  0.00    +0.045 A 
ATOM     39  S   UNL     1      -4.115   3.717   3.144  0.00  0.00    -0.100 S 
ENDBRANCH  34  35
ENDBRANCH   1  34
TORSDOF 11
