REMARK  Name = ZINC39678818
REMARK  10 active torsions:
REMARK  status: ('A' for Active; 'I' for Inactive)
REMARK    1  A    between atoms: C_1  and  C_2
REMARK    2  A    between atoms: C_2  and  C_3
REMARK    3  A    between atoms: C_2  and  O_4
REMARK    4  A    between atoms: O_4  and  C_5
REMARK    5  A    between atoms: C_5  and  C_7
REMARK    6  A    between atoms: C_7  and  N_8
REMARK    7  A    between atoms: C_9  and  C_11
REMARK    8  A    between atoms: C_22  and  C_24
REMARK    9  A    between atoms: C_27  and  O_31
REMARK   10  A    between atoms: O_31  and  C_32
REMARK                            x       y       z     vdW  Elec       q    Type
REMARK                         _______ _______ _______ _____ _____    ______ ____
ROOT
ATOM      1  C   UNL     1      -5.615  -1.417  -4.023  0.00  0.00    +0.100 C 
ATOM      2  C   UNL     1      -5.601  -0.196  -4.970  0.00  0.00    +0.121 C 
ATOM      3  N   UNL     1      -6.752  -0.412  -5.877  0.00  0.00    -0.296 N 
ATOM      4  C   UNL     1      -7.814  -0.963  -5.001  0.00  0.00    +0.115 C 
ATOM      5  C   UNL     1      -7.070  -1.916  -4.046  0.00  0.00    -0.004 C 
ATOM      6  C   UNL     1      -7.676  -1.841  -2.648  0.00  0.00    -0.010 C 
ATOM      7  C   UNL     1      -9.102  -2.397  -2.684  0.00  0.00    -0.082 C 
ATOM      8  N   UNL     1      -9.075  -3.788  -3.153  0.00  0.00    +0.379 N 
ATOM      9  C   UNL     1      -8.577  -3.842  -4.533  0.00  0.00    -0.082 C 
ATOM     10  C   UNL     1      -7.129  -3.346  -4.575  0.00  0.00    -0.010 C 
ATOM     11  C   UNL     1      -6.820  -0.164  -7.200  0.00  0.00    +0.247 C 
ATOM     12  O   UNL     1      -5.821   0.169  -7.808  0.00  0.00    -0.270 OA
ATOM     13  H   UNL     1      -8.468  -4.331  -2.557  0.00  0.00    -0.086 HD
ATOM     14  H   UNL     1     -10.007  -4.172  -3.118  0.00  0.00    -0.086 HD
ENDROOT
BRANCH  11  15
ATOM     15  C   UNL     1      -8.106  -0.297  -7.912  0.00  0.00    +0.040 A 
ATOM     16  C   UNL     1      -9.308  -0.245  -7.201  0.00  0.00    +0.036 A 
ATOM     17  C   UNL     1     -10.507  -0.369  -7.869  0.00  0.00    +0.085 A 
ATOM     18  C   UNL     1     -10.522  -0.547  -9.248  0.00  0.00    +0.157 A 
ATOM     19  C   UNL     1      -9.328  -0.600  -9.958  0.00  0.00    +0.085 A 
ATOM     20  C   UNL     1      -8.125  -0.469  -9.298  0.00  0.00    +0.036 A 
ATOM     21 CL   UNL     1      -9.353  -0.822 -11.680  0.00  0.00    -0.080 Cl
ATOM     22 CL   UNL     1     -12.001  -0.305  -6.987  0.00  0.00    -0.080 Cl
BRANCH  18  23
ATOM     23  O   UNL     1     -11.705  -0.670  -9.902  0.00  0.00    -0.492 OA
ATOM     24  C   UNL     1     -12.312   0.533 -10.377  0.00  0.00    +0.277 C 
ENDBRANCH  18  23
ENDBRANCH  11  15
BRANCH   1  26
ATOM     25  N   UNL     1      -4.597  -1.878  -1.817  0.00  0.00    -0.305 N 
ATOM     26  C   UNL     1      -5.224  -1.003  -2.628  0.00  0.00    +0.219 C 
ATOM     27  O   UNL     1      -5.473   0.117  -2.235  0.00  0.00    -0.275 OA
ATOM     28  H   UNL     1      -4.397  -2.774  -2.131  0.00  0.00    +0.149 HD
BRANCH  25  29
ATOM     29  C   UNL     1      -4.216  -1.476  -0.461  0.00  0.00    +0.224 C 
BRANCH  29  30
ATOM     30  C   UNL     1      -3.535  -2.628   0.232  0.00  0.00    +0.325 C 
ATOM     31  O   UNL     1      -3.383  -3.677  -0.348  0.00  0.00    -0.249 OA
BRANCH  30  32
ATOM     32  O   UNL     1      -3.097  -2.489   1.493  0.00  0.00    -0.461 OA
BRANCH  32  34
ATOM     33  C   UNL     1      -0.958  -3.569   1.807  0.00  0.00    +0.052 C 
ATOM     34  C   UNL     1      -2.461  -3.622   2.088  0.00  0.00    +0.170 C 
ATOM     35  C   UNL     1      -2.698  -3.605   3.600  0.00  0.00    +0.052 C 
ENDBRANCH  32  34
ENDBRANCH  30  32
ENDBRANCH  29  30
ENDBRANCH  25  29
ENDBRANCH   1  26
TORSDOF 7
