REMARK  Name = ZINC39696284
REMARK  9 active torsions:
REMARK  status: ('A' for Active; 'I' for Inactive)
REMARK    1  A    between atoms: C_1  and  C_2
REMARK    2  A    between atoms: C_2  and  C_3
REMARK    3  A    between atoms: C_6  and  C_9
REMARK    4  A    between atoms: C_9  and  C_11
REMARK    5  A    between atoms: C_9  and  N_12
REMARK    6  A    between atoms: C_13  and  C_15
REMARK    7  A    between atoms: C_26  and  C_28
REMARK    8  A    between atoms: C_29  and  C_39
REMARK    9  A    between atoms: C_32  and  C_33
REMARK                            x       y       z     vdW  Elec       q    Type
REMARK                         _______ _______ _______ _____ _____    ______ ____
ROOT
ATOM      1  C   UNL     1       1.741  -4.917   6.817  0.00  0.00    +0.100 C 
ATOM      2  C   UNL     1       0.926  -5.722   5.781  0.00  0.00    +0.121 C 
ATOM      3  N   UNL     1       1.752  -6.921   5.503  0.00  0.00    -0.296 N 
ATOM      4  C   UNL     1       2.308  -7.299   6.824  0.00  0.00    +0.115 C 
ATOM      5  C   UNL     1       2.645  -5.956   7.502  0.00  0.00    -0.004 C 
ATOM      6  C   UNL     1       2.333  -6.025   8.994  0.00  0.00    -0.010 C 
ATOM      7  C   UNL     1       3.284  -7.022   9.664  0.00  0.00    -0.082 C 
ATOM      8  N   UNL     1       4.672  -6.595   9.452  0.00  0.00    +0.379 N 
ATOM      9  C   UNL     1       4.991  -6.621   8.020  0.00  0.00    -0.082 C 
ATOM     10  C   UNL     1       4.113  -5.607   7.281  0.00  0.00    -0.010 C 
ATOM     11  C   UNL     1       1.952  -7.529   4.317  0.00  0.00    +0.252 C 
ATOM     12  O   UNL     1       2.664  -8.513   4.252  0.00  0.00    -0.270 OA
ATOM     13  H   UNL     1       4.792  -5.657   9.805  0.00  0.00    -0.086 HD
ATOM     14  H   UNL     1       5.293  -7.219   9.945  0.00  0.00    -0.086 HD
ENDROOT
BRANCH  11  15
ATOM     15  C   UNL     1       1.309  -7.003   3.101  0.00  0.00    +0.106 A 
ATOM     16  C   UNL     1       1.825  -6.075   2.244  0.00  0.00    +0.147 A 
ATOM     17  O   UNL     1       0.938  -5.867   1.269  0.00  0.00    -0.359 OA
ATOM     18  N   UNL     1      -0.199  -6.679   1.484  0.00  0.00    -0.077 NA
ATOM     19  C   UNL     1      -0.010  -7.380   2.573  0.00  0.00    +0.126 A 
ATOM     20  C   UNL     1       3.167  -5.402   2.376  0.00  0.00    +0.090 C 
BRANCH  19  21
ATOM     21  C   UNL     1      -0.950  -8.365   3.164  0.00  0.00    +0.004 A 
ATOM     22  C   UNL     1      -0.460  -9.500   3.808  0.00  0.00    +0.010 A 
ATOM     23  C   UNL     1      -1.338 -10.412   4.356  0.00  0.00    +0.001 A 
ATOM     24  C   UNL     1      -2.703 -10.202   4.267  0.00  0.00    +0.000 A 
ATOM     25  C   UNL     1      -3.194  -9.078   3.629  0.00  0.00    +0.001 A 
ATOM     26  C   UNL     1      -2.325  -8.155   3.083  0.00  0.00    +0.010 A 
ENDBRANCH  19  21
ENDBRANCH  11  15
BRANCH   1  28
ATOM     27  N   UNL     1       2.968  -2.769   6.801  0.00  0.00    -0.308 N 
ATOM     28  C   UNL     1       2.577  -3.869   6.128  0.00  0.00    +0.219 C 
ATOM     29  O   UNL     1       2.897  -4.016   4.967  0.00  0.00    -0.275 OA
ATOM     30  H   UNL     1       2.712  -2.652   7.729  0.00  0.00    +0.149 HD
BRANCH  27  31
ATOM     31  C   UNL     1       3.780  -1.750   6.130  0.00  0.00    +0.100 C 
ATOM     32  C   UNL     1       5.256  -2.143   6.207  0.00  0.00    +0.033 C 
BRANCH  31  36
ATOM     33  C   UNL     1       3.205   2.020   8.055  0.00  0.00    -0.048 A 
ATOM     34  C   UNL     1       3.296   1.954   6.677  0.00  0.00    +0.004 A 
ATOM     35  C   UNL     1       3.482   0.734   6.054  0.00  0.00    +0.006 A 
ATOM     36  C   UNL     1       3.578  -0.420   6.809  0.00  0.00    -0.027 A 
ATOM     37  C   UNL     1       3.487  -0.354   8.187  0.00  0.00    +0.006 A 
ATOM     38  C   UNL     1       3.305   0.866   8.810  0.00  0.00    +0.004 A 
BRANCH  33  40
ATOM     39  C   UNL     1       4.363   3.977   9.044  0.00  0.00    +0.009 C 
ATOM     40  C   UNL     1       3.002   3.350   8.734  0.00  0.00    +0.032 C 
ENDBRANCH  33  40
ENDBRANCH  31  36
ENDBRANCH  27  31
ENDBRANCH   1  28
TORSDOF 6
