REMARK  Name = ZINC10243813
REMARK  6 active torsions:
REMARK  status: ('A' for Active; 'I' for Inactive)
REMARK    1  A    between atoms: C_1  and  C_2
REMARK    2  A    between atoms: C_7  and  N_8
REMARK    3  A    between atoms: C_22  and  S_23
REMARK    4  A    between atoms: S_23  and  C_24
REMARK    5  A    between atoms: C_24  and  C_25
REMARK    6  A    between atoms: C_31  and  C_33
REMARK                            x       y       z     vdW  Elec       q    Type
REMARK                         _______ _______ _______ _____ _____    ______ ____
ROOT
ATOM      1  N   UNL     1      -0.017   1.397   0.010  0.00  0.00    -0.254 N 
ATOM      2  C   UNL     1      -1.197   2.052   0.019  0.00  0.00    +0.283 A 
ATOM      3  O   UNL     1      -2.251   1.437   0.021  0.00  0.00    -0.265 OA
ATOM      4  C   UNL     1      -1.187   3.462   0.031  0.00  0.00    +0.132 A 
ATOM      5  C   UNL     1       0.043   4.118   0.022  0.00  0.00    +0.104 A 
ATOM      6  C   UNL     1      -0.252   5.558   0.031  0.00  0.00    +0.026 A 
ATOM      7  C   UNL     1       0.547   6.702   0.029  0.00  0.00    +0.012 A 
ATOM      8  C   UNL     1      -0.035   7.939   0.039  0.00  0.00    +0.001 A 
ATOM      9  C   UNL     1      -1.417   8.066   0.052  0.00  0.00    +0.002 A 
ATOM     10  C   UNL     1      -2.224   6.950   0.055  0.00  0.00    +0.026 A 
ATOM     11  C   UNL     1      -1.652   5.680   0.045  0.00  0.00    +0.049 A 
ATOM     12  N   UNL     1      -2.196   4.413   0.045  0.00  0.00    -0.349 N 
ATOM     13  H   UNL     1      -3.145   4.216   0.053  0.00  0.00    +0.166 HD
ATOM     14  N   UNL     1       1.181   3.406   0.008  0.00  0.00    -0.221 NA
ATOM     15  C   UNL     1       1.159   2.092   0.002  0.00  0.00    +0.177 A 
ENDROOT
BRANCH   1  22
ATOM     16  C   UNL     1      -0.024   0.065  -2.506  0.00  0.00    +0.046 C 
ATOM     17  C   UNL     1       0.000  -0.693  -1.203  0.00  0.00    -0.026 A 
ATOM     18  C   UNL     1       0.019  -2.074  -1.208  0.00  0.00    +0.005 A 
ATOM     19  C   UNL     1       0.041  -2.771  -0.013  0.00  0.00    +0.000 A 
ATOM     20  C   UNL     1       0.042  -2.087   1.189  0.00  0.00    +0.002 A 
ATOM     21  C   UNL     1       0.029  -0.706   1.200  0.00  0.00    +0.026 A 
ATOM     22  C   UNL     1       0.002  -0.004   0.002  0.00  0.00    +0.055 A 
ENDBRANCH   1  22
BRANCH  15  23
ATOM     23  S   UNL     1       2.682   1.206  -0.016  0.00  0.00    -0.078 S 
BRANCH  23  24
ATOM     24  C   UNL     1       3.850   2.589  -0.020  0.00  0.00    +0.173 C 
BRANCH  24  25
ATOM     25  C   UNL     1       5.259   2.056  -0.036  0.00  0.00    +0.229 C 
ATOM     26  O   UNL     1       5.455   0.859  -0.044  0.00  0.00    -0.275 OA
ATOM     27  N   UNL     1       6.303   2.909  -0.042  0.00  0.00    -0.263 N 
ATOM     28  C   UNL     1       7.603   2.418  -0.056  0.00  0.00    +0.188 A 
ATOM     29  N   UNL     1       8.031   1.167  -0.067  0.00  0.00    -0.126 NA
ATOM     30  N   UNL     1       9.261   0.882  -0.080  0.00  0.00    -0.145 NA
ATOM     31  C   UNL     1      10.171   1.836  -0.083  0.00  0.00    +0.101 A 
ATOM     32  S   UNL     1       9.114   3.279  -0.073  0.00  0.00    -0.036 S 
ATOM     33  C   UNL     1      11.675   1.738  -0.097  0.00  0.00    +0.075 C 
ATOM     34  H   UNL     1       6.146   3.867  -0.035  0.00  0.00    +0.157 HD
ENDBRANCH  24  25
ENDBRANCH  23  24
ENDBRANCH  15  23
TORSDOF 4
