REMARK  Name = ZINC64109125
REMARK  7 active torsions:
REMARK  status: ('A' for Active; 'I' for Inactive)
REMARK    1  A    between atoms: C_1  and  C_2
REMARK    2  A    between atoms: C_5  and  O_9
REMARK    3  A    between atoms: O_9  and  C_10
REMARK    4  A    between atoms: C_10  and  C_12
REMARK    5  A    between atoms: C_10  and  C_13
REMARK    6  A    between atoms: N_15  and  N_16
REMARK    7  A    between atoms: C_17  and  C_19
REMARK                            x       y       z     vdW  Elec       q    Type
REMARK                         _______ _______ _______ _____ _____    ______ ____
ROOT
ATOM      1  C   UNL     1      -0.840  -6.049  -1.146  0.00  0.00    +0.270 C 
ATOM      2  O   UNL     1      -1.266  -6.376  -0.059  0.00  0.00    -0.270 OA
ATOM      3  N   UNL     1      -1.071  -6.827  -2.222  0.00  0.00    -0.231 N 
ATOM      4  H   UNL     1      -0.731  -6.565  -3.092  0.00  0.00    +0.173 HD
ENDROOT
BRANCH   3   5
ATOM      5  N   UNL     1      -1.803  -8.013  -2.084  0.00  0.00    -0.230 N 
ATOM      6  C   UNL     1      -2.034  -8.791  -3.160  0.00  0.00    +0.258 C 
ATOM      7  O   UNL     1      -1.607  -8.463  -4.251  0.00  0.00    -0.269 OA
ATOM      8  H   UNL     1      -2.144  -8.275  -1.215  0.00  0.00    +0.173 HD
BRANCH   6   9
ATOM      9  C   UNL     1      -2.801 -10.033  -3.016  0.00  0.00    +0.044 C 
ATOM     10  C   UNL     1      -3.117 -10.936  -4.008  0.00  0.00    +0.008 A 
ATOM     11  C   UNL     1      -2.837 -10.978  -5.397  0.00  0.00    +0.010 A 
ATOM     12  C   UNL     1      -3.282 -12.008  -6.149  0.00  0.00    +0.001 A 
ATOM     13  C   UNL     1      -4.028 -13.068  -5.610  0.00  0.00    +0.002 A 
ATOM     14  C   UNL     1      -4.349 -13.123  -4.300  0.00  0.00    +0.026 A 
ATOM     15  C   UNL     1      -3.903 -12.041  -3.408  0.00  0.00    +0.043 A 
ATOM     16  N   UNL     1      -4.067 -11.844  -2.130  0.00  0.00    -0.380 N 
ATOM     17  C   UNL     1      -3.403 -10.593  -1.747  0.00  0.00    +0.154 C 
ATOM     18  H   UNL     1      -4.548 -12.432  -1.527  0.00  0.00    +0.160 HD
ENDBRANCH   6   9
ENDBRANCH   3   5
BRANCH   1  19
ATOM     19  C   UNL     1      -0.052  -4.772  -1.294  0.00  0.00    +0.257 C 
ATOM     20  C   UNL     1       1.346  -5.095  -1.824  0.00  0.00    +0.062 C 
BRANCH  19  21
ATOM     21  O   UNL     1       0.057  -4.130  -0.022  0.00  0.00    -0.479 OA
BRANCH  21  26
ATOM     22  C   UNL     1       0.865   1.445  -0.036  0.00  0.00    +0.044 C 
ATOM     23  C   UNL     1       0.649  -0.046  -0.032  0.00  0.00    -0.049 A 
ATOM     24  C   UNL     1       0.648  -0.747  -1.224  0.00  0.00    +0.007 A 
ATOM     25  C   UNL     1       0.450  -2.114  -1.224  0.00  0.00    +0.047 A 
ATOM     26  C   UNL     1       0.252  -2.785  -0.025  0.00  0.00    +0.136 A 
ATOM     27  C   UNL     1       0.254  -2.080   1.170  0.00  0.00    +0.060 A 
ATOM     28  C   UNL     1       0.458  -0.713   1.164  0.00  0.00    +0.022 A 
ATOM     29 BR   UNL     1      -0.015  -2.990   2.806  0.00  0.00    -0.047 Br
ENDBRANCH  21  26
ENDBRANCH  19  21
ENDBRANCH   1  19
TORSDOF 5
