REMARK  Name = ZINC38547565
REMARK  7 active torsions:
REMARK  status: ('A' for Active; 'I' for Inactive)
REMARK    1  A    between atoms: C_1  and  C_2
REMARK    2  A    between atoms: C_3  and  C_31
REMARK    3  A    between atoms: C_5  and  N_23
REMARK    4  A    between atoms: C_6  and  C_7
REMARK    5  A    between atoms: C_7  and  C_9
REMARK    6  A    between atoms: C_7  and  N_16
REMARK    7  A    between atoms: C_24  and  C_26
REMARK                            x       y       z     vdW  Elec       q    Type
REMARK                         _______ _______ _______ _____ _____    ______ ____
ROOT
ATOM      1  C   UNL     1       0.244   0.014   2.501  0.00  0.00    +0.136 C 
ENDROOT
BRANCH   1   2
ATOM      2  N   UNL     1       1.397  -0.436   3.285  0.00  0.00    -0.320 N 
ATOM      3  C   UNL     1       1.996   0.424   4.198  0.00  0.00    +0.097 A 
ATOM      4  C   UNL     1       1.491   1.710   4.367  0.00  0.00    +0.041 A 
ATOM      5  C   UNL     1       2.096   2.556   5.278  0.00  0.00    +0.005 A 
ATOM      6  C   UNL     1       3.190   2.086   5.994  0.00  0.00    +0.018 A 
ATOM      7  C   UNL     1       3.638   0.799   5.776  0.00  0.00    +0.084 A 
ATOM      8  N   UNL     1       3.038   0.012   4.903  0.00  0.00    -0.350 N 
ATOM      9  H   UNL     1       1.743  -1.335   3.167  0.00  0.00    +0.148 HD
ATOM     10  H   UNL     1       3.370  -0.890   4.772  0.00  0.00    +0.166 HD
ENDBRANCH   1   2
BRANCH   1  16
ATOM     11  C   UNL     1       0.154   1.361  -0.081  0.00  0.00    +0.045 C 
ATOM     12  C   UNL     1       0.121  -0.144  -0.002  0.00  0.00    -0.033 A 
ATOM     13  C   UNL     1       0.054  -0.889  -1.131  0.00  0.00    -0.008 A 
ATOM     14  S   UNL     1       0.042  -2.551  -0.480  0.00  0.00    -0.078 S 
ATOM     15  C   UNL     1       0.127  -2.144   1.256  0.00  0.00    +0.078 A 
ATOM     16  C   UNL     1       0.164  -0.782   1.224  0.00  0.00    +0.009 A 
ATOM     17  C   UNL     1       0.003  -0.433  -2.566  0.00  0.00    +0.052 C 
BRANCH  15  18
ATOM     18  N   UNL     1       0.153  -2.998   2.360  0.00  0.00    -0.273 N 
ATOM     19  C   UNL     1       0.113  -4.334   2.180  0.00  0.00    +0.284 C 
ATOM     20  O   UNL     1       0.053  -4.794   1.055  0.00  0.00    -0.266 OA
ATOM     21  H   UNL     1       0.200  -2.631   3.257  0.00  0.00    +0.156 HD
BRANCH  19  22
ATOM     22  C   UNL     1       0.141  -5.231   3.339  0.00  0.00    +0.189 A 
ATOM     23  C   UNL     1       0.111  -6.596   3.298  0.00  0.00    +0.054 A 
ATOM     24  C   UNL     1       0.155  -7.040   4.629  0.00  0.00    +0.042 A 
ATOM     25  C   UNL     1       0.209  -5.941   5.414  0.00  0.00    +0.196 A 
ATOM     26  O   UNL     1       0.206  -4.853   4.633  0.00  0.00    -0.458 OA
ENDBRANCH  19  22
ENDBRANCH  15  18
ENDBRANCH   1  16
BRANCH   1  27
ATOM     27  C   UNL     1      -1.017  -0.190   3.301  0.00  0.00    -0.004 A 
ATOM     28  C   UNL     1      -1.019  -1.054   4.380  0.00  0.00    +0.007 A 
ATOM     29  C   UNL     1      -2.176  -1.241   5.113  0.00  0.00    +0.000 A 
ATOM     30  C   UNL     1      -3.331  -0.564   4.768  0.00  0.00    +0.001 A 
ATOM     31  C   UNL     1      -3.330   0.300   3.689  0.00  0.00    +0.020 A 
ATOM     32  C   UNL     1      -2.171   0.492   2.958  0.00  0.00    +0.046 A 
ATOM     33 CL   UNL     1      -2.167   1.582   1.607  0.00  0.00    -0.083 Cl
ENDBRANCH   1  27
TORSDOF 5
