REMARK  Name = ZINC35745626
REMARK  14 active torsions:
REMARK  status: ('A' for Active; 'I' for Inactive)
REMARK    1  A    between atoms: C_1  and  C_2
REMARK    2  A    between atoms: C_2  and  C_3
REMARK    3  A    between atoms: C_2  and  C_4
REMARK    4  A    between atoms: C_4  and  O_5
REMARK    5  A    between atoms: O_5  and  C_6
REMARK    6  A    between atoms: C_6  and  C_7
REMARK    7  A    between atoms: C_7  and  C_9
REMARK    8  A    between atoms: C_7  and  O_35
REMARK    9  A    between atoms: C_9  and  N_10
REMARK   10  A    between atoms: N_10  and  C_11
REMARK   11  A    between atoms: N_10  and  C_17
REMARK   12  A    between atoms: C_11  and  C_12
REMARK   13  A    between atoms: C_17  and  C_18
REMARK   14  A    between atoms: C_24  and  C_29
REMARK                            x       y       z     vdW  Elec       q    Type
REMARK                         _______ _______ _______ _____ _____    ______ ____
ROOT
ATOM      1  N   UNL     1      -3.720  -6.154  -0.462  0.00  0.00    +0.391 N 
ATOM      2  H   UNL     1      -3.252  -6.604   0.311  0.00  0.00    -0.080 HD
ENDROOT
BRANCH   1   3
ATOM      3  C   UNL     1      -3.915  -4.731  -0.155  0.00  0.00    -0.044 C 
BRANCH   3   4
ATOM      4  C   UNL     1      -4.596  -4.592   1.208  0.00  0.00    +0.124 C 
BRANCH   4   5
ATOM      5  O   UNL     1      -5.939  -5.073   1.120  0.00  0.00    -0.391 OA
ATOM      6  H   UNL     1      -6.486  -4.600   0.478  0.00  0.00    +0.210 HD
ENDBRANCH   4   5
BRANCH   4   7
ATOM      7  C   UNL     1      -4.609  -3.119   1.624  0.00  0.00    +0.189 C 
BRANCH   7   8
ATOM      8  O   UNL     1      -5.139  -3.002   2.946  0.00  0.00    -0.377 OA
BRANCH   8   9
ATOM      9  C   UNL     1      -5.195  -1.660   3.433  0.00  0.00    +0.163 C 
BRANCH   9  11
ATOM     10  C   UNL     1      -5.720  -0.236   5.417  0.00  0.00    +0.009 C 
ATOM     11  C   UNL     1      -5.776  -1.655   4.848  0.00  0.00    +0.009 C 
ATOM     12  C   UNL     1      -7.229  -2.131   4.805  0.00  0.00    +0.009 C 
ENDBRANCH   9  11
ENDBRANCH   8   9
ENDBRANCH   7   8
ENDBRANCH   4   7
ENDBRANCH   3   4
ENDBRANCH   1   3
BRANCH   1  13
ATOM     13  C   UNL     1      -2.899  -6.285  -1.673  0.00  0.00    -0.002 C 
BRANCH  13  14
ATOM     14  C   UNL     1      -1.513  -5.762  -1.401  0.00  0.00    +0.089 A 
ATOM     15  C   UNL     1      -0.452  -6.500  -1.029  0.00  0.00    +0.042 A 
ATOM     16  C   UNL     1       0.637  -5.610  -0.884  0.00  0.00    +0.041 A 
ATOM     17  C   UNL     1       0.176  -4.380  -1.175  0.00  0.00    +0.195 A 
ATOM     18  O   UNL     1      -1.125  -4.479  -1.494  0.00  0.00    -0.470 OA
ENDBRANCH  13  14
ENDBRANCH   1  13
BRANCH   1  19
ATOM     19  C   UNL     1      -5.025  -6.791  -0.682  0.00  0.00    -0.003 C 
BRANCH  19  20
ATOM     20  C   UNL     1      -4.836  -8.276  -0.855  0.00  0.00    +0.094 A 
ATOM     21  N   UNL     1      -5.918  -9.065  -1.077  0.00  0.00    -0.312 N 
ATOM     22  H   UNL     1      -6.800  -8.662  -1.122  0.00  0.00    +0.170 HD
ATOM     23  C   UNL     1      -5.793 -10.395  -1.236  0.00  0.00    +0.260 A 
ATOM     24  O   UNL     1      -6.775 -11.090  -1.436  0.00  0.00    -0.267 OA
ATOM     25  C   UNL     1      -4.489 -10.983  -1.169  0.00  0.00    +0.080 A 
ATOM     26  C   UNL     1      -4.099 -12.380  -1.308  0.00  0.00    +0.004 A 
ATOM     27  C   UNL     1      -2.787 -12.704  -1.205  0.00  0.00    +0.056 A 
ATOM     28  S   UNL     1      -1.997 -11.133  -0.912  0.00  0.00    -0.076 S 
ATOM     29  C   UNL     1      -3.432 -10.089  -0.935  0.00  0.00    +0.116 A 
ATOM     30  N   UNL     1      -3.633  -8.782  -0.793  0.00  0.00    -0.229 NA
BRANCH  26  31
ATOM     31  C   UNL     1      -5.117 -13.428  -1.557  0.00  0.00    -0.017 A 
ATOM     32  C   UNL     1      -6.258 -13.499  -0.758  0.00  0.00    +0.008 A 
ATOM     33  C   UNL     1      -7.203 -14.476  -0.995  0.00  0.00    +0.001 A 
ATOM     34  C   UNL     1      -7.021 -15.384  -2.022  0.00  0.00    +0.000 A 
ATOM     35  C   UNL     1      -5.891 -15.319  -2.818  0.00  0.00    +0.001 A 
ATOM     36  C   UNL     1      -4.941 -14.343  -2.594  0.00  0.00    +0.008 A 
ENDBRANCH  26  31
ENDBRANCH  19  20
ENDBRANCH   1  19
TORSDOF 12
