REMARK  Name = ZINC22241269
REMARK  12 active torsions:
REMARK  status: ('A' for Active; 'I' for Inactive)
REMARK    1  A    between atoms: C_1  and  C_2
REMARK    2  A    between atoms: C_2  and  C_3
REMARK    3  A    between atoms: C_2  and  C_4
REMARK    4  A    between atoms: C_4  and  N_5
REMARK    5  A    between atoms: C_6  and  N_36
REMARK    6  A    between atoms: C_7  and  N_14
REMARK    7  A    between atoms: N_14  and  C_15
REMARK    8  A    between atoms: C_15  and  C_16
REMARK    9  A    between atoms: C_16  and  C_17
REMARK   10  A    between atoms: C_16  and  C_18
REMARK   11  A    between atoms: C_19  and  C_21
REMARK   12  A    between atoms: N_24  and  C_26
REMARK                            x       y       z     vdW  Elec       q    Type
REMARK                         _______ _______ _______ _____ _____    ______ ____
ROOT
ATOM      1  N   UNL     1       1.407   3.664   0.126  0.00  0.00    -0.259 N 
ATOM      2  C   UNL     1       0.456   4.612   0.234  0.00  0.00    +0.271 C 
ATOM      3  O   UNL     1      -0.700   4.294   0.443  0.00  0.00    -0.268 OA
ENDROOT
BRANCH   1   6
ATOM      4  N   UNL     1       1.162   0.141   1.139  0.00  0.00    -0.280 N 
ATOM      5  C   UNL     1       1.530   1.466   1.141  0.00  0.00    +0.127 A 
ATOM      6  C   UNL     1       1.049   2.300   0.151  0.00  0.00    +0.140 A 
ATOM      7  C   UNL     1       0.194   1.765  -0.831  0.00  0.00    +0.277 A 
ATOM      8  O   UNL     1      -0.245   2.479  -1.716  0.00  0.00    -0.266 OA
ATOM      9  N   UNL     1      -0.135   0.460  -0.787  0.00  0.00    -0.273 N 
ATOM     10  H   UNL     1      -0.802   0.034  -1.551  0.00  0.00    +0.173 HD
ATOM     11  C   UNL     1       0.343  -0.338   0.185  0.00  0.00    +0.331 A 
ATOM     12  O   UNL     1       0.031  -1.513   0.201  0.00  0.00    -0.246 OA
BRANCH   5  13
ATOM     13  N   UNL     1       2.361   1.956   2.119  0.00  0.00    -0.343 N 
ATOM     14  H   UNL     1       2.651   3.017   2.114  0.00  0.00    +0.144 HD
ATOM     15  H   UNL     1       2.737   1.287   2.907  0.00  0.00    +0.144 HD
ENDBRANCH   5  13
BRANCH   4  16
ATOM     16  C   UNL     1       1.665  -0.755   2.184  0.00  0.00    +0.131 C 
BRANCH  16  18
ATOM     17  C   UNL     1       1.155  -1.779   4.405  0.00  0.00    +0.009 C 
ATOM     18  C   UNL     1       0.697  -0.751   3.369  0.00  0.00    +0.003 C 
ATOM     19  C   UNL     1       0.675   0.640   4.005  0.00  0.00    +0.009 C 
ENDBRANCH  16  18
ENDBRANCH   4  16
ENDBRANCH   1   6
BRANCH   2  20
ATOM     20  C   UNL     1       0.816   6.038   0.099  0.00  0.00    +0.151 A 
ATOM     21  C   UNL     1      -0.044   7.144   0.288  0.00  0.00    +0.006 A 
ATOM     22  C   UNL     1       0.712   8.241   0.064  0.00  0.00    +0.049 A 
ATOM     23  N   UNL     1       1.961   7.804  -0.253  0.00  0.00    -0.236 N 
ATOM     24  N   UNL     1       2.000   6.521  -0.227  0.00  0.00    -0.161 NA
ATOM     25  C   UNL     1      -0.117   9.492   0.246  0.00  0.00    +0.056 C 
ATOM     26  C   UNL     1      -1.365   9.035   1.034  0.00  0.00    +0.011 C 
ATOM     27  C   UNL     1      -1.454   7.540   0.655  0.00  0.00    +0.040 C 
BRANCH  23  28
ATOM     28  C   UNL     1       3.047   8.634  -0.562  0.00  0.00    +0.066 A 
ATOM     29  C   UNL     1       2.842   9.818  -1.259  0.00  0.00    +0.030 A 
ATOM     30  C   UNL     1       3.913  10.637  -1.557  0.00  0.00    +0.040 A 
ATOM     31  C   UNL     1       5.193  10.273  -1.171  0.00  0.00    +0.124 A 
ATOM     32  C   UNL     1       5.400   9.091  -0.481  0.00  0.00    +0.040 A 
ATOM     33  C   UNL     1       4.331   8.272  -0.176  0.00  0.00    +0.030 A 
ATOM     34  F   UNL     1       6.240  11.073  -1.470  0.00  0.00    -0.205 F 
ENDBRANCH  23  28
ENDBRANCH   2  20
BRANCH   1  35
ATOM     35  C   UNL     1       2.813   4.049  -0.019  0.00  0.00    +0.117 C 
BRANCH  35  36
ATOM     36  C   UNL     1       3.146   4.216  -1.502  0.00  0.00    +0.001 C 
ATOM     37  C   UNL     1       4.564   4.772  -1.647  0.00  0.00    +0.009 C 
ATOM     38  C   UNL     1       3.057   2.858  -2.201  0.00  0.00    +0.009 C 
ENDBRANCH  35  36
ENDBRANCH   1  35
TORSDOF 8
