REMARK  Name = ZINC12749279
REMARK  9 active torsions:
REMARK  status: ('A' for Active; 'I' for Inactive)
REMARK    1  A    between atoms: C_1  and  C_2
REMARK    2  A    between atoms: C_2  and  C_4
REMARK    3  A    between atoms: C_2  and  N_53
REMARK    4  A    between atoms: N_6  and  C_7
REMARK    5  A    between atoms: C_7  and  C_8
REMARK    6  A    between atoms: C_14  and  C_15
REMARK    7  A    between atoms: C_14  and  N_53
REMARK    8  A    between atoms: C_15  and  C_17
REMARK    9  A    between atoms: C_15  and  C_22
REMARK                            x       y       z     vdW  Elec       q    Type
REMARK                         _______ _______ _______ _____ _____    ______ ____
ROOT
ATOM      1  C   UNL     1      -2.794   0.491  -1.232  0.00  0.00    -0.068 C 
ENDROOT
BRANCH   1   2
ATOM      2  N   UNL     1      -4.218   0.110  -1.282  0.00  0.00    +0.387 N 
ATOM      3  H   UNL     1      -4.453  -0.434  -0.443  0.00  0.00    -0.085 HD
ATOM      4  H   UNL     1      -4.795   0.958  -1.312  0.00  0.00    -0.085 HD
BRANCH   2   6
ATOM      5  C   UNL     1      -4.170  -2.172  -2.184  0.00  0.00    -0.004 C 
ATOM      6  C   UNL     1      -4.488  -0.706  -2.481  0.00  0.00    +0.013 C 
BRANCH   6   7
ATOM      7  C   UNL     1      -5.942  -0.573  -2.853  0.00  0.00    +0.199 C 
ATOM      8  O   UNL     1      -6.676   0.130  -2.190  0.00  0.00    -0.278 OA
ATOM      9  N   UNL     1      -6.428  -1.234  -3.922  0.00  0.00    -0.313 N 
ATOM     10  H   UNL     1      -5.841  -1.796  -4.452  0.00  0.00    +0.149 HD
BRANCH   9  11
ATOM     11  C   UNL     1      -7.841  -1.105  -4.283  0.00  0.00    +0.139 C 
BRANCH  11  12
ATOM     12  C   UNL     1      -8.125  -1.938  -5.506  0.00  0.00    -0.030 A 
ATOM     13  C   UNL     1      -7.997  -1.384  -6.766  0.00  0.00    +0.005 A 
ATOM     14  C   UNL     1      -8.252  -2.150  -7.888  0.00  0.00    +0.000 A 
ATOM     15  C   UNL     1      -8.647  -3.468  -7.750  0.00  0.00    +0.000 A 
ATOM     16  C   UNL     1      -8.781  -4.021  -6.490  0.00  0.00    +0.000 A 
ATOM     17  C   UNL     1      -8.520  -3.256  -5.368  0.00  0.00    +0.005 A 
ENDBRANCH  11  12
ENDBRANCH   9  11
ENDBRANCH   6   7
ENDBRANCH   2   6
ENDBRANCH   1   2
BRANCH   1  18
ATOM     18  C   UNL     1      -2.545   1.335   0.021  0.00  0.00    +0.041 C 
BRANCH  18  19
ATOM     19  C   UNL     1      -1.122   1.831   0.017  0.00  0.00    -0.016 A 
ATOM     20  C   UNL     1      -0.013   1.076   0.008  0.00  0.00    +0.087 A 
ATOM     21  N   UNL     1       1.097   1.876   0.002  0.00  0.00    -0.360 N 
ATOM     22  H   UNL     1       2.014   1.559  -0.009  0.00  0.00    +0.165 HD
ATOM     23  C   UNL     1       0.719   3.200   0.012  0.00  0.00    +0.047 A 
ATOM     24  C   UNL     1      -0.688   3.230   0.025  0.00  0.00    +0.003 A 
ATOM     25  C   UNL     1      -1.358   4.455   0.038  0.00  0.00    +0.010 A 
ATOM     26  C   UNL     1      -0.644   5.620   0.037  0.00  0.00    +0.001 A 
ATOM     27  C   UNL     1       0.744   5.595   0.024  0.00  0.00    +0.002 A 
ATOM     28  C   UNL     1       1.426   4.398   0.011  0.00  0.00    +0.026 A 
ENDBRANCH  18  19
BRANCH  18  29
ATOM     29  C   UNL     1      -2.780   0.492   1.248  0.00  0.00    -0.005 A 
ATOM     30  C   UNL     1      -3.665   0.682   2.257  0.00  0.00    +0.012 A 
ATOM     31  C   UNL     1      -3.708  -0.233   3.292  0.00  0.00    +0.008 A 
ATOM     32  C   UNL     1      -2.855  -1.287   3.274  0.00  0.00    +0.045 A 
ATOM     33  S   UNL     1      -1.958  -1.009   1.756  0.00  0.00    -0.101 S 
ENDBRANCH  18  29
ENDBRANCH   1  18
TORSDOF 8
