REMARK  Name = ZINC62833548
REMARK  5 active torsions:
REMARK  status: ('A' for Active; 'I' for Inactive)
REMARK    1  A    between atoms: C_1  and  N_2
REMARK    2  A    between atoms: N_2  and  C_3
REMARK    3  A    between atoms: N_2  and  C_13
REMARK    4  A    between atoms: C_6  and  C_10
REMARK    5  A    between atoms: C_8  and  N_9
REMARK                            x       y       z     vdW  Elec       q    Type
REMARK                         _______ _______ _______ _____ _____    ______ ____
ROOT
ATOM      1  C   UNL     1      -0.067  -0.673   1.221  0.00  0.00    +0.051 A 
ATOM      2  C   UNL     1      -1.303  -0.930   1.802  0.00  0.00    +0.026 A 
ATOM      3  C   UNL     1      -1.376  -1.592   3.007  0.00  0.00    +0.017 A 
ATOM      4  C   UNL     1      -0.205  -2.007   3.651  0.00  0.00    +0.065 A 
ATOM      5  C   UNL     1       1.040  -1.749   3.067  0.00  0.00    +0.039 A 
ATOM      6  C   UNL     1       1.108  -1.090   1.855  0.00  0.00    +0.047 A 
ENDROOT
BRANCH   6   7
ATOM      7  N   UNL     1       2.352  -0.835   1.264  0.00  0.00    -0.357 N 
ATOM      8  H   UNL     1       2.399  -0.369   0.415  0.00  0.00    +0.142 HD
ATOM      9  H   UNL     1       3.166  -1.125   1.704  0.00  0.00    +0.142 HD
ENDBRANCH   6   7
BRANCH   4  10
ATOM     10  C   UNL     1      -0.283  -2.713   4.940  0.00  0.00    +0.387 C 
ATOM     11  O   UNL     1      -1.373  -2.938   5.449  0.00  0.00    -0.241 OA
ATOM     12  O   UNL     1       0.742  -3.075   5.502  0.00  0.00    -0.241 OA
ENDBRANCH   4  10
BRANCH   1  14
ATOM     13  C   UNL     1       0.284   1.433  -0.030  0.00  0.00    +0.130 C 
ATOM     14  N   UNL     1       0.002  -0.004   0.002  0.00  0.00    -0.320 N 
BRANCH  14  15
ATOM     15  C   UNL     1      -0.208  -0.737  -1.249  0.00  0.00    +0.159 C 
ATOM     16  C   UNL     1      -1.533  -1.500  -1.182  0.00  0.00    +0.032 C 
ATOM     17  C   UNL     1      -1.797  -1.997   0.228  0.00  0.00    +0.004 C 
ATOM     18  C   UNL     1      -0.821  -3.061   0.695  0.00  0.00    +0.019 C 
ATOM     19  C   UNL     1       0.586  -2.481   0.850  0.00  0.00    +0.104 C 
ATOM     20  N   UNL     1       1.270  -2.550  -0.452  0.00  0.00    -0.314 N 
ATOM     21  C   UNL     1       0.915  -1.733  -1.449  0.00  0.00    +0.233 C 
ATOM     22  O   UNL     1       1.487  -1.793  -2.517  0.00  0.00    -0.274 OA
ATOM     23  H   UNL     1       1.986  -3.191  -0.586  0.00  0.00    +0.149 HD
ENDBRANCH  14  15
ENDBRANCH   1  14
TORSDOF 4
