REMARK  Name = ZINC20207175
REMARK  11 active torsions:
REMARK  status: ('A' for Active; 'I' for Inactive)
REMARK    1  A    between atoms: C_1  and  C_2
REMARK    2  A    between atoms: C_5  and  O_8
REMARK    3  A    between atoms: O_8  and  C_9
REMARK    4  A    between atoms: C_9  and  C_10
REMARK    5  A    between atoms: C_10  and  O_11
REMARK    6  A    between atoms: O_11  and  C_12
REMARK    7  A    between atoms: C_15  and  C_18
REMARK    8  A    between atoms: C_29  and  S_30
REMARK    9  A    between atoms: S_30  and  C_33
REMARK   10  A    between atoms: C_33  and  C_34
REMARK   11  A    between atoms: C_33  and  C_35
REMARK                            x       y       z     vdW  Elec       q    Type
REMARK                         _______ _______ _______ _____ _____    ______ ____
ROOT
ATOM      1  C   UNL     1       2.227 -11.953  -0.787  0.00  0.00    +0.024 C 
ATOM      2  C   UNL     1       2.960 -12.475  -1.829  0.00  0.00    +0.078 C 
ATOM      3  C   UNL     1       3.070 -13.945  -2.057  0.00  0.00    +0.117 C 
ATOM      4  N   UNL     1       2.114 -14.789  -1.778  0.00  0.00    -0.386 N 
ATOM      5  N   UNL     1       4.310 -14.330  -2.604  0.00  0.00    -0.203 N 
ATOM      6  C   UNL     1       5.041 -13.390  -3.300  0.00  0.00    +0.183 C 
ATOM      7  N   UNL     1       4.753 -12.114  -3.432  0.00  0.00    -0.152 NA
ATOM      8  C   UNL     1       3.681 -11.605  -2.792  0.00  0.00    +0.273 C 
ATOM      9  O   UNL     1       3.315 -10.459  -2.994  0.00  0.00    -0.268 OA
ATOM     10  S   UNL     1       6.335 -14.266  -3.880  0.00  0.00    +0.049 S 
ATOM     11  N   UNL     1       6.004 -15.745  -3.166  0.00  0.00    -0.174 NA
ATOM     12  C   UNL     1       4.886 -15.553  -2.536  0.00  0.00    +0.257 C 
ATOM     13  H   UNL     1       1.315 -14.483  -1.319  0.00  0.00    +0.157 HD
ATOM     14  H   UNL     1       2.201 -15.721  -2.030  0.00  0.00    +0.157 HD
ENDROOT
BRANCH   1  18
ATOM     15  C   UNL     1       2.424  -7.815   0.078  0.00  0.00    +0.121 A 
ATOM     16  C   UNL     1       1.207  -8.483   0.163  0.00  0.00    +0.046 A 
ATOM     17  C   UNL     1       1.137  -9.823  -0.116  0.00  0.00    +0.011 A 
ATOM     18  C   UNL     1       2.295 -10.521  -0.488  0.00  0.00    -0.024 A 
ATOM     19  C   UNL     1       3.519  -9.842  -0.571  0.00  0.00    +0.011 A 
ATOM     20  C   UNL     1       3.576  -8.501  -0.295  0.00  0.00    +0.046 A 
BRANCH  15  21
ATOM     21  O   UNL     1       2.487  -6.489   0.356  0.00  0.00    -0.489 OA
BRANCH  21  22
ATOM     22  C   UNL     1       1.268  -5.846   0.733  0.00  0.00    +0.270 C 
BRANCH  22  23
ATOM     23  C   UNL     1       1.535  -4.364   1.004  0.00  0.00    +0.270 C 
BRANCH  23  24
ATOM     24  O   UNL     1       1.942  -3.724  -0.207  0.00  0.00    -0.489 OA
BRANCH  24  29
ATOM     25  C   UNL     1       3.092   1.783   0.073  0.00  0.00    +0.044 C 
ATOM     26  C   UNL     1       2.785   0.310  -0.002  0.00  0.00    -0.050 A 
ATOM     27  C   UNL     1       2.902  -0.359  -1.206  0.00  0.00    +0.007 A 
ATOM     28  C   UNL     1       2.620  -1.710  -1.278  0.00  0.00    +0.046 A 
ATOM     29  C   UNL     1       2.220  -2.395  -0.140  0.00  0.00    +0.121 A 
ATOM     30  C   UNL     1       2.104  -1.721   1.068  0.00  0.00    +0.046 A 
ATOM     31  C   UNL     1       2.392  -0.372   1.135  0.00  0.00    +0.007 A 
ENDBRANCH  24  29
ENDBRANCH  23  24
ENDBRANCH  22  23
ENDBRANCH  21  22
ENDBRANCH  15  21
ENDBRANCH   1  18
BRANCH  12  32
ATOM     32  S   UNL     1       4.136 -16.853  -1.614  0.00  0.00    +0.031 S 
ATOM     33  O   UNL     1       5.198 -17.751  -1.323  0.00  0.00    -0.166 OA
ATOM     34  O   UNL     1       3.434 -16.197  -0.567  0.00  0.00    -0.166 OA
BRANCH  32  35
ATOM     35  C   UNL     1       2.963 -17.624  -2.764  0.00  0.00    +0.133 C 
ATOM     36  C   UNL     1       3.730 -18.239  -3.937  0.00  0.00    +0.032 C 
ATOM     37  C   UNL     1       2.180 -18.718  -2.037  0.00  0.00    +0.032 C 
ENDBRANCH  32  35
ENDBRANCH  12  32
TORSDOF 8
