REMARK  Name = ZINC66448345
REMARK  7 active torsions:
REMARK  status: ('A' for Active; 'I' for Inactive)
REMARK    1  A    between atoms: C_1  and  C_2
REMARK    2  A    between atoms: C_6  and  C_7
REMARK    3  A    between atoms: N_9  and  C_10
REMARK    4  A    between atoms: N_15  and  C_17
REMARK    5  A    between atoms: C_17  and  C_18
REMARK    6  A    between atoms: C_22  and  C_26
REMARK    7  A    between atoms: C_22  and  C_27
REMARK                            x       y       z     vdW  Elec       q    Type
REMARK                         _______ _______ _______ _____ _____    ______ ____
ROOT
ATOM      1  C   UNL     1       0.031  -0.394   2.491  0.00  0.00    +0.280 C 
ATOM      2  O   UNL     1       0.016   0.792   2.760  0.00  0.00    -0.267 OA
ATOM      3  N   UNL     1       0.053  -1.309   3.480  0.00  0.00    -0.308 N 
ATOM      4  H   UNL     1       0.065  -2.255   3.266  0.00  0.00    +0.149 HD
ENDROOT
BRANCH   1  10
ATOM      5  C   UNL     1      -0.018   1.503   0.010  0.00  0.00    +0.048 C 
ATOM      6  C   UNL     1       0.002  -0.004   0.002  0.00  0.00    +0.011 A 
ATOM      7  C   UNL     1       0.009  -0.840  -1.125  0.00  0.00    +0.062 A 
ATOM      8  C   UNL     1       0.027  -2.151  -0.662  0.00  0.00    +0.117 A 
ATOM      9  O   UNL     1       0.036  -2.113   0.663  0.00  0.00    -0.454 OA
ATOM     10  C   UNL     1       0.024  -0.829   1.089  0.00  0.00    +0.193 A 
ATOM     11  C   UNL     1       0.032  -3.344  -1.585  0.00  0.00    +0.082 C 
ATOM     12  C   UNL     1      -0.489  -2.920  -2.961  0.00  0.00    -0.021 C 
ATOM     13  C   UNL     1       0.284  -1.704  -3.482  0.00  0.00    +0.086 C 
ATOM     14  C   UNL     1       0.001  -0.526  -2.562  0.00  0.00    +0.167 C 
ATOM     15  O   UNL     1      -0.215   0.592  -2.982  0.00  0.00    -0.292 OA
ATOM     16  C   UNL     1      -1.973  -2.564  -2.851  0.00  0.00    +0.012 C 
ATOM     17  C   UNL     1      -0.322  -4.082  -3.942  0.00  0.00    +0.012 C 
ENDBRANCH   1  10
BRANCH   3  18
ATOM     18  C   UNL     1       0.060  -0.875   4.879  0.00  0.00    +0.057 C 
ATOM     19  C   UNL     1       1.498  -0.584   5.318  0.00  0.00    +0.018 C 
ATOM     20  C   UNL     1       1.502  -0.207   6.802  0.00  0.00    -0.017 C 
ATOM     21  C   UNL     1       0.866  -1.339   7.612  0.00  0.00    -0.078 C 
ATOM     22  N   UNL     1      -0.515  -1.550   7.164  0.00  0.00    +0.387 N 
ATOM     23  C   UNL     1      -0.524  -1.982   5.761  0.00  0.00    -0.056 C 
ATOM     24  H   UNL     1      -1.032  -0.688   7.252  0.00  0.00    -0.081 HD
BRANCH  22  25
ATOM     25  C   UNL     1      -1.146  -2.584   7.996  0.00  0.00    +0.018 C 
BRANCH  25  26
ATOM     26  C   UNL     1      -1.258  -2.087   9.414  0.00  0.00    +0.194 C 
ATOM     27  O   UNL     1      -0.853  -0.982   9.703  0.00  0.00    -0.278 OA
ATOM     28  N   UNL     1      -1.809  -2.872  10.361  0.00  0.00    -0.331 N 
ATOM     29  H   UNL     1      -2.134  -3.756  10.130  0.00  0.00    +0.145 HD
ATOM     30  H   UNL     1      -1.882  -2.553  11.274  0.00  0.00    +0.145 HD
ENDBRANCH  25  26
ENDBRANCH  22  25
ENDBRANCH   3  18
TORSDOF 4
