REMARK  Name = ZINC05733405
REMARK  10 active torsions:
REMARK  status: ('A' for Active; 'I' for Inactive)
REMARK    1  A    between atoms: C_6  and  S_23
REMARK    2  A    between atoms: N_9  and  C1*_10
REMARK    3  A    between atoms: C2*_12  and  O2*_22
REMARK    4  A    between atoms: C3*_14  and  O3*_21
REMARK    5  A    between atoms: C4*_16  and  C5*_19
REMARK    6  A    between atoms: C5*_19  and  O5*_20
REMARK    7  A    between atoms: S_23  and  C_24
REMARK    8  A    between atoms: C_24  and  C_25
REMARK    9  A    between atoms: C_25  and  C_26
REMARK   10  A    between atoms: C_26  and  C_27
REMARK                            x       y       z     vdW  Elec       q    Type
REMARK                         _______ _______ _______ _____ _____    ______ ____
ROOT
ATOM      1  C   UNL     1       3.628  10.278   0.023  0.00  0.00    +0.203 A 
ATOM      2  N   UNL     1       2.378   9.920   0.033  0.00  0.00    -0.231 NA
ATOM      3  C   UNL     1       2.296   8.567   0.026  0.00  0.00    +0.147 A 
ATOM      4  C   UNL     1       1.236   7.643   0.031  0.00  0.00    +0.148 A 
ATOM      5  N   UNL     1       1.523   6.347   0.016  0.00  0.00    -0.205 NA
ATOM      6  C   UNL     1       2.781   5.923   0.007  0.00  0.00    +0.192 A 
ATOM      7  N   UNL     1       3.808   6.758   0.002  0.00  0.00    -0.202 NA
ATOM      8  C   UNL     1       3.610   8.072   0.011  0.00  0.00    +0.169 A 
ATOM      9  N   UNL     1       4.429   9.173   0.009  0.00  0.00    -0.285 N 
ATOM     10  N   UNL     1      -0.079   8.076   0.046  0.00  0.00    -0.341 N 
ATOM     11  H   UNL     1      -0.240   8.623   0.867  0.00  0.00    +0.144 HD
ATOM     12  H   UNL     1      -0.802   7.429   0.050  0.00  0.00    +0.144 HD
ENDROOT
BRANCH   9  13
ATOM     13  C1* UNL     1       5.894   9.164  -0.006  0.00  0.00    +0.253 C 
ATOM     14  C2* UNL     1       6.402   9.050  -1.456  0.00  0.00    +0.195 C 
ATOM     15  C3* UNL     1       7.187  10.369  -1.684  0.00  0.00    +0.178 C 
ATOM     16  C4* UNL     1       6.599  11.292  -0.586  0.00  0.00    +0.177 C 
ATOM     17  O4* UNL     1       6.396  10.399   0.531  0.00  0.00    -0.346 OA
BRANCH  15  18
ATOM     18  O3* UNL     1       8.588  10.168  -1.485  0.00  0.00    -0.386 OA
ATOM     19  H3* UNL     1       9.112  10.980  -1.528  0.00  0.00    +0.210 HD
ENDBRANCH  15  18
BRANCH  14  20
ATOM     20  O2* UNL     1       5.304   8.957  -2.365  0.00  0.00    -0.385 OA
ATOM     21  H2* UNL     1       5.567   8.883  -3.293  0.00  0.00    +0.210 HD
ENDBRANCH  14  20
BRANCH  16  22
ATOM     22  C5* UNL     1       7.592  12.397  -0.218  0.00  0.00    +0.190 C 
BRANCH  22  23
ATOM     23  O5* UNL     1       7.018  13.238   0.785  0.00  0.00    -0.392 OA
ATOM     24  H5* UNL     1       7.593  13.963   1.067  0.00  0.00    +0.210 HD
ENDBRANCH  22  23
ENDBRANCH  16  22
ENDBRANCH   9  13
BRANCH   6  25
ATOM     25  S   UNL     1       3.094   4.189  -0.005  0.00  0.00    -0.086 S 
BRANCH  25  26
ATOM     26  C   UNL     1       1.396   3.562   0.008  0.00  0.00    +0.078 C 
BRANCH  26  27
ATOM     27  C   UNL     1       1.417   2.032  -0.001  0.00  0.00    +0.015 C 
BRANCH  27  28
ATOM     28  C   UNL     1      -0.018   1.503   0.010  0.00  0.00    +0.028 C 
BRANCH  28  29
ATOM     29  C   UNL     1       0.002  -0.004   0.002  0.00  0.00    -0.020 C 
ATOM     30  C   UNL     1      -0.631  -0.673   0.934  0.00  0.00    +0.041 C 
ATOM     31  I   UNL     1      -0.603  -2.768   0.923  0.00  0.00    -0.053 I 
ENDBRANCH  28  29
ENDBRANCH  27  28
ENDBRANCH  26  27
ENDBRANCH  25  26
ENDBRANCH   6  25
TORSDOF 10
