REMARK  Name = ZINC16667678
REMARK  11 active torsions:
REMARK  status: ('A' for Active; 'I' for Inactive)
REMARK    1  A    between atoms: C_4  and  C_7
REMARK    2  A    between atoms: C_7  and  O_8
REMARK    3  A    between atoms: O_8  and  C_9
REMARK    4  A    between atoms: C_9  and  C_11
REMARK    5  A    between atoms: C_11  and  C_12
REMARK    6  A    between atoms: C_12  and  C_13
REMARK    7  A    between atoms: C_13  and  N_14
REMARK    8  A    between atoms: C_15  and  C_17
REMARK    9  A    between atoms: C_17  and  N_26
REMARK   10  A    between atoms: C_18  and  C_19
REMARK   11  A    between atoms: C_27  and  C_29
REMARK                            x       y       z     vdW  Elec       q    Type
REMARK                         _______ _______ _______ _____ _____    ______ ____
ROOT
ATOM      1  C   UNL     1      -0.082  -8.422   4.970  0.00  0.00    +0.097 C 
ATOM      2  C   UNL     1      -1.153  -9.068   4.453  0.00  0.00    +0.036 C 
ENDROOT
BRANCH   2   3
ATOM      3  C   UNL     1      -2.181  -8.317   3.716  0.00  0.00    -0.023 A 
ATOM      4  C   UNL     1      -2.545  -7.032   4.133  0.00  0.00    +0.009 A 
ATOM      5  C   UNL     1      -3.506  -6.332   3.435  0.00  0.00    +0.016 A 
ATOM      6  C   UNL     1      -4.118  -6.902   2.331  0.00  0.00    +0.018 A 
ATOM      7  C   UNL     1      -3.766  -8.176   1.916  0.00  0.00    +0.016 A 
ATOM      8  C   UNL     1      -2.803  -8.886   2.600  0.00  0.00    +0.009 A 
ATOM      9 BR   UNL     1      -5.441  -5.937   1.385  0.00  0.00    -0.050 Br
ENDBRANCH   2   3
BRANCH   1  11
ATOM     10  N   UNL     1       0.573  -6.626   3.451  0.00  0.00    -0.310 N 
ATOM     11  C   UNL     1       0.132  -6.999   4.669  0.00  0.00    +0.258 C 
ATOM     12  O   UNL     1      -0.088  -6.157   5.520  0.00  0.00    -0.269 OA
ATOM     13  H   UNL     1       0.680  -7.288   2.751  0.00  0.00    +0.149 HD
BRANCH  10  14
ATOM     14  C   UNL     1       0.889  -5.220   3.186  0.00  0.00    +0.105 C 
BRANCH  14  15
ATOM     15  C   UNL     1       1.244  -5.048   1.707  0.00  0.00    +0.030 C 
BRANCH  15  16
ATOM     16  C   UNL     1       1.454  -3.564   1.402  0.00  0.00    +0.122 C 
BRANCH  16  17
ATOM     17  C   UNL     1       1.804  -3.394  -0.053  0.00  0.00    +0.307 C 
ATOM     18  O   UNL     1       1.879  -4.362  -0.773  0.00  0.00    -0.251 OA
BRANCH  17  19
ATOM     19  O   UNL     1       2.033  -2.169  -0.551  0.00  0.00    -0.460 OA
BRANCH  19  20
ATOM     20  C   UNL     1       2.366  -2.081  -1.961  0.00  0.00    +0.267 C 
BRANCH  20  24
ATOM     21  C   UNL     1       2.993   2.008  -3.025  0.00  0.00    +0.000 A 
ATOM     22  C   UNL     1       4.054   1.237  -2.586  0.00  0.00    +0.000 A 
ATOM     23  C   UNL     1       3.851  -0.086  -2.242  0.00  0.00    +0.007 A 
ATOM     24  C   UNL     1       2.587  -0.639  -2.337  0.00  0.00    -0.010 A 
ATOM     25  C   UNL     1       1.528   0.130  -2.781  0.00  0.00    +0.007 A 
ATOM     26  C   UNL     1       1.730   1.455  -3.121  0.00  0.00    +0.000 A 
ENDBRANCH  20  24
ENDBRANCH  19  20
ENDBRANCH  17  19
ENDBRANCH  16  17
ENDBRANCH  15  16
ENDBRANCH  14  15
ENDBRANCH  10  14
ENDBRANCH   1  11
BRANCH   1  27
ATOM     27  N   UNL     1       0.820  -9.107   5.789  0.00  0.00    -0.277 N 
ATOM     28  C   UNL     1       1.871  -8.456   6.325  0.00  0.00    +0.248 C 
ATOM     29  O   UNL     1       1.981  -7.254   6.180  0.00  0.00    -0.270 OA
ATOM     30  H   UNL     1       0.688 -10.050   5.972  0.00  0.00    +0.155 HD
BRANCH  28  31
ATOM     31  C   UNL     1       2.891  -9.204   7.090  0.00  0.00    +0.037 A 
ATOM     32  C   UNL     1       2.765 -10.584   7.263  0.00  0.00    +0.013 A 
ATOM     33  C   UNL     1       3.724 -11.277   7.973  0.00  0.00    +0.001 A 
ATOM     34  C   UNL     1       4.802 -10.606   8.523  0.00  0.00    +0.000 A 
ATOM     35  C   UNL     1       4.930  -9.238   8.359  0.00  0.00    +0.001 A 
ATOM     36  C   UNL     1       3.982  -8.534   7.646  0.00  0.00    +0.013 A 
ENDBRANCH  28  31
ENDBRANCH   1  27
TORSDOF 11
