REMARK  Name = ZINC36206230
REMARK  13 active torsions:
REMARK  status: ('A' for Active; 'I' for Inactive)
REMARK    1  A    between atoms: C_1  and  C_2
REMARK    2  A    between atoms: C_2  and  C_3
REMARK    3  A    between atoms: C_3  and  C_5
REMARK    4  A    between atoms: C_3  and  O_31
REMARK    5  A    between atoms: C_5  and  N_6
REMARK    6  A    between atoms: N_6  and  C_7
REMARK    7  A    between atoms: N_6  and  C_12
REMARK    8  A    between atoms: C_7  and  C_8
REMARK    9  A    between atoms: C_8  and  C_9
REMARK   10  A    between atoms: C_9  and  C_10
REMARK   11  A    between atoms: C_9  and  C_11
REMARK   12  A    between atoms: C_12  and  C_13
REMARK   13  A    between atoms: C_19  and  C_24
REMARK                            x       y       z     vdW  Elec       q    Type
REMARK                         _______ _______ _______ _____ _____    ______ ____
ROOT
ATOM      1  C   UNL     1      -4.608  -3.610   1.572  0.00  0.00    +0.094 A 
ATOM      2  N   UNL     1      -5.118  -4.614   2.330  0.00  0.00    -0.312 N 
ATOM      3  H   UNL     1      -4.660  -5.468   2.358  0.00  0.00    +0.170 HD
ATOM      4  C   UNL     1      -6.247  -4.447   3.043  0.00  0.00    +0.260 A 
ATOM      5  O   UNL     1      -6.692  -5.358   3.720  0.00  0.00    -0.267 OA
ATOM      6  C   UNL     1      -6.917  -3.182   2.996  0.00  0.00    +0.080 A 
ATOM      7  C   UNL     1      -8.138  -2.759   3.671  0.00  0.00    +0.004 A 
ATOM      8  C   UNL     1      -8.588  -1.497   3.473  0.00  0.00    +0.056 A 
ATOM      9  S   UNL     1      -7.384  -0.799   2.359  0.00  0.00    -0.076 S 
ATOM     10  C   UNL     1      -6.315  -2.205   2.186  0.00  0.00    +0.116 A 
ATOM     11  N   UNL     1      -5.193  -2.444   1.513  0.00  0.00    -0.229 NA
ENDROOT
BRANCH   7  12
ATOM     12  C   UNL     1      -8.874  -3.693   4.556  0.00  0.00    -0.016 A 
ATOM     13  C   UNL     1      -9.188  -4.977   4.112  0.00  0.00    +0.010 A 
ATOM     14  C   UNL     1      -9.873  -5.842   4.940  0.00  0.00    +0.020 A 
ATOM     15  C   UNL     1     -10.248  -5.438   6.210  0.00  0.00    +0.041 A 
ATOM     16  C   UNL     1      -9.938  -4.165   6.656  0.00  0.00    +0.020 A 
ATOM     17  C   UNL     1      -9.249  -3.293   5.838  0.00  0.00    +0.010 A 
ATOM     18 CL   UNL     1     -11.109  -6.532   7.247  0.00  0.00    -0.084 Cl
ENDBRANCH   7  12
BRANCH   1  19
ATOM     19  C   UNL     1      -3.341  -3.843   0.790  0.00  0.00    -0.003 C 
BRANCH  19  20
ATOM     20  N   UNL     1      -3.036  -2.653  -0.015  0.00  0.00    +0.386 N 
ATOM     21  H   UNL     1      -3.024  -1.838   0.580  0.00  0.00    -0.081 HD
BRANCH  20  22
ATOM     22  C   UNL     1      -1.722  -2.815  -0.651  0.00  0.00    -0.047 C 
BRANCH  22  23
ATOM     23  C   UNL     1      -1.342  -1.522  -1.375  0.00  0.00    +0.098 C 
BRANCH  23  25
ATOM     24  C   UNL     1       0.525  -0.278  -2.475  0.00  0.00    +0.006 C 
ATOM     25  C   UNL     1       0.105  -1.616  -1.863  0.00  0.00    +0.026 C 
ENDBRANCH  23  25
BRANCH  23  26
ATOM     26  O   UNL     1      -2.210  -1.329  -2.493  0.00  0.00    -0.394 OA
ATOM     27  H   UNL     1      -2.175  -2.041  -3.146  0.00  0.00    +0.210 HD
ENDBRANCH  23  26
ENDBRANCH  22  23
ENDBRANCH  20  22
BRANCH  20  28
ATOM     28  C   UNL     1      -4.064  -2.487  -1.052  0.00  0.00    -0.078 C 
BRANCH  28  29
ATOM     29  C   UNL     1      -3.971  -3.641  -2.052  0.00  0.00    -0.016 C 
BRANCH  29  30
ATOM     30  C   UNL     1      -5.059  -3.483  -3.116  0.00  0.00    -0.019 C 
ATOM     31  C   UNL     1      -4.793  -2.217  -3.933  0.00  0.00    +0.007 C 
ATOM     32  C   UNL     1      -5.047  -4.700  -4.043  0.00  0.00    +0.007 C 
ENDBRANCH  29  30
ENDBRANCH  28  29
ENDBRANCH  20  28
ENDBRANCH  19  20
ENDBRANCH   1  19
TORSDOF 10
