REMARK  Name = ZINC63229099
REMARK  11 active torsions:
REMARK  status: ('A' for Active; 'I' for Inactive)
REMARK    1  A    between atoms: C_1  and  C_2
REMARK    2  A    between atoms: C_2  and  O_3
REMARK    3  A    between atoms: O_3  and  C_4
REMARK    4  A    between atoms: C_7  and  S_10
REMARK    5  A    between atoms: S_10  and  N_13
REMARK    6  A    between atoms: N_13  and  C_14
REMARK    7  A    between atoms: C_14  and  C_16
REMARK    8  A    between atoms: C_14  and  C_26
REMARK    9  A    between atoms: C_16  and  C_17
REMARK   10  A    between atoms: N_28  and  N_29
REMARK   11  A    between atoms: C_30  and  C_32
REMARK                            x       y       z     vdW  Elec       q    Type
REMARK                         _______ _______ _______ _____ _____    ______ ____
ROOT
ATOM      1  C   UNL     1       3.860  -6.314   1.568  0.00  0.00    +0.168 C 
ENDROOT
BRANCH   1   2
ATOM      2  C   UNL     1       4.812  -6.085   0.422  0.00  0.00    +0.248 C 
ATOM      3  O   UNL     1       4.448  -6.285  -0.717  0.00  0.00    -0.273 OA
ATOM      4  N   UNL     1       6.067  -5.657   0.664  0.00  0.00    -0.233 N 
ATOM      5  H   UNL     1       6.358  -5.497   1.575  0.00  0.00    +0.173 HD
BRANCH   4   6
ATOM      6  N   UNL     1       6.952  -5.444  -0.401  0.00  0.00    -0.230 N 
ATOM      7  C   UNL     1       8.207  -5.017  -0.160  0.00  0.00    +0.262 C 
ATOM      8  O   UNL     1       8.571  -4.816   0.983  0.00  0.00    -0.269 OA
ATOM      9  H   UNL     1       6.661  -5.604  -1.313  0.00  0.00    +0.173 HD
BRANCH   7  10
ATOM     10  C   UNL     1       9.140  -4.792  -1.284  0.00  0.00    +0.056 A 
ATOM     11  C   UNL     1      10.449  -4.353  -1.046  0.00  0.00    +0.016 A 
ATOM     12  C   UNL     1      11.283  -4.159  -2.132  0.00  0.00    +0.020 A 
ATOM     13  C   UNL     1      10.803  -4.401  -3.407  0.00  0.00    +0.111 A 
ATOM     14  N   UNL     1       9.565  -4.813  -3.601  0.00  0.00    -0.263 NA
ATOM     15  C   UNL     1       8.735  -5.019  -2.599  0.00  0.00    +0.123 A 
ENDBRANCH   7  10
ENDBRANCH   4   6
ENDBRANCH   1   2
BRANCH   1  16
ATOM     16  N   UNL     1       2.570  -6.773   1.047  0.00  0.00    -0.178 NA
ATOM     17  H   UNL     1       2.539  -7.347   0.266  0.00  0.00    +0.149 HD
BRANCH  16  18
ATOM     18  S   UNL     1       1.165  -6.312   1.792  0.00  0.00    +0.059 S 
ATOM     19  O   UNL     1       1.342  -6.557   3.180  0.00  0.00    -0.153 OA
ATOM     20  O   UNL     1       0.102  -6.888   1.046  0.00  0.00    -0.153 OA
BRANCH  18  24
ATOM     21  C   UNL     1       0.802  -1.824   1.306  0.00  0.00    +0.121 A 
ATOM     22  C   UNL     1       0.260  -2.673   0.351  0.00  0.00    +0.047 A 
ATOM     23  C   UNL     1       0.372  -4.041   0.502  0.00  0.00    +0.032 A 
ATOM     24  C   UNL     1       1.024  -4.566   1.603  0.00  0.00    +0.105 A 
ATOM     25  C   UNL     1       1.565  -3.722   2.555  0.00  0.00    +0.032 A 
ATOM     26  C   UNL     1       1.460  -2.353   2.406  0.00  0.00    +0.047 A 
BRANCH  21  27
ATOM     27  O   UNL     1       0.693  -0.477   1.160  0.00  0.00    -0.492 OA
BRANCH  27  29
ATOM     28  C   UNL     1      -0.019   1.526   0.010  0.00  0.00    +0.048 C 
ATOM     29  C   UNL     1       0.002  -0.004   0.002  0.00  0.00    +0.225 C 
ENDBRANCH  27  29
ENDBRANCH  21  27
ENDBRANCH  18  24
ENDBRANCH  16  18
ENDBRANCH   1  16
BRANCH   1  30
ATOM     30  C   UNL     1       4.438  -7.375   2.506  0.00  0.00    +0.063 C 
BRANCH  30  31
ATOM     31  C   UNL     1       3.548  -7.516   3.714  0.00  0.00    -0.040 C 
ATOM     32  C   UNL     1       2.559  -8.422   3.894  0.00  0.00    -0.001 A 
ATOM     33  C   UNL     1       2.036  -9.504   3.051  0.00  0.00    +0.010 A 
ATOM     34  C   UNL     1       1.014 -10.260   3.514  0.00  0.00    +0.001 A 
ATOM     35  C   UNL     1       0.444 -10.037   4.774  0.00  0.00    +0.002 A 
ATOM     36  C   UNL     1       0.870  -9.062   5.605  0.00  0.00    +0.026 A 
ATOM     37  C   UNL     1       1.939  -8.207   5.221  0.00  0.00    +0.043 A 
ATOM     38  N   UNL     1       2.522  -7.207   5.838  0.00  0.00    -0.380 N 
ATOM     39  C   UNL     1       3.583  -6.679   4.973  0.00  0.00    +0.144 C 
ATOM     40  H   UNL     1       2.294  -6.875   6.720  0.00  0.00    +0.160 HD
ENDBRANCH  30  31
ENDBRANCH   1  30
TORSDOF 10
