REMARK  Name = ZINC08769224
REMARK  6 active torsions:
REMARK  status: ('A' for Active; 'I' for Inactive)
REMARK    1  A    between atoms: C_4  and  C_7
REMARK    2  A    between atoms: C_7  and  N_56
REMARK    3  A    between atoms: N_15  and  C_19
REMARK    4  A    between atoms: C_19  and  C_20
REMARK    5  A    between atoms: N_22  and  C_23
REMARK    6  A    between atoms: C_23  and  C_24
REMARK                            x       y       z     vdW  Elec       q    Type
REMARK                         _______ _______ _______ _____ _____    ______ ____
ROOT
ATOM      1  C   UNL     1       0.800  -0.493  -1.210  0.00  0.00    -0.076 C 
ATOM      2  C   UNL     1       0.002  -0.004   0.002  0.00  0.00    +0.017 C 
ATOM      3  C   UNL     1      -0.019   1.521   0.010  0.00  0.00    +0.109 C 
ATOM      4  C   UNL     1       1.403   2.074  -0.000  0.00  0.00    +0.017 C 
ATOM      5  C   UNL     1       2.155   1.517  -1.212  0.00  0.00    -0.076 C 
ATOM      6  C   UNL     1      -0.776   2.033   1.213  0.00  0.00    +0.247 C 
ATOM      7  O   UNL     1      -0.507   1.853   2.381  0.00  0.00    -0.273 OA
ATOM      8  N   UNL     1      -1.815   2.733   0.713  0.00  0.00    -0.215 N 
ATOM      9  C   UNL     1      -1.813   2.730  -0.626  0.00  0.00    +0.310 C 
ATOM     10  O   UNL     1      -2.649   3.293  -1.305  0.00  0.00    -0.252 OA
ATOM     11  N   UNL     1      -0.779   2.033  -1.136  0.00  0.00    -0.285 N 
ATOM     12  H   UNL     1      -0.578   1.896  -2.075  0.00  0.00    +0.151 HD
ATOM     13  N   UNL     1       2.176   0.041  -1.125  0.00  0.00    +0.382 N 
ATOM     14  H   UNL     1       2.584  -0.233  -0.223  0.00  0.00    -0.081 HD
ENDROOT
BRANCH  13  15
ATOM     15  C   UNL     1       3.002  -0.517  -2.215  0.00  0.00    -0.043 C 
BRANCH  15  19
ATOM     16  C   UNL     1       7.078   0.572  -1.545  0.00  0.00    +0.000 A 
ATOM     17  C   UNL     1       6.576  -0.596  -1.000  0.00  0.00    +0.000 A 
ATOM     18  C   UNL     1       5.257  -0.948  -1.217  0.00  0.00    +0.002 A 
ATOM     19  C   UNL     1       4.440  -0.133  -1.978  0.00  0.00    -0.064 A 
ATOM     20  C   UNL     1       4.944   1.032  -2.527  0.00  0.00    +0.002 A 
ATOM     21  C   UNL     1       6.261   1.387  -2.306  0.00  0.00    +0.000 A 
ENDBRANCH  15  19
ENDBRANCH  13  15
BRANCH   8  22
ATOM     22  C   UNL     1      -2.822   3.413   1.533  0.00  0.00    +0.213 C 
BRANCH  22  23
ATOM     23  C   UNL     1      -3.961   2.467   1.816  0.00  0.00    +0.231 C 
ATOM     24  O   UNL     1      -3.935   1.337   1.376  0.00  0.00    -0.274 OA
ATOM     25  N   UNL     1      -5.008   2.878   2.558  0.00  0.00    -0.310 N 
ATOM     26  H   UNL     1      -5.029   3.781   2.909  0.00  0.00    +0.149 HD
BRANCH  25  27
ATOM     27  C   UNL     1      -6.116   1.959   2.833  0.00  0.00    +0.139 C 
BRANCH  27  28
ATOM     28  C   UNL     1      -7.151   2.658   3.676  0.00  0.00    -0.030 A 
ATOM     29  C   UNL     1      -7.072   2.600   5.055  0.00  0.00    +0.008 A 
ATOM     30  C   UNL     1      -8.018   3.244   5.829  0.00  0.00    +0.038 A 
ATOM     31  C   UNL     1      -9.051   3.940   5.224  0.00  0.00    +0.123 A 
ATOM     32  C   UNL     1      -9.132   3.993   3.842  0.00  0.00    +0.038 A 
ATOM     33  C   UNL     1      -8.182   3.352   3.070  0.00  0.00    +0.008 A 
ATOM     34  F   UNL     1      -9.979   4.566   5.980  0.00  0.00    -0.205 F 
ENDBRANCH  27  28
ENDBRANCH  25  27
ENDBRANCH  22  23
ENDBRANCH   8  22
TORSDOF 6
