REMARK  Name = ZINC14662998
REMARK  13 active torsions:
REMARK  status: ('A' for Active; 'I' for Inactive)
REMARK    1  A    between atoms: C_1  and  O_2
REMARK    2  A    between atoms: O_2  and  C_3
REMARK    3  A    between atoms: C_3  and  C_4
REMARK    4  A    between atoms: C_4  and  O_5
REMARK    5  A    between atoms: O_5  and  C_6
REMARK    6  A    between atoms: C_11  and  C_12
REMARK    7  A    between atoms: N_14  and  C_15
REMARK    8  A    between atoms: C_15  and  N_17
REMARK    9  A    between atoms: N_17  and  N_18
REMARK   10  A    between atoms: C_19  and  C_21
REMARK   11  A    between atoms: C_24  and  O_27
REMARK   12  A    between atoms: O_27  and  C_28
REMARK   13  A    between atoms: C_28  and  C_29
REMARK                            x       y       z     vdW  Elec       q    Type
REMARK                         _______ _______ _______ _____ _____    ______ ____
ROOT
ATOM      1  C   UNL     1       3.540   5.996  -0.001  0.00  0.00    +0.153 C 
ATOM      2  S   UNL     1       5.041   5.171  -0.020  0.00  0.00    -0.017 S 
ENDROOT
BRANCH   1   5
ATOM      3  C   UNL     1       2.416   3.950  -0.001  0.00  0.00    +0.253 C 
ATOM      4  O   UNL     1       3.481   3.365  -0.014  0.00  0.00    -0.270 OA
ATOM      5  N   UNL     1       2.388   5.298   0.006  0.00  0.00    -0.263 N 
ATOM      6  H   UNL     1       1.538   5.765   0.017  0.00  0.00    +0.157 HD
BRANCH   3  12
ATOM      7  C   UNL     1       1.180   1.785   0.000  0.00  0.00    +0.133 A 
ATOM      8  C   UNL     1      -0.013   1.076   0.008  0.00  0.00    +0.047 A 
ATOM      9  C   UNL     1      -1.218   1.749   0.017  0.00  0.00    +0.019 A 
ATOM     10  C   UNL     1      -1.247   3.135   0.030  0.00  0.00    +0.019 A 
ATOM     11  C   UNL     1      -0.072   3.855   0.022  0.00  0.00    +0.032 A 
ATOM     12  C   UNL     1       1.155   3.186   0.008  0.00  0.00    +0.080 A 
ATOM     13 BR   UNL     1      -2.907   4.041   0.050  0.00  0.00    -0.050 Br
BRANCH   7  14
ATOM     14  O   UNL     1       2.365   1.124  -0.015  0.00  0.00    -0.489 OA
BRANCH  14  15
ATOM     15  C   UNL     1       2.312  -0.304  -0.022  0.00  0.00    +0.257 C 
BRANCH  15  16
ATOM     16  C   UNL     1       3.734  -0.867  -0.038  0.00  0.00    +0.200 C 
BRANCH  16  18
ATOM     17  C   UNL     1       5.741  -1.000   1.265  0.00  0.00    +0.194 C 
ATOM     18  O   UNL     1       4.398  -0.519   1.178  0.00  0.00    -0.380 OA
ENDBRANCH  16  18
ENDBRANCH  15  16
ENDBRANCH  14  15
ENDBRANCH   7  14
ENDBRANCH   3  12
ENDBRANCH   1   5
BRANCH   1  19
ATOM     19  N   UNL     1       3.512   7.343   0.006  0.00  0.00    -0.245 N 
ATOM     20  H   UNL     1       4.342   7.846   0.000  0.00  0.00    +0.172 HD
BRANCH  19  21
ATOM     21  N   UNL     1       2.284   8.018   0.021  0.00  0.00    -0.231 N 
ATOM     22  C   UNL     1       2.256   9.365   0.028  0.00  0.00    +0.260 C 
ATOM     23  O   UNL     1       3.296   9.995   0.021  0.00  0.00    -0.269 OA
ATOM     24  H   UNL     1       1.455   7.515   0.027  0.00  0.00    +0.173 HD
BRANCH  22  25
ATOM     25  C   UNL     1       0.963  10.076   0.044  0.00  0.00    +0.038 A 
ATOM     26  C   UNL     1      -0.234   9.354   0.046  0.00  0.00    +0.016 A 
ATOM     27  C   UNL     1      -1.438  10.021   0.066  0.00  0.00    +0.046 A 
ATOM     28  C   UNL     1      -1.465  11.411   0.073  0.00  0.00    +0.121 A 
ATOM     29  C   UNL     1      -0.278  12.133   0.066  0.00  0.00    +0.046 A 
ATOM     30  C   UNL     1       0.931  11.473   0.052  0.00  0.00    +0.016 A 
BRANCH  28  31
ATOM     31  O   UNL     1      -2.655  12.065   0.088  0.00  0.00    -0.488 OA
BRANCH  31  32
ATOM     32  C   UNL     1      -3.836  11.261   0.094  0.00  0.00    +0.256 C 
BRANCH  32  33
ATOM     33  C   UNL     1      -5.050  12.154   0.110  0.00  0.00    +0.006 C 
ATOM     34  C   UNL     1      -6.061  11.900  -0.684  0.00  0.00    +0.007 C 
ENDBRANCH  32  33
ENDBRANCH  31  32
ENDBRANCH  28  31
ENDBRANCH  22  25
ENDBRANCH  19  21
ENDBRANCH   1  19
TORSDOF 12
