REMARK  Name = ZINC64539766
REMARK  7 active torsions:
REMARK  status: ('A' for Active; 'I' for Inactive)
REMARK    1  A    between atoms: C_1  and  C_2
REMARK    2  A    between atoms: C_5  and  C_8
REMARK    3  A    between atoms: C_12  and  C_15
REMARK    4  A    between atoms: C_23  and  N_25
REMARK    5  A    between atoms: N_25  and  C_26
REMARK    6  A    between atoms: C_26  and  C_27
REMARK    7  A    between atoms: C_27  and  C_28
REMARK                            x       y       z     vdW  Elec       q    Type
REMARK                         _______ _______ _______ _____ _____    ______ ____
ROOT
ATOM      1  C   UNL     1      -2.460  -6.226   1.472  0.00  0.00    +0.185 A 
ATOM      2  N   UNL     1      -2.034  -6.529   2.675  0.00  0.00    -0.227 NA
ATOM      3  C   UNL     1      -2.503  -7.613   3.310  0.00  0.00    +0.076 A 
ATOM      4  C   UNL     1      -2.071  -7.966   4.596  0.00  0.00    +0.028 A 
ATOM      5  C   UNL     1      -2.582  -9.078   5.196  0.00  0.00    +0.002 A 
ATOM      6  C   UNL     1      -3.527  -9.871   4.551  0.00  0.00    +0.001 A 
ATOM      7  C   UNL     1      -3.970  -9.556   3.300  0.00  0.00    +0.013 A 
ATOM      8  C   UNL     1      -3.466  -8.420   2.657  0.00  0.00    +0.040 A 
ATOM      9  C   UNL     1      -3.887  -8.041   1.359  0.00  0.00    +0.130 A 
ATOM     10  N   UNL     1      -3.362  -6.947   0.825  0.00  0.00    -0.212 NA
ENDROOT
BRANCH   1  14
ATOM     11  C   UNL     1       0.059  -4.275  -0.021  0.00  0.00    +0.290 C 
ATOM     12  N   UNL     1      -0.783  -4.790  -1.109  0.00  0.00    -0.152 NA
ATOM     13  N   UNL     1      -1.865  -5.188  -0.656  0.00  0.00    -0.149 NA
ATOM     14  C   UNL     1      -1.903  -4.998   0.799  0.00  0.00    +0.327 C 
ATOM     15  O   UNL     1      -0.528  -4.790   1.192  0.00  0.00    -0.316 OA
BRANCH  11  20
ATOM     16  C   UNL     1      -0.018   1.503   0.010  0.00  0.00    +0.044 C 
ATOM     17  C   UNL     1       0.002  -0.004   0.002  0.00  0.00    -0.050 A 
ATOM     18  C   UNL     1       0.006  -0.689  -1.199  0.00  0.00    +0.004 A 
ATOM     19  C   UNL     1       0.025  -2.071  -1.206  0.00  0.00    +0.008 A 
ATOM     20  C   UNL     1       0.040  -2.768  -0.013  0.00  0.00    +0.005 A 
ATOM     21  C   UNL     1       0.037  -2.084   1.188  0.00  0.00    +0.008 A 
ATOM     22  C   UNL     1       0.023  -0.702   1.195  0.00  0.00    +0.004 A 
ENDBRANCH  11  20
ENDBRANCH   1  14
BRANCH   9  23
ATOM     23  N   UNL     1      -4.821  -8.787   0.672  0.00  0.00    -0.328 N 
ATOM     24  H   UNL     1      -5.199  -9.583   1.077  0.00  0.00    +0.147 HD
BRANCH  23  25
ATOM     25  C   UNL     1      -5.242  -8.376  -0.670  0.00  0.00    +0.109 C 
BRANCH  25  26
ATOM     26  C   UNL     1      -6.278  -9.367  -1.205  0.00  0.00    +0.073 C 
BRANCH  26  27
ATOM     27  C   UNL     1      -6.711  -8.945  -2.585  0.00  0.00    +0.035 A 
ATOM     28  H   UNL     1      -6.609  -8.709  -5.694  0.00  0.00    +0.166 HD
ATOM     29  C   UNL     1      -6.084  -9.247  -3.738  0.00  0.00    +0.105 A 
ATOM     30  N   UNL     1      -6.809  -8.670  -4.746  0.00  0.00    -0.352 N 
ATOM     31  C   UNL     1      -7.854  -8.035  -4.173  0.00  0.00    +0.171 A 
ATOM     32  N   UNL     1      -7.792  -8.208  -2.881  0.00  0.00    -0.350 N 
ATOM     33  H   UNL     1      -8.426  -7.858  -2.236  0.00  0.00    +0.166 HD
ENDBRANCH  26  27
ENDBRANCH  25  26
ENDBRANCH  23  25
ENDBRANCH   9  23
TORSDOF 6
