REMARK  Name = ZINC39360930
REMARK  8 active torsions:
REMARK  status: ('A' for Active; 'I' for Inactive)
REMARK    1  A    between atoms: C_1  and  C_2
REMARK    2  A    between atoms: C_2  and  O_3
REMARK    3  A    between atoms: O_3  and  C_4
REMARK    4  A    between atoms: C_4  and  C_6
REMARK    5  A    between atoms: C_8  and  N_16
REMARK    6  A    between atoms: N_16  and  C_17
REMARK    7  A    between atoms: C_17  and  N_19
REMARK    8  A    between atoms: N_19  and  C_20
REMARK                            x       y       z     vdW  Elec       q    Type
REMARK                         _______ _______ _______ _____ _____    ______ ____
ROOT
ATOM      1  C   UNL     1      -3.904  -2.280  -0.181  0.00  0.00    +0.234 C 
ATOM      2  C   UNL     1      -4.159  -2.422   1.303  0.00  0.00    +0.052 C 
ATOM      3  C   UNL     1      -4.619  -3.717   1.483  0.00  0.00    +0.018 A 
ATOM      4  C   UNL     1      -5.021  -4.436   2.634  0.00  0.00    +0.011 A 
ATOM      5  C   UNL     1      -5.437  -5.721   2.512  0.00  0.00    +0.001 A 
ATOM      6  C   UNL     1      -5.480  -6.362   1.272  0.00  0.00    +0.002 A 
ATOM      7  C   UNL     1      -5.110  -5.736   0.128  0.00  0.00    +0.026 A 
ATOM      8  C   UNL     1      -4.663  -4.389   0.174  0.00  0.00    +0.045 A 
ATOM      9  N   UNL     1      -4.256  -3.572  -0.779  0.00  0.00    -0.367 N 
ATOM     10  H   UNL     1      -4.200  -3.790  -1.722  0.00  0.00    +0.161 HD
ENDROOT
BRANCH   1  11
ATOM     11  C   UNL     1      -2.450  -1.972  -0.431  0.00  0.00    +0.336 C 
ATOM     12  O   UNL     1      -1.654  -2.872  -0.554  0.00  0.00    -0.248 OA
BRANCH  11  13
ATOM     13  O   UNL     1      -2.040  -0.697  -0.518  0.00  0.00    -0.463 OA
BRANCH  13  15
ATOM     14  C   UNL     1      -0.372   1.026  -0.823  0.00  0.00    +0.048 C 
ATOM     15  C   UNL     1      -0.648  -0.478  -0.756  0.00  0.00    +0.229 C 
ENDBRANCH  13  15
ENDBRANCH  11  13
ENDBRANCH   1  11
BRANCH   2  16
ATOM     16  N   UNL     1      -3.973  -1.476   2.262  0.00  0.00    -0.297 N 
ATOM     17  H   UNL     1      -3.958  -1.730   3.198  0.00  0.00    +0.154 HD
BRANCH  16  18
ATOM     18  C   UNL     1      -3.810  -0.185   1.912  0.00  0.00    +0.139 C 
ATOM     19  S   UNL     1      -3.987   0.288   0.276  0.00  0.00    -0.018 S 
BRANCH  18  20
ATOM     20  N   UNL     1      -3.506   0.734   2.850  0.00  0.00    -0.297 N 
ATOM     21  H   UNL     1      -3.480   0.482   3.786  0.00  0.00    +0.154 HD
BRANCH  20  22
ATOM     22  C   UNL     1      -3.230   2.053   2.473  0.00  0.00    +0.034 A 
ATOM     23  C   UNL     1      -4.044   2.699   1.551  0.00  0.00    +0.025 A 
ATOM     24  C   UNL     1      -3.770   4.000   1.181  0.00  0.00    +0.023 A 
ATOM     25  C   UNL     1      -2.684   4.663   1.727  0.00  0.00    +0.059 A 
ATOM     26  C   UNL     1      -1.871   4.022   2.647  0.00  0.00    +0.061 A 
ATOM     27  C   UNL     1      -2.145   2.721   3.025  0.00  0.00    +0.044 A 
ATOM     28 CL   UNL     1      -0.510   4.856   3.330  0.00  0.00    -0.082 Cl
ATOM     29 CL   UNL     1      -2.342   6.299   1.259  0.00  0.00    -0.082 Cl
ENDBRANCH  20  22
ENDBRANCH  18  20
ENDBRANCH  16  18
ENDBRANCH   2  16
TORSDOF 7
