REMARK  Name = ZINC05362624
REMARK  8 active torsions:
REMARK  status: ('A' for Active; 'I' for Inactive)
REMARK    1  A    between atoms: C_1  and  C_2
REMARK    2  A    between atoms: C_2  and  C_4
REMARK    3  A    between atoms: C_2  and  S_11
REMARK    4  A    between atoms: N_9  and  C_10
REMARK    5  A    between atoms: S_11  and  C_12
REMARK    6  A    between atoms: C_15  and  C_24
REMARK    7  A    between atoms: N_16  and  C_17
REMARK    8  A    between atoms: C_24  and  N_54
REMARK                            x       y       z     vdW  Elec       q    Type
REMARK                         _______ _______ _______ _____ _____    ______ ____
ROOT
ATOM      1  C   UNL     1       2.506  -4.483  -0.673  0.00  0.00    +0.197 A 
ATOM      2  N   UNL     1       1.391  -5.093  -0.345  0.00  0.00    -0.122 NA
ATOM      3  N   UNL     1       1.523  -6.362  -0.502  0.00  0.00    -0.135 NA
ATOM      4  C   UNL     1       2.720  -6.637  -0.937  0.00  0.00    +0.122 A 
ATOM      5  N   UNL     1       3.389  -5.450  -1.068  0.00  0.00    -0.276 N 
ENDROOT
BRANCH   5   6
ATOM      6  C   UNL     1       4.708  -5.263  -1.511  0.00  0.00    +0.050 A 
ATOM      7  C   UNL     1       5.054  -5.587  -2.816  0.00  0.00    +0.029 A 
ATOM      8  C   UNL     1       6.351  -5.398  -3.252  0.00  0.00    +0.040 A 
ATOM      9  C   UNL     1       7.308  -4.897  -2.385  0.00  0.00    +0.124 A 
ATOM     10  C   UNL     1       6.965  -4.579  -1.082  0.00  0.00    +0.040 A 
ATOM     11  C   UNL     1       5.668  -4.761  -0.644  0.00  0.00    +0.029 A 
ATOM     12  F   UNL     1       8.577  -4.719  -2.812  0.00  0.00    -0.205 F 
ENDBRANCH   5   6
BRANCH   1  13
ATOM     13  S   UNL     1       2.805  -2.747  -0.623  0.00  0.00    -0.073 S 
BRANCH  13  15
ATOM     14  C   UNL     1       0.969  -2.690   1.399  0.00  0.00    +0.029 C 
ATOM     15  C   UNL     1       1.199  -2.169  -0.021  0.00  0.00    +0.137 C 
BRANCH  15  16
ATOM     16  C   UNL     1       1.178  -0.662  -0.013  0.00  0.00    +0.233 C 
ATOM     17  O   UNL     1       2.220  -0.042  -0.019  0.00  0.00    -0.274 OA
ATOM     18  N   UNL     1       0.002  -0.004   0.002  0.00  0.00    -0.239 N 
ATOM     19  C   UNL     1      -0.016   1.344   0.009  0.00  0.00    +0.306 C 
ATOM     20  O   UNL     1       1.028   1.966   0.003  0.00  0.00    -0.252 OA
ATOM     21  N   UNL     1      -1.192   2.002   0.019  0.00  0.00    -0.302 N 
ATOM     22  C   UNL     1      -1.212   3.466   0.027  0.00  0.00    +0.129 C 
ATOM     23  H   UNL     1      -0.831  -0.500   0.007  0.00  0.00    +0.159 HD
ATOM     24  H   UNL     1      -2.026   1.505   0.020  0.00  0.00    +0.150 HD
ENDBRANCH  15  16
ENDBRANCH  13  15
ENDBRANCH   1  13
BRANCH   4  25
ATOM     25  C   UNL     1       3.265  -8.008  -1.245  0.00  0.00    -0.001 C 
BRANCH  25  31
ATOM     26  C   UNL     1       1.551  -8.468  -2.892  0.00  0.00    -0.078 C 
ATOM     27  C   UNL     1       1.298  -8.667  -4.388  0.00  0.00    -0.019 C 
ATOM     28  C   UNL     1       2.029  -9.927  -4.861  0.00  0.00    -0.004 C 
ATOM     29  C   UNL     1       3.522  -9.787  -4.554  0.00  0.00    -0.019 C 
ATOM     30  C   UNL     1       3.710  -9.555  -3.053  0.00  0.00    -0.078 C 
ATOM     31  N   UNL     1       3.004  -8.316  -2.667  0.00  0.00    +0.384 N 
ATOM     32  H   UNL     1       3.351  -7.541  -3.244  0.00  0.00    -0.081 HD
ENDBRANCH  25  31
ENDBRANCH   4  25
TORSDOF 6
