REMARK  Name = ZINC23083239
REMARK  7 active torsions:
REMARK  status: ('A' for Active; 'I' for Inactive)
REMARK    1  A    between atoms: C_3  and  S_24
REMARK    2  A    between atoms: C_6  and  N_7
REMARK    3  A    between atoms: C_8  and  C_10
REMARK    4  A    between atoms: C_10  and  N_11
REMARK    5  A    between atoms: N_14  and  C_17
REMARK    6  A    between atoms: C_17  and  C_18
REMARK    7  A    between atoms: S_24  and  N_27
REMARK                            x       y       z     vdW  Elec       q    Type
REMARK                         _______ _______ _______ _____ _____    ______ ____
ROOT
ATOM      1  N   UNL     1      -0.011   0.966   0.007  0.00  0.00    -0.287 N 
ATOM      2  C   UNL     1       1.050   1.777  -0.174  0.00  0.00    +0.201 C 
ATOM      3  O   UNL     1       0.879   2.953  -0.417  0.00  0.00    -0.278 OA
ATOM      4  H   UNL     1       0.140  -0.115   0.144  0.00  0.00    +0.155 HD
ENDROOT
BRANCH   1  10
ATOM      5  C   UNL     1      -1.528   2.769   0.536  0.00  0.00    +0.025 A 
ATOM      6  C   UNL     1      -2.805   3.295   0.543  0.00  0.00    +0.030 A 
ATOM      7  C   UNL     1      -3.863   2.553   0.051  0.00  0.00    +0.105 A 
ATOM      8  C   UNL     1      -3.645   1.284  -0.456  0.00  0.00    +0.030 A 
ATOM      9  C   UNL     1      -2.369   0.756  -0.472  0.00  0.00    +0.025 A 
ATOM     10  C   UNL     1      -1.305   1.499   0.022  0.00  0.00    +0.033 A 
BRANCH   7  11
ATOM     11  S   UNL     1      -5.492   3.224   0.068  0.00  0.00    +0.056 S 
ATOM     12  O   UNL     1      -5.348   4.637   0.091  0.00  0.00    -0.153 OA
ATOM     13  O   UNL     1      -6.221   2.549  -0.948  0.00  0.00    -0.153 OA
BRANCH  11  14
ATOM     14  N   UNL     1      -6.183   2.795   1.511  0.00  0.00    -0.204 NA
ATOM     15  H   UNL     1      -7.206   3.197   1.561  0.00  0.00    +0.144 HD
ATOM     16  H   UNL     1      -5.587   3.205   2.339  0.00  0.00    +0.144 HD
ENDBRANCH  11  14
ENDBRANCH   7  11
ENDBRANCH   1  10
BRANCH   2  17
ATOM     17  C   UNL     1       2.448   1.223  -0.076  0.00  0.00    +0.019 C 
BRANCH  17  18
ATOM     18  N   UNL     1       3.419   2.299  -0.312  0.00  0.00    +0.387 N 
ATOM     19  C   UNL     1       3.337   2.789  -1.695  0.00  0.00    -0.063 C 
ATOM     20  C   UNL     1       4.306   3.960  -1.877  0.00  0.00    +0.066 C 
ATOM     21  N   UNL     1       5.670   3.517  -1.559  0.00  0.00    -0.301 NA
ATOM     22  C   UNL     1       5.752   3.027  -0.175  0.00  0.00    +0.066 C 
ATOM     23  C   UNL     1       4.784   1.857   0.007  0.00  0.00    -0.063 C 
ATOM     24  H   UNL     1       3.167   3.133   0.359  0.00  0.00    -0.081 HD
BRANCH  21  25
ATOM     25  C   UNL     1       6.642   4.594  -1.794  0.00  0.00    +0.126 C 
BRANCH  25  26
ATOM     26  C   UNL     1       6.367   5.234  -3.130  0.00  0.00    +0.005 A 
ATOM     27  C   UNL     1       5.562   6.284  -3.424  0.00  0.00    +0.014 A 
ATOM     28  C   UNL     1       5.462   6.707  -4.736  0.00  0.00    +0.028 A 
ATOM     29  C   UNL     1       6.173   6.057  -5.692  0.00  0.00    +0.078 A 
ATOM     30  S   UNL     1       7.023   4.812  -4.736  0.00  0.00    -0.080 S 
ATOM     31 CL   UNL     1       6.244   6.363  -7.399  0.00  0.00    -0.076 Cl
ENDBRANCH  25  26
ENDBRANCH  21  25
ENDBRANCH  17  18
ENDBRANCH   2  17
TORSDOF 7
