REMARK  Name = ZINC39606746
REMARK  6 active torsions:
REMARK  status: ('A' for Active; 'I' for Inactive)
REMARK    1  A    between atoms: C_1  and  C_2
REMARK    2  A    between atoms: C_9  and  C_14
REMARK    3  A    between atoms: C_14  and  O_16
REMARK    4  A    between atoms: O_16  and  C_17
REMARK    5  A    between atoms: C_17  and  C_18
REMARK    6  A    between atoms: N_20  and  C_21
REMARK                            x       y       z     vdW  Elec       q    Type
REMARK                         _______ _______ _______ _____ _____    ______ ____
ROOT
ATOM      1  C   UNL     1      -0.463  -8.649   2.211  0.00  0.00    +0.328 C 
ENDROOT
BRANCH   1   2
ATOM      2  C   UNL     1       0.588  -9.539   2.822  0.00  0.00    +0.255 C 
ATOM      3  O   UNL     1       1.635  -9.063   3.210  0.00  0.00    -0.272 OA
ATOM      4  N   UNL     1       0.366 -10.863   2.939  0.00  0.00    -0.283 N 
ATOM      5  H   UNL     1      -0.496 -11.234   2.692  0.00  0.00    +0.155 HD
BRANCH   4   6
ATOM      6  C   UNL     1       1.379 -11.704   3.418  0.00  0.00    +0.037 A 
ATOM      7  C   UNL     1       1.513 -12.989   2.909  0.00  0.00    +0.027 A 
ATOM      8  C   UNL     1       2.512 -13.820   3.380  0.00  0.00    +0.051 A 
ATOM      9  C   UNL     1       3.381 -13.373   4.359  0.00  0.00    +0.167 A 
ATOM     10  C   UNL     1       3.250 -12.082   4.872  0.00  0.00    +0.169 A 
ATOM     11  C   UNL     1       2.253 -11.249   4.397  0.00  0.00    +0.073 A 
ATOM     12  O   UNL     1       4.226 -11.892   5.814  0.00  0.00    -0.447 OA
ATOM     13  C   UNL     1       4.600 -13.224   6.196  0.00  0.00    +0.254 C 
ATOM     14  O   UNL     1       4.438 -13.980   4.988  0.00  0.00    -0.448 OA
ATOM     15  C   UNL     1       3.697 -13.756   7.314  0.00  0.00    +0.093 C 
ATOM     16  C   UNL     1       4.644 -14.632   8.175  0.00  0.00    +0.008 C 
ATOM     17  C   UNL     1       5.976 -13.840   8.138  0.00  0.00    +0.008 C 
ATOM     18  C   UNL     1       6.042 -13.277   6.700  0.00  0.00    +0.093 C 
ENDBRANCH   4   6
ENDBRANCH   1   2
BRANCH   1  19
ATOM     19  O   UNL     1       0.004  -7.299   2.198  0.00  0.00    -0.452 OA
BRANCH  19  20
ATOM     20  C   UNL     1      -0.824  -6.370   1.679  0.00  0.00    +0.340 C 
ATOM     21  O   UNL     1      -1.912  -6.698   1.249  0.00  0.00    -0.245 OA
BRANCH  20  29
ATOM     22  C   UNL     1      -0.027   1.526   0.013  0.00  0.00    +0.029 C 
ATOM     23  C   UNL     1      -0.008  -0.004   0.004  0.00  0.00    +0.134 C 
ATOM     24  C   UNL     1      -1.418  -0.526   0.032  0.00  0.00    +0.230 C 
ATOM     25  O   UNL     1      -2.299   0.181  -0.410  0.00  0.00    -0.274 OA
ATOM     26  N   UNL     1      -1.753  -1.719   0.515  0.00  0.00    -0.284 N 
ATOM     27  C   UNL     1      -0.882  -2.665   1.050  0.00  0.00    +0.048 A 
ATOM     28  C   UNL     1      -1.268  -3.995   1.095  0.00  0.00    +0.039 A 
ATOM     29  C   UNL     1      -0.409  -4.957   1.633  0.00  0.00    +0.061 A 
ATOM     30  C   UNL     1       0.844  -4.581   2.129  0.00  0.00    +0.016 A 
ATOM     31  C   UNL     1       1.229  -3.259   2.083  0.00  0.00    +0.017 A 
ATOM     32  C   UNL     1       0.376  -2.304   1.546  0.00  0.00    +0.030 A 
ATOM     33  S   UNL     1       0.874  -0.611   1.474  0.00  0.00    -0.111 S 
ATOM     34  H   UNL     1      -2.694  -1.953   0.492  0.00  0.00    +0.155 HD
ENDBRANCH  20  29
ENDBRANCH  19  20
ENDBRANCH   1  19
TORSDOF 5
