REMARK  Name = ZINC16811209
REMARK  6 active torsions:
REMARK  status: ('A' for Active; 'I' for Inactive)
REMARK    1  A    between atoms: C_5  and  C_7
REMARK    2  A    between atoms: C_10  and  S_13
REMARK    3  A    between atoms: S_13  and  C_14
REMARK    4  A    between atoms: C_14  and  C_15
REMARK    5  A    between atoms: C_18  and  C_24
REMARK    6  A    between atoms: C_20  and  N_21
REMARK                            x       y       z     vdW  Elec       q    Type
REMARK                         _______ _______ _______ _____ _____    ______ ____
ROOT
ATOM      1  C   UNL     1       1.545  -6.981  -0.046  0.00  0.00    +0.114 C 
ENDROOT
BRANCH   1   2
ATOM      2  C   UNL     1       2.192  -8.342  -0.062  0.00  0.00    -0.007 A 
ATOM      3  C   UNL     1       2.584  -8.932   1.127  0.00  0.00    +0.007 A 
ATOM      4  C   UNL     1       3.176 -10.178   1.119  0.00  0.00    +0.013 A 
ATOM      5  C   UNL     1       3.379 -10.843  -0.091  0.00  0.00    +0.039 A 
ATOM      6  C   UNL     1       2.982 -10.242  -1.286  0.00  0.00    +0.046 A 
ATOM      7  C   UNL     1       2.386  -8.998  -1.264  0.00  0.00    +0.131 A 
BRANCH   5   8
ATOM      8  C   UNL     1       4.014 -12.179  -0.107  0.00  0.00    +0.242 C 
ATOM      9  O   UNL     1       4.190 -12.755  -1.162  0.00  0.00    -0.270 OA
ATOM     10  N   UNL     1       4.397 -12.757   1.049  0.00  0.00    -0.325 N 
ATOM     11  H   UNL     1       4.869 -13.750   1.038  0.00  0.00    +0.145 HD
ATOM     12  H   UNL     1       4.237 -12.235   2.004  0.00  0.00    +0.145 HD
ENDBRANCH   5   8
BRANCH   7  13
ATOM     13  N   UNL     1       1.958  -8.361  -2.530  0.00  0.00    +0.057 N 
ATOM     14  O   UNL     1       2.025  -8.982  -3.576  0.00  0.00    -0.126 OA
ATOM     15  O   UNL     1       1.540  -7.218  -2.526  0.00  0.00    -0.126 OA
ENDBRANCH   7  13
ENDBRANCH   1   2
BRANCH   1  16
ATOM     16  S   UNL     1       2.793  -5.715  -0.385  0.00  0.00    -0.082 S 
BRANCH  16  20
ATOM     17  C   UNL     1       1.088  -2.200  -0.337  0.00  0.00    +0.183 A 
ATOM     18  N   UNL     1       2.210  -2.981  -0.489  0.00  0.00    -0.201 NA
ATOM     19  H   UNL     1      -0.208  -5.045   0.133  0.00  0.00    +0.191 HD
ATOM     20  C   UNL     1       1.791  -4.268  -0.307  0.00  0.00    +0.185 A 
ATOM     21  N   UNL     1       0.500  -4.226  -0.064  0.00  0.00    -0.253 N 
ATOM     22  N   UNL     1       0.088  -3.009  -0.076  0.00  0.00    -0.152 NA
BRANCH  17  27
ATOM     23  C   UNL     1       2.106   1.382  -0.825  0.00  0.00    +0.001 A 
ATOM     24  C   UNL     1       0.897   2.032  -0.652  0.00  0.00    +0.001 A 
ATOM     25  C   UNL     1      -0.250   1.310  -0.377  0.00  0.00    +0.016 A 
ATOM     26  C   UNL     1      -0.196  -0.065  -0.273  0.00  0.00    +0.029 A 
ATOM     27  C   UNL     1       1.022  -0.727  -0.447  0.00  0.00    +0.035 A 
ATOM     28  C   UNL     1       2.175   0.008  -0.724  0.00  0.00    +0.013 A 
ATOM     29 BR   UNL     1      -1.765  -1.051   0.102  0.00  0.00    -0.050 Br
ENDBRANCH  17  27
ENDBRANCH  16  20
ENDBRANCH   1  16
TORSDOF 6
