REMARK  Name = ZINC09112898
REMARK  10 active torsions:
REMARK  status: ('A' for Active; 'I' for Inactive)
REMARK    1  A    between atoms: C_1  and  N_2
REMARK    2  A    between atoms: N_2  and  S_3
REMARK    3  A    between atoms: S_3  and  C_6
REMARK    4  A    between atoms: C_6  and  C_7
REMARK    5  A    between atoms: C_12  and  C_13
REMARK    6  A    between atoms: C_13  and  N_56
REMARK    7  A    between atoms: C_14  and  C_16
REMARK    8  A    between atoms: C_14  and  C_22
REMARK    9  A    between atoms: C_14  and  N_56
REMARK   10  A    between atoms: C_22  and  C_24
REMARK                            x       y       z     vdW  Elec       q    Type
REMARK                         _______ _______ _______ _____ _____    ______ ____
ROOT
ATOM      1  C   UNL     1      -0.134   6.135   2.189  0.00  0.00    +0.032 C 
ENDROOT
BRANCH   1   2
ATOM      2  C   UNL     1       0.699   6.982   3.116  0.00  0.00    -0.054 A 
ATOM      3  C   UNL     1       0.425   6.998   4.471  0.00  0.00    +0.002 A 
ATOM      4  C   UNL     1       1.192   7.772   5.322  0.00  0.00    +0.000 A 
ATOM      5  C   UNL     1       2.227   8.536   4.817  0.00  0.00    +0.000 A 
ATOM      6  C   UNL     1       2.498   8.524   3.462  0.00  0.00    +0.000 A 
ATOM      7  C   UNL     1       1.733   7.747   2.611  0.00  0.00    +0.002 A 
ENDBRANCH   1   2
BRANCH   1   8
ATOM      8  N   UNL     1      -0.431   4.843   2.836  0.00  0.00    +0.391 N 
ATOM      9  H   UNL     1      -0.553   4.989   3.845  0.00  0.00    -0.084 HD
ATOM     10  H   UNL     1      -1.295   4.456   2.439  0.00  0.00    -0.084 HD
BRANCH   8  11
ATOM     11  C   UNL     1       0.675   3.892   2.613  0.00  0.00    -0.045 C 
BRANCH  11  17
ATOM     12  C   UNL     1      -0.509   1.688   2.668  0.00  0.00    -0.024 A 
ATOM     13  C   UNL     1      -0.817   0.490   3.287  0.00  0.00    +0.005 A 
ATOM     14  C   UNL     1      -0.262   0.184   4.515  0.00  0.00    +0.000 A 
ATOM     15  C   UNL     1       0.592   1.080   5.131  0.00  0.00    +0.000 A 
ATOM     16  C   UNL     1       0.895   2.280   4.515  0.00  0.00    +0.002 A 
ATOM     17  C   UNL     1       0.345   2.584   3.284  0.00  0.00    -0.060 A 
BRANCH  12  18
ATOM     18  C   UNL     1      -1.110   2.020   1.327  0.00  0.00    +0.220 C 
BRANCH  18  19
ATOM     19  S   UNL     1      -0.017   1.417   0.010  0.00  0.00    +0.033 S 
ATOM     20  O   UNL     1       0.002  -0.004   0.002  0.00  0.00    -0.158 OA
ATOM     21  O   UNL     1       1.195   2.158   0.002  0.00  0.00    -0.158 OA
BRANCH  19  23
ATOM     22  C   UNL     1      -0.958   3.250  -1.742  0.00  0.00    +0.127 C 
ATOM     23  N   UNL     1      -0.778   1.837  -1.400  0.00  0.00    -0.197 NA
ATOM     24  H   UNL     1      -1.104   1.147  -1.999  0.00  0.00    +0.147 HD
ENDBRANCH  19  23
ENDBRANCH  18  19
ENDBRANCH  12  18
ENDBRANCH  11  17
ENDBRANCH   8  11
ENDBRANCH   1   8
BRANCH   1  25
ATOM     25  C   UNL     1      -1.428   6.845   1.886  0.00  0.00    +0.156 C 
ATOM     26  O   UNL     1      -2.444   6.534   2.474  0.00  0.00    -0.293 OA
BRANCH  25  27
ATOM     27  C   UNL     1      -1.460   7.877   0.915  0.00  0.00    +0.041 A 
ATOM     28  C   UNL     1      -0.400   8.342   0.167  0.00  0.00    +0.095 A 
ATOM     29  N   UNL     1      -0.820   9.328  -0.649  0.00  0.00    -0.360 N 
ATOM     30  H   UNL     1      -0.252   9.809  -1.270  0.00  0.00    +0.165 HD
ATOM     31  C   UNL     1      -2.170   9.559  -0.480  0.00  0.00    +0.047 A 
ATOM     32  C   UNL     1      -2.636   8.664   0.496  0.00  0.00    +0.010 A 
ATOM     33  C   UNL     1      -3.974   8.679   0.877  0.00  0.00    +0.011 A 
ATOM     34  C   UNL     1      -4.843   9.569   0.281  0.00  0.00    +0.001 A 
ATOM     35  C   UNL     1      -4.386  10.450  -0.688  0.00  0.00    +0.002 A 
ATOM     36  C   UNL     1      -3.062  10.449  -1.069  0.00  0.00    +0.026 A 
ENDBRANCH  25  27
ENDBRANCH   1  25
TORSDOF 9
