REMARK  Name = ZINC60365844
REMARK  4 active torsions:
REMARK  status: ('A' for Active; 'I' for Inactive)
REMARK    1  A    between atoms: C_4  and  N_17
REMARK    2  A    between atoms: C_5  and  C_7
REMARK    3  A    between atoms: C_18  and  C_20
REMARK    4  A    between atoms: C_23  and  C_28
REMARK                            x       y       z     vdW  Elec       q    Type
REMARK                         _______ _______ _______ _____ _____    ______ ____
ROOT
ATOM      1  C   UNL     1      -0.136   1.282  -0.058  0.00  0.00    +0.001 A 
ATOM      2  C   UNL     1       1.008   2.063  -0.098  0.00  0.00    +0.002 A 
ATOM      3  C   UNL     1       2.256   1.475  -0.086  0.00  0.00    +0.024 A 
ATOM      4  C   UNL     1       2.374   0.092  -0.034  0.00  0.00    +0.046 A 
ATOM      5  C   UNL     1       1.218  -0.702   0.006  0.00  0.00    +0.058 A 
ATOM      6  C   UNL     1      -0.039  -0.092  -0.006  0.00  0.00    +0.015 A 
ENDROOT
BRANCH   5   7
ATOM      7  C   UNL     1       1.329  -2.171   0.061  0.00  0.00    +0.251 C 
ATOM      8  O   UNL     1       2.421  -2.695   0.168  0.00  0.00    -0.270 OA
ATOM      9  N   UNL     1       0.220  -2.934  -0.008  0.00  0.00    -0.266 N 
ATOM     10  C   UNL     1       0.313  -4.316   0.149  0.00  0.00    +0.125 A 
ATOM     11  C   UNL     1      -0.845  -5.085   0.182  0.00  0.00    +0.045 A 
ATOM     12  C   UNL     1      -0.738  -6.455   0.338  0.00  0.00    +0.025 A 
ATOM     13  C   UNL     1       0.529  -7.012   0.457  0.00  0.00    +0.059 A 
ATOM     14  C   UNL     1       1.637  -6.187   0.415  0.00  0.00    +0.132 A 
ATOM     15  N   UNL     1       1.504  -4.883   0.260  0.00  0.00    -0.239 NA
ATOM     16 CL   UNL     1       0.719  -8.726   0.655  0.00  0.00    -0.082 Cl
ATOM     17  H   UNL     1      -0.643  -2.521  -0.167  0.00  0.00    +0.157 HD
ENDBRANCH   5   7
BRANCH   4  18
ATOM     18  N   UNL     1       3.632  -0.503  -0.023  0.00  0.00    -0.281 N 
ATOM     19  C   UNL     1       4.697   0.182   0.439  0.00  0.00    +0.254 C 
ATOM     20  O   UNL     1       4.543   1.278   0.944  0.00  0.00    -0.270 OA
ATOM     21  H   UNL     1       3.742  -1.410  -0.348  0.00  0.00    +0.155 HD
BRANCH  19  22
ATOM     22  C   UNL     1       6.042  -0.395   0.332  0.00  0.00    +0.101 A 
ATOM     23  C   UNL     1       7.138   0.256   0.910  0.00  0.00    +0.020 A 
ATOM     24  C   UNL     1       8.397  -0.310   0.795  0.00  0.00    +0.030 A 
ATOM     25  C   UNL     1       8.557  -1.509   0.112  0.00  0.00    +0.085 A 
ATOM     26  N   UNL     1       7.481  -2.140  -0.452  0.00  0.00    -0.319 N 
ATOM     27  H   UNL     1       7.611  -2.977  -0.925  0.00  0.00    +0.169 HD
ATOM     28  C   UNL     1       6.244  -1.619  -0.353  0.00  0.00    +0.261 A 
ATOM     29  O   UNL     1       5.297  -2.197  -0.857  0.00  0.00    -0.267 OA
BRANCH  25  30
ATOM     30  C   UNL     1       9.890  -2.103  -0.007  0.00  0.00    +0.151 A 
ATOM     31  C   UNL     1      10.195  -3.269  -0.652  0.00  0.00    +0.051 A 
ATOM     32  C   UNL     1      11.580  -3.454  -0.517  0.00  0.00    +0.042 A 
ATOM     33  C   UNL     1      12.054  -2.407   0.194  0.00  0.00    +0.196 A 
ATOM     34  O   UNL     1      11.033  -1.592   0.495  0.00  0.00    -0.461 OA
ENDBRANCH  25  30
ENDBRANCH  19  22
ENDBRANCH   4  18
TORSDOF 4
