REMARK  Name = ZINC59177795
REMARK  9 active torsions:
REMARK  status: ('A' for Active; 'I' for Inactive)
REMARK    1  A    between atoms: C_1  and  N_2
REMARK    2  A    between atoms: C_3  and  C_22
REMARK    3  A    between atoms: C_6  and  S_7
REMARK    4  A    between atoms: S_7  and  C_8
REMARK    5  A    between atoms: C_8  and  C_9
REMARK    6  A    between atoms: N_11  and  C_12
REMARK    7  A    between atoms: C_22  and  C_23
REMARK    8  A    between atoms: C_23  and  N_24
REMARK    9  A    between atoms: C_25  and  C_27
REMARK                            x       y       z     vdW  Elec       q    Type
REMARK                         _______ _______ _______ _____ _____    ______ ____
ROOT
ATOM      1  C   UNL     1      -0.054   1.462   0.012  0.00  0.00    +0.152 C 
ATOM      2  N   UNL     1      -0.036  -0.003   0.003  0.00  0.00    -0.309 N 
ATOM      3  C   UNL     1      -0.039  -0.822  -1.091  0.00  0.00    +0.135 A 
ATOM      4  N   UNL     1      -0.018  -2.050  -0.657  0.00  0.00    -0.133 NA
ATOM      5  N   UNL     1      -0.003  -2.063   0.628  0.00  0.00    -0.123 NA
ATOM      6  C   UNL     1      -0.008  -0.833   1.087  0.00  0.00    +0.192 A 
ENDROOT
BRANCH   6   7
ATOM      7  S   UNL     1       0.014  -0.346   2.780  0.00  0.00    -0.077 S 
BRANCH   7   8
ATOM      8  C   UNL     1       0.049  -1.916   3.688  0.00  0.00    +0.173 C 
BRANCH   8   9
ATOM      9  C   UNL     1       0.070  -1.639   5.169  0.00  0.00    +0.228 C 
ATOM     10  O   UNL     1       0.063  -0.495   5.572  0.00  0.00    -0.275 OA
ATOM     11  N   UNL     1       0.098  -2.663   6.046  0.00  0.00    -0.284 N 
ATOM     12  H   UNL     1       0.037  -3.577   5.726  0.00  0.00    +0.155 HD
BRANCH  11  13
ATOM     13  C   UNL     1       0.213  -2.408   7.413  0.00  0.00    +0.041 A 
ATOM     14  C   UNL     1      -0.382  -1.294   7.965  0.00  0.00    +0.024 A 
ATOM     15  C   UNL     1      -0.273  -1.030   9.328  0.00  0.00    +0.002 A 
ATOM     16  C   UNL     1       0.421  -1.863  10.151  0.00  0.00    +0.008 A 
ATOM     17  C   UNL     1       1.042  -3.009   9.628  0.00  0.00    -0.016 A 
ATOM     18  C   UNL     1       0.935  -3.291   8.244  0.00  0.00    +0.003 A 
ATOM     19  C   UNL     1       1.552  -4.439   7.724  0.00  0.00    +0.010 A 
ATOM     20  C   UNL     1       2.241  -5.269   8.555  0.00  0.00    +0.001 A 
ATOM     21  C   UNL     1       2.343  -4.996   9.917  0.00  0.00    +0.001 A 
ATOM     22  C   UNL     1       1.767  -3.886  10.455  0.00  0.00    +0.008 A 
ENDBRANCH  11  13
ENDBRANCH   8   9
ENDBRANCH   7   8
ENDBRANCH   6   7
BRANCH   3  23
ATOM     23  C   UNL     1      -0.062  -0.386  -2.534  0.00  0.00    +0.095 C 
BRANCH  23  24
ATOM     24  C   UNL     1       1.373  -0.220  -3.039  0.00  0.00    +0.112 C 
BRANCH  24  25
ATOM     25  N   UNL     1       1.350   0.205  -4.441  0.00  0.00    -0.311 N 
ATOM     26  C   UNL     1       2.507   0.415  -5.100  0.00  0.00    +0.245 C 
ATOM     27  O   UNL     1       3.569   0.253  -4.531  0.00  0.00    -0.270 OA
ATOM     28  H   UNL     1       0.503   0.334  -4.895  0.00  0.00    +0.149 HD
BRANCH  26  29
ATOM     29  C   UNL     1       2.485   0.843  -6.514  0.00  0.00    +0.055 A 
ATOM     30  C   UNL     1       1.267   1.036  -7.169  0.00  0.00    +0.014 A 
ATOM     31  C   UNL     1       1.253   1.436  -8.489  0.00  0.00    +0.001 A 
ATOM     32  C   UNL     1       2.442   1.646  -9.165  0.00  0.00    +0.001 A 
ATOM     33  C   UNL     1       3.652   1.456  -8.524  0.00  0.00    +0.021 A 
ATOM     34  C   UNL     1       3.682   1.062  -7.200  0.00  0.00    +0.053 A 
ATOM     35 CL   UNL     1       5.202   0.832  -6.394  0.00  0.00    -0.083 Cl
ENDBRANCH  26  29
ENDBRANCH  24  25
ENDBRANCH  23  24
ENDBRANCH   3  23
TORSDOF 8
