REMARK  Name = ZINC09156037
REMARK  6 active torsions:
REMARK  status: ('A' for Active; 'I' for Inactive)
REMARK    1  A    between atoms: C_4  and  C_7
REMARK    2  A    between atoms: C_7  and  N_8
REMARK    3  A    between atoms: N_15  and  C_20
REMARK    4  A    between atoms: C_20  and  C_21
REMARK    5  A    between atoms: N_23  and  C_24
REMARK    6  A    between atoms: C_25  and  C_29
REMARK                            x       y       z     vdW  Elec       q    Type
REMARK                         _______ _______ _______ _____ _____    ______ ____
ROOT
ATOM      1  N   UNL     1      -0.344  -7.179  -0.003  0.00  0.00    -0.298 N 
ATOM      2  C   UNL     1       0.140  -6.641   1.186  0.00  0.00    +0.069 A 
ATOM      3  C   UNL     1      -0.291  -7.159   2.403  0.00  0.00    +0.029 A 
ATOM      4  C   UNL     1       0.184  -6.632   3.586  0.00  0.00    +0.022 A 
ATOM      5  C   UNL     1       1.092  -5.584   3.568  0.00  0.00    +0.043 A 
ATOM      6  C   UNL     1       1.527  -5.062   2.366  0.00  0.00    +0.048 A 
ATOM      7  C   UNL     1       1.059  -5.590   1.167  0.00  0.00    +0.071 A 
ATOM      8  N   UNL     1       1.498  -5.055  -0.040  0.00  0.00    -0.293 N 
ATOM      9  C   UNL     1       1.045  -5.557  -1.207  0.00  0.00    +0.317 A 
ATOM     10  O   UNL     1       1.429  -5.096  -2.263  0.00  0.00    -0.262 OA
ATOM     11  C   UNL     1       0.068  -6.684  -1.187  0.00  0.00    +0.317 A 
ATOM     12  O   UNL     1      -0.352  -7.150  -2.227  0.00  0.00    -0.262 OA
ATOM     13 CL   UNL     1       1.683  -4.926   5.061  0.00  0.00    -0.083 Cl
ENDROOT
BRANCH   1  14
ATOM     14  C   UNL     1      -1.304  -8.286   0.032  0.00  0.00    +0.160 C 
BRANCH  14  18
ATOM     15  C   UNL     1       0.803 -12.001   0.021  0.00  0.00    +0.000 A 
ATOM     16  C   UNL     1       0.492 -11.387   1.219  0.00  0.00    +0.000 A 
ATOM     17  C   UNL     1      -0.190 -10.185   1.223  0.00  0.00    +0.005 A 
ATOM     18  C   UNL     1      -0.560  -9.597   0.028  0.00  0.00    -0.028 A 
ATOM     19  C   UNL     1      -0.254 -10.213  -1.170  0.00  0.00    +0.005 A 
ATOM     20  C   UNL     1       0.433 -11.413  -1.174  0.00  0.00    +0.000 A 
ENDBRANCH  14  18
ENDBRANCH   1  14
BRANCH   8  21
ATOM     21  C   UNL     1       2.458  -3.949  -0.043  0.00  0.00    +0.221 C 
BRANCH  21  22
ATOM     22  C   UNL     1       1.715  -2.638  -0.029  0.00  0.00    +0.237 C 
ATOM     23  O   UNL     1       0.502  -2.629  -0.017  0.00  0.00    -0.273 OA
ATOM     24  N   UNL     1       2.397  -1.476  -0.029  0.00  0.00    -0.278 N 
ATOM     25  H   UNL     1       3.367  -1.483  -0.039  0.00  0.00    +0.155 HD
BRANCH  24  26
ATOM     26  C   UNL     1       1.713  -0.270  -0.016  0.00  0.00    +0.084 A 
ATOM     27  C   UNL     1       2.234   1.018  -0.014  0.00  0.00    +0.065 A 
ATOM     28  C   UNL     1       1.283   2.104   0.001  0.00  0.00    +0.022 A 
ATOM     29  C   UNL     1      -0.022   1.776   0.012  0.00  0.00    +0.048 A 
ATOM     30  S   UNL     1       0.002  -0.004   0.002  0.00  0.00    -0.081 S 
BRANCH  27  31
ATOM     31  C   UNL     1       3.680   1.263  -0.026  0.00  0.00    +0.244 C 
ATOM     32  O   UNL     1       4.456   0.326  -0.038  0.00  0.00    -0.270 OA
ATOM     33  N   UNL     1       4.149   2.527  -0.024  0.00  0.00    -0.325 N 
ATOM     34  H   UNL     1       3.531   3.274  -0.014  0.00  0.00    +0.145 HD
ATOM     35  H   UNL     1       5.106   2.689  -0.032  0.00  0.00    +0.145 HD
ENDBRANCH  27  31
ENDBRANCH  24  26
ENDBRANCH  21  22
ENDBRANCH   8  21
TORSDOF 6
