REMARK  Name = ZINC64044226
REMARK  8 active torsions:
REMARK  status: ('A' for Active; 'I' for Inactive)
REMARK    1  A    between atoms: C_1  and  C_2
REMARK    2  A    between atoms: C_4  and  C_13
REMARK    3  A    between atoms: C_13  and  C_14
REMARK    4  A    between atoms: N_16  and  C_17
REMARK    5  A    between atoms: C_17  and  C_19
REMARK    6  A    between atoms: C_17  and  C_20
REMARK    7  A    between atoms: N_23  and  C_27
REMARK    8  A    between atoms: C_24  and  C_26
REMARK                            x       y       z     vdW  Elec       q    Type
REMARK                         _______ _______ _______ _____ _____    ______ ____
ROOT
ATOM      1  C   UNL     1       1.490  -1.008  -3.534  0.00  0.00    +0.218 C 
ATOM      2  O   UNL     1       2.475  -1.573  -3.107  0.00  0.00    -0.275 OA
ATOM      3  N   UNL     1       1.365  -0.777  -4.856  0.00  0.00    -0.309 N 
ATOM      4  H   UNL     1       0.578  -0.325  -5.197  0.00  0.00    +0.149 HD
ENDROOT
BRANCH   3   5
ATOM      5  C   UNL     1       2.419  -1.209  -5.777  0.00  0.00    +0.099 C 
ATOM      6  C   UNL     1       3.510  -0.139  -5.843  0.00  0.00    +0.033 C 
BRANCH   5   7
ATOM      7  C   UNL     1       1.832  -1.413  -7.151  0.00  0.00    -0.013 C 
ATOM      8  C   UNL     1       0.599  -1.138  -7.519  0.00  0.00    +0.091 C 
ATOM      9  N   UNL     1       0.378  -1.441  -8.848  0.00  0.00    -0.271 N 
ATOM     10  N   UNL     1       1.544  -1.960  -9.429  0.00  0.00    -0.247 N 
ATOM     11  C   UNL     1       2.556  -1.965  -8.359  0.00  0.00    +0.120 C 
ATOM     12  C   UNL     1       3.036  -3.392  -8.088  0.00  0.00    +0.035 C 
ATOM     13  H   UNL     1      -0.463  -1.314  -9.313  0.00  0.00    +0.169 HD
BRANCH  10  14
ATOM     14  C   UNL     1       1.713  -2.379 -10.751  0.00  0.00    +0.051 A 
ATOM     15  C   UNL     1       2.939  -2.878 -11.171  0.00  0.00    +0.025 A 
ATOM     16  C   UNL     1       3.104  -3.293 -12.478  0.00  0.00    +0.005 A 
ATOM     17  C   UNL     1       2.050  -3.212 -13.370  0.00  0.00    +0.038 A 
ATOM     18  C   UNL     1       0.826  -2.716 -12.955  0.00  0.00    +0.125 A 
ATOM     19  C   UNL     1       0.653  -2.304 -11.645  0.00  0.00    +0.063 A 
ATOM     20  F   UNL     1      -0.202  -2.638 -13.828  0.00  0.00    -0.205 F 
ENDBRANCH  10  14
ENDBRANCH   5   7
ENDBRANCH   3   5
BRANCH   1  21
ATOM     21  C   UNL     1       0.407  -0.564  -2.586  0.00  0.00    +0.129 C 
BRANCH  21  24
ATOM     22  C   UNL     1      -0.780  -2.484  -0.259  0.00  0.00    +0.035 C 
ATOM     23  C   UNL     1       0.698  -2.112  -0.391  0.00  0.00    +0.104 C 
ATOM     24  C   UNL     1       0.844  -0.822  -1.167  0.00  0.00    -0.030 C 
ATOM     25  C   UNL     1       1.446   0.053  -0.330  0.00  0.00    +0.002 A 
ATOM     26  C   UNL     1       1.860   1.453  -0.481  0.00  0.00    +0.010 A 
ATOM     27  C   UNL     1       2.455   2.087   0.552  0.00  0.00    +0.004 A 
ATOM     28  C   UNL     1       2.698   1.458   1.780  0.00  0.00    +0.040 A 
ATOM     29  C   UNL     1       2.355   0.172   2.021  0.00  0.00    +0.147 A 
ATOM     30  C   UNL     1       1.702  -0.615   0.967  0.00  0.00    +0.079 A 
ATOM     31  N   UNL     1       1.275  -1.854   0.934  0.00  0.00    -0.376 N 
ATOM     32  F   UNL     1       2.613  -0.387   3.224  0.00  0.00    -0.203 F 
ATOM     33  H   UNL     1       1.330  -2.493   1.661  0.00  0.00    +0.160 HD
ENDBRANCH  21  24
ENDBRANCH   1  21
TORSDOF 5
