REMARK  Name = ZINC38680017
REMARK  12 active torsions:
REMARK  status: ('A' for Active; 'I' for Inactive)
REMARK    1  A    between atoms: C_1  and  C_2
REMARK    2  A    between atoms: C_2  and  C_4
REMARK    3  A    between atoms: C_2  and  O_29
REMARK    4  A    between atoms: C_4  and  O_6
REMARK    5  A    between atoms: O_6  and  C_7
REMARK    6  A    between atoms: C_14  and  N_28
REMARK    7  A    between atoms: C_15  and  C_26
REMARK    8  A    between atoms: C_16  and  C_18
REMARK    9  A    between atoms: O_29  and  C_30
REMARK   10  A    between atoms: C_33  and  C_36
REMARK   11  A    between atoms: C_36  and  C_37
REMARK   12  A    between atoms: C_36  and  C_38
REMARK                            x       y       z     vdW  Elec       q    Type
REMARK                         _______ _______ _______ _____ _____    ______ ____
ROOT
ATOM      1  C   UNL     1       1.552  -1.272   3.254  0.00  0.00    +0.135 A 
ATOM      2  C   UNL     1       2.777  -1.580   2.679  0.00  0.00    +0.047 A 
ATOM      3  C   UNL     1       3.750  -2.216   3.424  0.00  0.00    +0.012 A 
ATOM      4  C   UNL     1       3.509  -2.550   4.745  0.00  0.00    +0.008 A 
ATOM      5  C   UNL     1       2.287  -2.245   5.325  0.00  0.00    +0.138 A 
ATOM      6  C   UNL     1       1.310  -1.600   4.578  0.00  0.00    +0.093 A 
ATOM      7  O   UNL     1       2.032  -2.564   6.618  0.00  0.00    -0.441 OA
ATOM      8  C   UNL     1       2.775  -3.497   7.237  0.00  0.00    +0.199 C 
ATOM      9  C   UNL     1       3.994  -3.864   6.777  0.00  0.00    +0.098 C 
ATOM     10  C   UNL     1       4.582  -3.243   5.542  0.00  0.00    +0.101 C 
ENDROOT
BRANCH  10  11
ATOM     11  C   UNL     1       5.635  -2.240   5.940  0.00  0.00    +0.002 A 
ATOM     12  C   UNL     1       5.292  -1.152   6.723  0.00  0.00    +0.046 A 
ATOM     13  C   UNL     1       6.259  -0.232   7.088  0.00  0.00    +0.020 A 
ATOM     14  C   UNL     1       7.566  -0.400   6.671  0.00  0.00    +0.003 A 
ATOM     15  C   UNL     1       7.908  -1.486   5.889  0.00  0.00    +0.020 A 
ATOM     16  C   UNL     1       6.944  -2.411   5.528  0.00  0.00    +0.046 A 
ATOM     17 CL   UNL     1       7.376  -3.780   4.552  0.00  0.00    -0.083 Cl
ATOM     18 CL   UNL     1       3.651  -0.941   7.245  0.00  0.00    -0.083 Cl
ENDBRANCH  10  11
BRANCH   8  19
ATOM     19  N   UNL     1       2.283  -4.094   8.371  0.00  0.00    -0.328 N 
ATOM     20  H   UNL     1       1.412  -3.842   8.714  0.00  0.00    +0.145 HD
ATOM     21  H   UNL     1       2.807  -4.770   8.829  0.00  0.00    +0.145 HD
ENDBRANCH   8  19
BRANCH   9  22
ATOM     22  C   UNL     1       4.737  -4.865   7.481  0.00  0.00    +0.101 C 
ATOM     23  N   UNL     1       5.327  -5.660   8.040  0.00  0.00    -0.191 NA
ENDBRANCH   9  22
BRANCH   1  24
ATOM     24  O   UNL     1       0.594  -0.646   2.522  0.00  0.00    -0.423 OA
BRANCH  24  25
ATOM     25  C   UNL     1      -0.096  -1.376   1.631  0.00  0.00    +0.353 C 
ATOM     26  O   UNL     1       0.107  -2.564   1.536  0.00  0.00    -0.246 OA
BRANCH  25  28
ATOM     27  C   UNL     1      -0.430   0.275  -0.189  0.00  0.00    +0.064 C 
ATOM     28  C   UNL     1      -1.124  -0.715   0.749  0.00  0.00    +0.279 C 
BRANCH  28  29
ATOM     29  O   UNL     1      -1.800  -1.710  -0.023  0.00  0.00    -0.478 OA
BRANCH  29  30
ATOM     30  C   UNL     1      -3.037  -1.394  -0.489  0.00  0.00    +0.122 A 
ATOM     31  C   UNL     1      -3.772  -2.332  -1.199  0.00  0.00    +0.046 A 
ATOM     32  C   UNL     1      -5.029  -2.009  -1.671  0.00  0.00    +0.007 A 
ATOM     33  C   UNL     1      -5.555  -0.752  -1.436  0.00  0.00    -0.045 A 
ATOM     34  C   UNL     1      -4.824   0.185  -0.729  0.00  0.00    +0.007 A 
ATOM     35  C   UNL     1      -3.569  -0.135  -0.250  0.00  0.00    +0.046 A 
BRANCH  33  36
ATOM     36  C   UNL     1      -6.927  -0.402  -1.952  0.00  0.00    +0.013 C 
ATOM     37  C   UNL     1      -7.836  -0.034  -0.777  0.00  0.00    +0.012 C 
ATOM     38  C   UNL     1      -6.824   0.787  -2.909  0.00  0.00    +0.012 C 
ENDBRANCH  33  36
ENDBRANCH  29  30
ENDBRANCH  28  29
ENDBRANCH  25  28
ENDBRANCH  24  25
ENDBRANCH   1  24
TORSDOF 9
