REMARK  Name = ZINC01059991
REMARK  14 active torsions:
REMARK  status: ('A' for Active; 'I' for Inactive)
REMARK    1  A    between atoms: C_1  and  C_2
REMARK    2  A    between atoms: C_2  and  O_3
REMARK    3  A    between atoms: O_3  and  C_4
REMARK    4  A    between atoms: C_4  and  C_6
REMARK    5  A    between atoms: C_10  and  N_11
REMARK    6  A    between atoms: C_14  and  C_21
REMARK    7  A    between atoms: C_16  and  C_19
REMARK    8  A    between atoms: C_17  and  N_18
REMARK    9  A    between atoms: C_24  and  O_29
REMARK   10  A    between atoms: C_25  and  O_27
REMARK   11  A    between atoms: O_27  and  C_28
REMARK   12  A    between atoms: O_29  and  C_30
REMARK   13  A    between atoms: C_34  and  C_36
REMARK   14  A    between atoms: C_34  and  C_37
REMARK                            x       y       z     vdW  Elec       q    Type
REMARK                         _______ _______ _______ _____ _____    ______ ____
ROOT
ATOM      1  N   UNL     1      -0.852  -2.475  -3.964  0.00  0.00    -0.254 N 
ATOM      2  C   UNL     1      -1.378  -2.912  -5.152  0.00  0.00    +0.025 C 
ATOM      3  C   UNL     1      -2.706  -3.114  -5.284  0.00  0.00    +0.025 C 
ATOM      4  C   UNL     1      -3.644  -2.881  -4.126  0.00  0.00    +0.097 C 
ATOM      5  C   UNL     1      -3.002  -2.029  -3.071  0.00  0.00    +0.077 C 
ATOM      6  C   UNL     1      -1.656  -1.868  -3.024  0.00  0.00    +0.107 C 
ATOM      7  C   UNL     1      -3.256  -3.545  -6.504  0.00  0.00    +0.162 C 
ATOM      8  O   UNL     1      -4.455  -3.725  -6.587  0.00  0.00    -0.292 OA
ATOM      9  C   UNL     1      -2.389  -3.788  -7.709  0.00  0.00    +0.086 C 
ATOM     10  C   UNL     1      -1.155  -2.883  -7.626  0.00  0.00    -0.023 C 
ATOM     11  C   UNL     1      -0.436  -3.164  -6.304  0.00  0.00    +0.058 C 
ATOM     12  C   UNL     1      -0.216  -3.186  -8.795  0.00  0.00    +0.011 C 
ATOM     13  C   UNL     1      -1.587  -1.417  -7.674  0.00  0.00    +0.011 C 
ENDROOT
BRANCH   1  18
ATOM     14  C   UNL     1       1.529  -1.742  -3.892  0.00  0.00    +0.091 A 
ATOM     15  C   UNL     1       2.869  -2.172  -3.532  0.00  0.00    -0.021 A 
ATOM     16  C   UNL     1       2.934  -3.434  -3.054  0.00  0.00    -0.004 A 
ATOM     17  S   UNL     1       1.263  -4.014  -3.089  0.00  0.00    -0.077 S 
ATOM     18  C   UNL     1       0.499  -2.651  -3.703  0.00  0.00    +0.092 A 
ATOM     19  C   UNL     1       4.162  -4.162  -2.602  0.00  0.00    +0.043 C 
ATOM     20  C   UNL     1       5.392  -3.397  -3.112  0.00  0.00    +0.005 C 
ATOM     21  C   UNL     1       5.220  -1.910  -2.788  0.00  0.00    +0.005 C 
ATOM     22  C   UNL     1       4.116  -1.311  -3.663  0.00  0.00    +0.037 C 
BRANCH  14  23
ATOM     23  C   UNL     1       1.276  -0.402  -4.427  0.00  0.00    +0.342 C 
ATOM     24  O   UNL     1       0.924   0.494  -3.683  0.00  0.00    -0.245 OA
BRANCH  23  25
ATOM     25  O   UNL     1       1.434  -0.161  -5.745  0.00  0.00    -0.461 OA
BRANCH  25  27
ATOM     26  C   UNL     1       1.391   1.253  -7.705  0.00  0.00    +0.048 C 
ATOM     27  C   UNL     1       1.287   1.192  -6.180  0.00  0.00    +0.229 C 
ENDBRANCH  25  27
ENDBRANCH  23  25
ENDBRANCH  14  23
ENDBRANCH   1  18
BRANCH   4  28
ATOM     28  C   UNL     1      -4.024  -4.209  -3.524  0.00  0.00    -0.031 A 
ATOM     29  C   UNL     1      -3.046  -5.035  -3.002  0.00  0.00    +0.008 A 
ATOM     30  C   UNL     1      -3.389  -6.254  -2.448  0.00  0.00    +0.050 A 
ATOM     31  C   UNL     1      -4.717  -6.650  -2.414  0.00  0.00    +0.162 A 
ATOM     32  C   UNL     1      -5.701  -5.819  -2.939  0.00  0.00    +0.162 A 
ATOM     33  C   UNL     1      -5.351  -4.596  -3.489  0.00  0.00    +0.054 A 
BRANCH  32  34
ATOM     34  O   UNL     1      -7.005  -6.203  -2.909  0.00  0.00    -0.491 OA
ATOM     35  C   UNL     1      -7.962  -5.299  -3.466  0.00  0.00    +0.277 C 
ENDBRANCH  32  34
BRANCH  31  36
ATOM     36  O   UNL     1      -5.056  -7.849  -1.870  0.00  0.00    -0.491 OA
ATOM     37  C   UNL     1      -3.993  -8.651  -1.351  0.00  0.00    +0.277 C 
ENDBRANCH  31  36
ENDBRANCH   4  28
BRANCH   6  38
ATOM     38  N   UNL     1      -1.095  -1.092  -2.039  0.00  0.00    -0.345 N 
ATOM     39  H   UNL     1      -0.141  -0.912  -2.047  0.00  0.00    +0.144 HD
ATOM     40  H   UNL     1      -1.651  -0.723  -1.335  0.00  0.00    +0.144 HD
ENDBRANCH   6  38
BRANCH   5  41
ATOM     41  C   UNL     1      -3.824  -1.380  -2.095  0.00  0.00    +0.099 C 
ATOM     42  N   UNL     1      -4.476  -0.865  -1.321  0.00  0.00    -0.191 NA
ENDBRANCH   5  41
TORSDOF 9
