REMARK  Name = ZINC02927211
REMARK  7 active torsions:
REMARK  status: ('A' for Active; 'I' for Inactive)
REMARK    1  A    between atoms: C_1  and  C_2
REMARK    2  A    between atoms: C_3  and  N_9
REMARK    3  A    between atoms: C_13  and  C_31
REMARK    4  A    between atoms: C_19  and  S_20
REMARK    5  A    between atoms: S_20  and  C_21
REMARK    6  A    between atoms: C_21  and  C_22
REMARK    7  A    between atoms: C_27  and  C_30
REMARK                            x       y       z     vdW  Elec       q    Type
REMARK                         _______ _______ _______ _____ _____    ______ ____
ROOT
ATOM      1  N   UNL     1       3.624  -0.650  -0.035  0.00  0.00    -0.274 N 
ATOM      2  C   UNL     1       4.218  -0.988  -1.241  0.00  0.00    +0.124 A 
ATOM      3  N   UNL     1       3.659  -0.683  -2.386  0.00  0.00    -0.384 N 
ATOM      4  C   UNL     1       5.504  -1.697  -1.183  0.00  0.00    +0.082 A 
ATOM      5  C   UNL     1       6.396  -2.194  -2.149  0.00  0.00    +0.072 A 
ATOM      6  N   UNL     1       7.401  -2.754  -1.531  0.00  0.00    -0.177 NA
ATOM      7  N   UNL     1       7.214  -2.649  -0.147  0.00  0.00    -0.260 N 
ATOM      8  H   UNL     1       7.963  -3.066   0.542  0.00  0.00    +0.191 HD
ATOM      9  C   UNL     1       6.041  -1.996   0.076  0.00  0.00    +0.162 A 
ATOM     10  N   UNL     1       5.380  -1.627   1.185  0.00  0.00    -0.204 NA
ATOM     11  C   UNL     1       4.236  -0.991   1.140  0.00  0.00    +0.177 A 
ATOM     12  C   UNL     1       6.222  -2.098  -3.643  0.00  0.00    +0.068 C 
ATOM     13  H   UNL     1       4.151  -0.962  -3.330  0.00  0.00    +0.157 HD
ATOM     14  H   UNL     1       2.699  -0.148  -2.404  0.00  0.00    +0.157 HD
ENDROOT
BRANCH   1  17
ATOM     15  C   UNL     1       1.228  -2.187  -0.022  0.00  0.00    +0.047 C 
ATOM     16  C   UNL     1       1.208  -0.680  -0.013  0.00  0.00    -0.008 A 
ATOM     17  C   UNL     1       2.400   0.032  -0.021  0.00  0.00    +0.055 A 
ATOM     18  C   UNL     1       2.377   1.420  -0.013  0.00  0.00    +0.026 A 
ATOM     19  C   UNL     1       1.169   2.090   0.002  0.00  0.00    +0.003 A 
ATOM     20  C   UNL     1      -0.017   1.380   0.010  0.00  0.00    +0.020 A 
ATOM     21  C   UNL     1       0.002  -0.004   0.002  0.00  0.00    +0.046 A 
ATOM     22 CL   UNL     1      -1.490  -0.892   0.011  0.00  0.00    -0.083 Cl
ENDBRANCH   1  17
BRANCH  11  23
ATOM     23  S   UNL     1       3.453  -0.554   2.657  0.00  0.00    -0.078 S 
BRANCH  23  24
ATOM     24  C   UNL     1       4.654  -1.223   3.834  0.00  0.00    +0.173 C 
BRANCH  24  25
ATOM     25  C   UNL     1       4.180  -0.959   5.240  0.00  0.00    +0.226 C 
ATOM     26  O   UNL     1       3.133  -0.376   5.428  0.00  0.00    -0.275 OA
ATOM     27  N   UNL     1       4.919  -1.371   6.289  0.00  0.00    -0.301 N 
ATOM     28  C   UNL     1       6.186  -2.083   6.078  0.00  0.00    +0.108 C 
ATOM     29  C   UNL     1       7.292  -1.357   6.859  0.00  0.00    +0.022 C 
ATOM     30  C   UNL     1       6.877  -1.235   8.327  0.00  0.00    -0.011 C 
ATOM     31  C   UNL     1       5.592  -0.409   8.429  0.00  0.00    +0.022 C 
ATOM     32  C   UNL     1       4.470  -1.120   7.666  0.00  0.00    +0.108 C 
ATOM     33  C   UNL     1       7.991  -0.545   9.117  0.00  0.00    +0.007 C 
ENDBRANCH  24  25
ENDBRANCH  23  24
ENDBRANCH  11  23
TORSDOF 4
