REMARK  Name = ZINC00930911
REMARK  9 active torsions:
REMARK  status: ('A' for Active; 'I' for Inactive)
REMARK    1  A    between atoms: C_1  and  C_2
REMARK    2  A    between atoms: C_2  and  C_4
REMARK    3  A    between atoms: C_7  and  N_10
REMARK    4  A    between atoms: N_10  and  C_11
REMARK    5  A    between atoms: C_11  and  C_13
REMARK    6  A    between atoms: C_11  and  C_20
REMARK    7  A    between atoms: C_16  and  O_19
REMARK    8  A    between atoms: N_22  and  C_23
REMARK    9  A    between atoms: C_29  and  C_31
REMARK                            x       y       z     vdW  Elec       q    Type
REMARK                         _______ _______ _______ _____ _____    ______ ____
ROOT
ATOM      1  N   UNL     1      -2.314   8.124  -0.773  0.00  0.00    -0.252 N 
ATOM      2  C   UNL     1      -1.198   7.603  -1.321  0.00  0.00    +0.265 C 
ATOM      3  O   UNL     1      -0.142   8.190  -1.221  0.00  0.00    -0.271 OA
ENDROOT
BRANCH   2   4
ATOM      4  C   UNL     1      -1.264   6.290  -2.058  0.00  0.00    +0.296 C 
ATOM      5  C   UNL     1      -1.806   6.518  -3.475  0.00  0.00    +0.283 C 
ATOM      6  O   UNL     1      -1.842   5.256  -4.150  0.00  0.00    -0.484 OA
ATOM      7  C   UNL     1      -0.733   4.474  -4.044  0.00  0.00    +0.162 A 
ATOM      8  C   UNL     1      -0.544   3.435  -4.943  0.00  0.00    +0.049 A 
ATOM      9  C   UNL     1       0.573   2.627  -4.843  0.00  0.00    +0.004 A 
ATOM     10  C   UNL     1       1.510   2.859  -3.853  0.00  0.00    +0.004 A 
ATOM     11  C   UNL     1       1.330   3.896  -2.958  0.00  0.00    +0.049 A 
ATOM     12  C   UNL     1       0.210   4.708  -3.050  0.00  0.00    +0.163 A 
ATOM     13  O   UNL     1       0.050   5.731  -2.166  0.00  0.00    -0.472 OA
ENDBRANCH   2   4
BRANCH   1  17
ATOM     14  C   UNL     1      -5.872   5.970  -0.852  0.00  0.00    +0.017 A 
ATOM     15  C   UNL     1      -5.728   7.117  -1.643  0.00  0.00    +0.013 A 
ATOM     16  C   UNL     1      -4.553   7.823  -1.614  0.00  0.00    +0.024 A 
ATOM     17  C   UNL     1      -3.505   7.403  -0.800  0.00  0.00    +0.038 A 
ATOM     18  C   UNL     1      -3.642   6.260  -0.016  0.00  0.00    +0.024 A 
ATOM     19  C   UNL     1      -4.815   5.551  -0.034  0.00  0.00    +0.013 A 
BRANCH  14  21
ATOM     20  C   UNL     1      -7.281   3.976  -0.027  0.00  0.00    +0.091 C 
ATOM     21  C   UNL     1      -7.128   5.210  -0.879  0.00  0.00    +0.160 C 
ATOM     22  O   UNL     1      -8.043   5.575  -1.587  0.00  0.00    -0.292 OA
ENDBRANCH  14  21
ENDBRANCH   1  17
BRANCH   1  23
ATOM     23  C   UNL     1      -2.273   9.449  -0.150  0.00  0.00    +0.197 C 
BRANCH  23  24
ATOM     24  C   UNL     1      -1.351   9.416   1.041  0.00  0.00    -0.018 A 
ATOM     25  C   UNL     1      -1.389   8.345   1.914  0.00  0.00    +0.009 A 
ATOM     26  C   UNL     1      -0.541   8.309   3.004  0.00  0.00    +0.046 A 
ATOM     27  C   UNL     1       0.341   9.356   3.229  0.00  0.00    +0.117 A 
ATOM     28  C   UNL     1       0.373  10.433   2.355  0.00  0.00    +0.046 A 
ATOM     29  C   UNL     1      -0.472  10.460   1.263  0.00  0.00    +0.009 A 
BRANCH  27  30
ATOM     30  O   UNL     1       1.172   9.326   4.304  0.00  0.00    -0.507 OA
ATOM     31  H   UNL     1       0.799   9.730   5.100  0.00  0.00    +0.292 HD
ENDBRANCH  27  30
ENDBRANCH  23  24
BRANCH  23  32
ATOM     32  C   UNL     1      -3.659   9.836   0.297  0.00  0.00    +0.239 C 
ATOM     33  O   UNL     1      -4.370   9.020   0.843  0.00  0.00    -0.273 OA
ATOM     34  N   UNL     1      -4.108  11.090   0.091  0.00  0.00    -0.311 N 
ATOM     35  H   UNL     1      -3.539  11.744  -0.345  0.00  0.00    +0.149 HD
BRANCH  34  36
ATOM     36  C   UNL     1      -5.455  11.467   0.527  0.00  0.00    +0.073 C 
ATOM     37  C   UNL     1      -6.467  11.084  -0.556  0.00  0.00    +0.022 C 
ATOM     38  C   UNL     1      -7.874  11.477  -0.101  0.00  0.00    +0.002 C 
ATOM     39  C   UNL     1      -7.929  12.987   0.138  0.00  0.00    +0.000 C 
ATOM     40  C   UNL     1      -6.918  13.370   1.220  0.00  0.00    +0.002 C 
ATOM     41  C   UNL     1      -5.511  12.977   0.765  0.00  0.00    +0.022 C 
ENDBRANCH  34  36
ENDBRANCH  23  32
ENDBRANCH   1  23
TORSDOF 8
