REMARK  Name = ZINC35794361
REMARK  7 active torsions:
REMARK  status: ('A' for Active; 'I' for Inactive)
REMARK    1  A    between atoms: C_1  and  C_2
REMARK    2  A    between atoms: C_5  and  C_18
REMARK    3  A    between atoms: C_7  and  S_8
REMARK    4  A    between atoms: S_8  and  N_11
REMARK    5  A    between atoms: N_11  and  C_12
REMARK    6  A    between atoms: C_12  and  C_14
REMARK    7  A    between atoms: C_12  and  C_15
REMARK                            x       y       z     vdW  Elec       q    Type
REMARK                         _______ _______ _______ _____ _____    ______ ____
ROOT
ATOM      1  S   UNL     1      -0.279   0.282   3.185  0.00  0.00    +0.059 S 
ATOM      2  O   UNL     1      -1.181   1.285   3.632  0.00  0.00    -0.153 OA
ATOM      3  O   UNL     1       0.009  -0.879   3.952  0.00  0.00    -0.153 OA
ENDROOT
BRANCH   1  10
ATOM      4  C   UNL     1       1.073  -1.837   1.512  0.00  0.00    +0.049 C 
ATOM      5  C   UNL     1      -0.192  -1.257   0.933  0.00  0.00    +0.011 A 
ATOM      6  C   UNL     1      -0.662  -1.709  -0.290  0.00  0.00    +0.129 A 
ATOM      7  C   UNL     1      -1.820  -1.181  -0.825  0.00  0.00    +0.053 A 
ATOM      8  C   UNL     1      -2.518  -0.190  -0.130  0.00  0.00    +0.068 A 
ATOM      9  C   UNL     1      -2.038   0.259   1.103  0.00  0.00    +0.044 A 
ATOM     10  C   UNL     1      -0.882  -0.280   1.628  0.00  0.00    +0.112 A 
ATOM     11  F   UNL     1       0.015  -2.667  -0.960  0.00  0.00    -0.205 F 
BRANCH   8  12
ATOM     12  C   UNL     1      -3.756   0.380  -0.695  0.00  0.00    +0.387 C 
ATOM     13  O   UNL     1      -4.174  -0.015  -1.774  0.00  0.00    -0.241 OA
ATOM     14  O   UNL     1      -4.365   1.247  -0.084  0.00  0.00    -0.241 OA
ENDBRANCH   8  12
ENDBRANCH   1  10
BRANCH   1  15
ATOM     15  N   UNL     1       1.168   1.037   2.907  0.00  0.00    -0.178 NA
ATOM     16  H   UNL     1       1.985   0.675   3.286  0.00  0.00    +0.149 HD
BRANCH  15  17
ATOM     17  C   UNL     1       1.215   2.251   2.088  0.00  0.00    +0.159 C 
ATOM     18  C   UNL     1       2.106   2.009   0.868  0.00  0.00    +0.035 C 
BRANCH  17  19
ATOM     19  C   UNL     1       1.779   3.385   2.904  0.00  0.00    +0.229 C 
ATOM     20  O   UNL     1       2.110   3.198   4.056  0.00  0.00    -0.274 OA
ATOM     21  N   UNL     1       1.917   4.608   2.354  0.00  0.00    -0.328 N 
ATOM     22  H   UNL     1       1.653   4.758   1.432  0.00  0.00    +0.145 HD
ATOM     23  H   UNL     1       2.280   5.338   2.879  0.00  0.00    +0.145 HD
ENDBRANCH  17  19
ENDBRANCH  15  17
ENDBRANCH   1  15
TORSDOF 5
