REMARK  Name = ZINC59565024
REMARK  9 active torsions:
REMARK  status: ('A' for Active; 'I' for Inactive)
REMARK    1  A    between atoms: C_1  and  C_2
REMARK    2  A    between atoms: C_2  and  C_3
REMARK    3  A    between atoms: C_3  and  C_5
REMARK    4  A    between atoms: C_3  and  S_18
REMARK    5  A    between atoms: N_7  and  C_8
REMARK    6  A    between atoms: C_11  and  S_14
REMARK    7  A    between atoms: S_14  and  N_17
REMARK    8  A    between atoms: S_18  and  C_19
REMARK    9  A    between atoms: N_28  and  C_29
REMARK                            x       y       z     vdW  Elec       q    Type
REMARK                         _______ _______ _______ _____ _____    ______ ____
ROOT
ATOM      1  C   UNL     1      -0.561  -0.264  -0.564  0.00  0.00    +0.140 C 
ENDROOT
BRANCH   1   2
ATOM      2  C   UNL     1      -1.260  -0.121   0.763  0.00  0.00    +0.231 C 
ATOM      3  O   UNL     1      -2.472  -0.102   0.811  0.00  0.00    -0.274 OA
ATOM      4  N   UNL     1      -0.539  -0.014   1.897  0.00  0.00    -0.285 N 
ATOM      5  H   UNL     1       0.426  -0.105   1.868  0.00  0.00    +0.155 HD
BRANCH   4   6
ATOM      6  C   UNL     1      -1.183   0.230   3.115  0.00  0.00    +0.034 A 
ATOM      7  C   UNL     1      -2.427  -0.332   3.369  0.00  0.00    +0.025 A 
ATOM      8  C   UNL     1      -3.060  -0.090   4.573  0.00  0.00    +0.030 A 
ATOM      9  C   UNL     1      -2.456   0.711   5.524  0.00  0.00    +0.105 A 
ATOM     10  C   UNL     1      -1.218   1.273   5.274  0.00  0.00    +0.030 A 
ATOM     11  C   UNL     1      -0.577   1.029   4.075  0.00  0.00    +0.025 A 
BRANCH   9  12
ATOM     12  S   UNL     1      -3.267   1.018   7.058  0.00  0.00    +0.056 S 
ATOM     13  O   UNL     1      -2.741   2.240   7.559  0.00  0.00    -0.153 OA
ATOM     14  O   UNL     1      -4.656   0.824   6.830  0.00  0.00    -0.153 OA
BRANCH  12  15
ATOM     15  N   UNL     1      -2.790  -0.169   8.110  0.00  0.00    -0.204 NA
ATOM     16  H   UNL     1      -2.742   0.016   9.061  0.00  0.00    +0.144 HD
ATOM     17  H   UNL     1      -2.558  -1.049   7.775  0.00  0.00    +0.144 HD
ENDBRANCH  12  15
ENDBRANCH   9  12
ENDBRANCH   4   6
ENDBRANCH   1   2
BRANCH   1  19
ATOM     18  C   UNL     1       0.576  -1.869  -2.104  0.00  0.00    +0.005 C 
ATOM     19  C   UNL     1      -0.229  -1.737  -0.810  0.00  0.00    +0.020 C 
ENDBRANCH   1  19
BRANCH   1  20
ATOM     20  S   UNL     1      -1.645   0.341  -1.887  0.00  0.00    -0.078 S 
BRANCH  20  21
ATOM     21  C   UNL     1      -1.761   2.073  -1.585  0.00  0.00    +0.151 C 
ATOM     22  N   UNL     1      -1.082   2.699  -0.668  0.00  0.00    -0.347 N 
ATOM     23  C   UNL     1      -1.454   4.116  -0.732  0.00  0.00    +0.107 C 
ATOM     24  C   UNL     1      -0.233   4.971  -1.060  0.00  0.00    +0.045 C 
ATOM     25  C   UNL     1       0.795   4.847   0.067  0.00  0.00    +0.004 C 
ATOM     26  C   UNL     1       0.167   5.313   1.382  0.00  0.00    +0.000 C 
ATOM     27  C   UNL     1      -1.046   4.439   1.709  0.00  0.00    +0.004 C 
ATOM     28  C   UNL     1      -2.079   4.561   0.587  0.00  0.00    +0.045 C 
ATOM     29  N   UNL     1      -2.443   4.200  -1.821  0.00  0.00    -0.209 NA
ATOM     30  N   UNL     1      -2.572   2.922  -2.292  0.00  0.00    -0.213 N 
ATOM     31  H   UNL     1      -2.126   4.821  -2.550  0.00  0.00    +0.147 HD
ATOM     32  H   UNL     1      -0.446   2.300  -0.054  0.00  0.00    +0.163 HD
BRANCH  30  33
ATOM     33  C   UNL     1      -3.413   2.537  -3.342  0.00  0.00    +0.052 A 
ATOM     34  C   UNL     1      -4.256   1.443  -3.192  0.00  0.00    +0.025 A 
ATOM     35  C   UNL     1      -5.085   1.065  -4.230  0.00  0.00    +0.002 A 
ATOM     36  C   UNL     1      -5.077   1.775  -5.417  0.00  0.00    +0.000 A 
ATOM     37  C   UNL     1      -4.239   2.865  -5.569  0.00  0.00    +0.002 A 
ATOM     38  C   UNL     1      -3.411   3.250  -4.533  0.00  0.00    +0.025 A 
ENDBRANCH  30  33
ENDBRANCH  20  21
ENDBRANCH   1  20
TORSDOF 8
