REMARK  Name = ZINC12669553
REMARK  10 active torsions:
REMARK  status: ('A' for Active; 'I' for Inactive)
REMARK    1  A    between atoms: C_1  and  C_2
REMARK    2  A    between atoms: C_7  and  C_32
REMARK    3  A    between atoms: C_10  and  C_12
REMARK    4  A    between atoms: C_12  and  O_13
REMARK    5  A    between atoms: O_13  and  C_14
REMARK    6  A    between atoms: C_17  and  C_20
REMARK    7  A    between atoms: C_20  and  O_22
REMARK    8  A    between atoms: O_22  and  C_23
REMARK    9  A    between atoms: C_23  and  C_25
REMARK   10  A    between atoms: C_23  and  C_26
REMARK                            x       y       z     vdW  Elec       q    Type
REMARK                         _______ _______ _______ _____ _____    ______ ____
ROOT
ATOM      1  C   UNL     1       3.739   3.816  -0.515  0.00  0.00    +0.121 A 
ATOM      2  C   UNL     1       2.594   4.579  -0.712  0.00  0.00    +0.046 A 
ATOM      3  C   UNL     1       1.351   4.028  -0.495  0.00  0.00    +0.018 A 
ATOM      4  C   UNL     1       1.242   2.698  -0.077  0.00  0.00    +0.059 A 
ATOM      5  C   UNL     1       2.396   1.936   0.125  0.00  0.00    +0.018 A 
ATOM      6  C   UNL     1       3.635   2.494  -0.099  0.00  0.00    +0.046 A 
ENDROOT
BRANCH   4   7
ATOM      7  C   UNL     1      -0.087   2.103   0.156  0.00  0.00    +0.340 C 
ATOM      8  O   UNL     1      -1.089   2.767  -0.020  0.00  0.00    -0.245 OA
BRANCH   7   9
ATOM      9  O   UNL     1      -0.190   0.822   0.560  0.00  0.00    -0.449 OA
BRANCH   9  10
ATOM     10  C   UNL     1      -1.530   0.303   0.770  0.00  0.00    +0.259 C 
ATOM     11  C   UNL     1      -2.050  -0.309  -0.533  0.00  0.00    +0.062 C 
BRANCH  10  12
ATOM     12  C   UNL     1      -1.496  -0.755   1.843  0.00  0.00    +0.261 C 
ATOM     13  O   UNL     1      -0.447  -1.043   2.377  0.00  0.00    -0.271 OA
ATOM     14  N   UNL     1      -2.633  -1.381   2.208  0.00  0.00    -0.237 N 
ATOM     15  C   UNL     1      -2.602  -2.327   3.168  0.00  0.00    +0.303 C 
ATOM     16  O   UNL     1      -1.550  -2.615   3.704  0.00  0.00    -0.253 OA
ATOM     17  N   UNL     1      -3.739  -2.953   3.533  0.00  0.00    -0.313 N 
ATOM     18  H   UNL     1      -3.472  -1.151   1.780  0.00  0.00    +0.159 HD
ATOM     19  H   UNL     1      -4.578  -2.723   3.105  0.00  0.00    +0.146 HD
ATOM     20  H   UNL     1      -3.717  -3.634   4.224  0.00  0.00    +0.146 HD
ENDBRANCH  10  12
ENDBRANCH   9  10
ENDBRANCH   7   9
ENDBRANCH   4   7
BRANCH   1  21
ATOM     21  O   UNL     1       4.962   4.364  -0.729  0.00  0.00    -0.483 OA
BRANCH  21  22
ATOM     22  C   UNL     1       6.097   3.524  -0.507  0.00  0.00    +0.324 C 
BRANCH  22  30
ATOM     23  C   UNL     1       9.361   6.089  -0.834  0.00  0.00    +0.028 C 
ATOM     24  C   UNL     1       9.713   4.712  -0.268  0.00  0.00    +0.073 C 
ATOM     25  C   UNL     1      10.873   4.115  -1.063  0.00  0.00    +0.022 C 
ATOM     26  C   UNL     1      11.129   2.682  -0.589  0.00  0.00    +0.004 C 
ATOM     27  C   UNL     1       9.882   1.830  -0.838  0.00  0.00    +0.022 C 
ATOM     28  C   UNL     1       8.709   2.403  -0.035  0.00  0.00    +0.073 C 
ATOM     29  N   UNL     1       8.549   3.822  -0.379  0.00  0.00    -0.293 N 
ATOM     30  C   UNL     1       7.358   4.298  -0.793  0.00  0.00    +0.254 C 
ATOM     31  O   UNL     1       7.301   5.349  -1.396  0.00  0.00    -0.272 OA
ATOM     32  C   UNL     1       7.429   1.642  -0.385  0.00  0.00    +0.028 C 
ENDBRANCH  22  30
ENDBRANCH  21  22
ENDBRANCH   1  21
TORSDOF 7
