REMARK  Name = ZINC19943889
REMARK  13 active torsions:
REMARK  status: ('A' for Active; 'I' for Inactive)
REMARK    1  A    between atoms: C_1  and  C_2
REMARK    2  A    between atoms: C_2  and  C_3
REMARK    3  A    between atoms: C_3  and  C_4
REMARK    4  A    between atoms: N_6  and  C_23
REMARK    5  A    between atoms: C_10  and  C_11
REMARK    6  A    between atoms: C_10  and  N_12
REMARK    7  A    between atoms: N_12  and  C_13
REMARK    8  A    between atoms: C_15  and  C_21
REMARK    9  A    between atoms: C_15  and  C_22
REMARK   10  A    between atoms: C_17  and  C_19
REMARK   11  A    between atoms: C_17  and  C_20
REMARK   12  A    between atoms: C_26  and  O_29
REMARK   13  A    between atoms: O_29  and  C_30
REMARK                            x       y       z     vdW  Elec       q    Type
REMARK                         _______ _______ _______ _____ _____    ______ ____
ROOT
ATOM      1  C   UNL     1       6.308   5.704  -0.027  0.00  0.00    +0.074 C 
ATOM      2  N   UNL     1       5.050   5.386  -0.023  0.00  0.00    -0.176 NA
ATOM      3  N   UNL     1       4.876   4.002  -0.022  0.00  0.00    -0.156 N 
ATOM      4  C   UNL     1       6.074   3.385  -0.036  0.00  0.00    +0.274 C 
ATOM      5  O   UNL     1       6.279   2.182  -0.045  0.00  0.00    -0.268 OA
ATOM      6  C   UNL     1       7.081   4.452  -0.041  0.00  0.00    +0.078 C 
ATOM      7  C   UNL     1       8.459   4.313  -0.054  0.00  0.00    +0.015 C 
ATOM      8  C   UNL     1       9.076   2.938  -0.066  0.00  0.00    +0.061 C 
ENDROOT
BRANCH   3   9
ATOM      9  C   UNL     1       3.635   3.349  -0.014  0.00  0.00    +0.061 A 
ATOM     10  C   UNL     1       2.460   4.089   0.001  0.00  0.00    +0.029 A 
ATOM     11  C   UNL     1       1.239   3.445   0.009  0.00  0.00    +0.047 A 
ATOM     12  C   UNL     1       1.186   2.058   0.002  0.00  0.00    +0.120 A 
ATOM     13  C   UNL     1       2.359   1.318  -0.008  0.00  0.00    +0.047 A 
ATOM     14  C   UNL     1       3.581   1.961  -0.021  0.00  0.00    +0.029 A 
BRANCH  12  15
ATOM     15  O   UNL     1      -0.017   1.425   0.010  0.00  0.00    -0.495 OA
ATOM     16  C   UNL     1       0.002  -0.004   0.002  0.00  0.00    +0.277 C 
ENDBRANCH  12  15
ENDBRANCH   3   9
BRANCH   7  17
ATOM     17  N   UNL     1       9.248   5.406  -0.056  0.00  0.00    -0.344 N 
ATOM     18  H   UNL     1       8.797   6.410  -0.047  0.00  0.00    +0.146 HD
BRANCH  17  19
ATOM     19  C   UNL     1      10.708   5.258  -0.071  0.00  0.00    +0.068 C 
ATOM     20  C   UNL     1      11.212   5.093   1.363  0.00  0.00    +0.009 C 
ATOM     21  C   UNL     1      12.732   4.957   1.379  0.00  0.00    -0.072 C 
ATOM     22  N   UNL     1      13.399   5.983   0.605  0.00  0.00    +0.386 N 
ATOM     23  C   UNL     1      12.859   6.402  -0.671  0.00  0.00    -0.072 C 
ATOM     24  C   UNL     1      11.336   6.519  -0.664  0.00  0.00    +0.009 C 
ATOM     25  C   UNL     1      13.296   5.456  -1.795  0.00  0.00    -0.010 C 
ATOM     26  C   UNL     1      13.430   7.799  -1.001  0.00  0.00    -0.010 C 
ATOM     27  C   UNL     1      13.126   3.555   0.898  0.00  0.00    -0.010 C 
ATOM     28  C   UNL     1      13.195   5.083   2.848  0.00  0.00    -0.010 C 
ATOM     29  H   UNL     1      13.444   6.913   1.191  0.00  0.00    -0.084 HD
ATOM     30  H   UNL     1      14.420   5.653   0.362  0.00  0.00    -0.084 HD
ENDBRANCH  17  19
ENDBRANCH   7  17
BRANCH   1  31
ATOM     31  C   UNL     1       6.874   7.100  -0.025  0.00  0.00    +0.057 C 
BRANCH  31  33
ATOM     32  C   UNL     1       6.304   9.533  -0.007  0.00  0.00    +0.004 C 
ATOM     33  C   UNL     1       5.729   8.115  -0.009  0.00  0.00    +0.003 C 
ENDBRANCH  31  33
ENDBRANCH   1  31
TORSDOF 6
