REMARK  Name = ZINC12882505
REMARK  8 active torsions:
REMARK  status: ('A' for Active; 'I' for Inactive)
REMARK    1  A    between atoms: C_1  and  C_2
REMARK    2  A    between atoms: C_7  and  C_8
REMARK    3  A    between atoms: C_17  and  C_19
REMARK    4  A    between atoms: C_19  and  C_20
REMARK    5  A    between atoms: C_23  and  O_26
REMARK    6  A    between atoms: N_29  and  C_32
REMARK    7  A    between atoms: C_32  and  C_33
REMARK    8  A    between atoms: C_33  and  C_34
REMARK                            x       y       z     vdW  Elec       q    Type
REMARK                         _______ _______ _______ _____ _____    ______ ____
ROOT
ATOM      1  C   UNL     1      -0.013   1.086   0.008  0.00  0.00    +0.044 C 
ATOM      2  C   UNL     1      -0.718   1.572   1.248  0.00  0.00    -0.046 A 
ATOM      3  C   UNL     1       0.004   1.805   2.404  0.00  0.00    +0.004 A 
ATOM      4  C   UNL     1      -0.643   2.251   3.542  0.00  0.00    +0.005 A 
ATOM      5  C   UNL     1      -2.004   2.463   3.523  0.00  0.00    -0.027 A 
ATOM      6  C   UNL     1      -2.741   2.232   2.366  0.00  0.00    +0.039 A 
ATOM      7  C   UNL     1      -2.080   1.788   1.223  0.00  0.00    -0.026 A 
ATOM      8  C   UNL     1      -2.857   1.536  -0.044  0.00  0.00    +0.046 C 
ATOM      9  N   UNL     1      -4.090   2.515   2.588  0.00  0.00    -0.286 N 
ATOM     10  C   UNL     1      -4.321   2.931   3.848  0.00  0.00    +0.211 C 
ATOM     11  O   UNL     1      -5.393   3.245   4.321  0.00  0.00    -0.277 OA
ATOM     12  C   UNL     1      -2.992   2.932   4.553  0.00  0.00    +0.050 C 
ATOM     13  C   UNL     1      -3.010   2.010   5.779  0.00  0.00    +0.088 C 
ATOM     14  C   UNL     1      -2.119   2.735   6.826  0.00  0.00    +0.073 C 
ATOM     15  C   UNL     1      -1.640   4.019   6.118  0.00  0.00    -0.053 C 
ATOM     16  C   UNL     1      -3.083   3.102   7.931  0.00  0.00    +0.224 C 
ATOM     17  O   UNL     1      -2.790   3.694   8.948  0.00  0.00    -0.275 OA
ATOM     18  N   UNL     1      -4.317   2.664   7.591  0.00  0.00    -0.241 N 
ATOM     19  C   UNL     1      -4.383   2.035   6.412  0.00  0.00    +0.225 C 
ATOM     20  O   UNL     1      -5.387   1.559   5.928  0.00  0.00    -0.275 OA
ATOM     21  H   UNL     1      -4.781   2.423   1.913  0.00  0.00    +0.155 HD
ATOM     22  N   UNL     1      -2.640   4.242   5.071  0.00  0.00    +0.394 N 
ATOM     23  H   UNL     1      -3.469   4.703   5.464  0.00  0.00    -0.083 HD
ATOM     24  H   UNL     1      -2.247   4.825   4.323  0.00  0.00    -0.083 HD
ENDROOT
BRANCH  15  25
ATOM     25  C   UNL     1      -1.597   5.187   7.106  0.00  0.00    +0.020 C 
BRANCH  25  26
ATOM     26  C   UNL     1      -1.082   6.418   6.406  0.00  0.00    -0.049 A 
ATOM     27  C   UNL     1       0.274   6.688   6.393  0.00  0.00    +0.007 A 
ATOM     28  C   UNL     1       0.750   7.813   5.747  0.00  0.00    +0.045 A 
ATOM     29  C   UNL     1      -0.136   8.679   5.122  0.00  0.00    +0.117 A 
ATOM     30  C   UNL     1      -1.497   8.409   5.141  0.00  0.00    +0.045 A 
ATOM     31  C   UNL     1      -1.966   7.279   5.783  0.00  0.00    +0.007 A 
BRANCH  29  32
ATOM     32  O   UNL     1       0.329   9.790   4.491  0.00  0.00    -0.507 OA
ATOM     33  H   UNL     1       0.383  10.570   5.059  0.00  0.00    +0.292 HD
ENDBRANCH  29  32
ENDBRANCH  25  26
ENDBRANCH  15  25
BRANCH  18  34
ATOM     34  C   UNL     1      -5.486   2.859   8.452  0.00  0.00    +0.121 C 
BRANCH  34  35
ATOM     35  C   UNL     1      -5.622   1.671   9.406  0.00  0.00    +0.054 C 
BRANCH  35  36
ATOM     36  C   UNL     1      -6.825   1.871  10.291  0.00  0.00    -0.046 A 
ATOM     37  C   UNL     1      -6.691   2.525  11.502  0.00  0.00    +0.004 A 
ATOM     38  C   UNL     1      -7.795   2.713  12.311  0.00  0.00    +0.000 A 
ATOM     39  C   UNL     1      -9.032   2.239  11.915  0.00  0.00    +0.000 A 
ATOM     40  C   UNL     1      -9.165   1.581  10.707  0.00  0.00    +0.000 A 
ATOM     41  C   UNL     1      -8.061   1.397   9.895  0.00  0.00    +0.004 A 
ENDBRANCH  35  36
ENDBRANCH  34  35
ENDBRANCH  18  34
TORSDOF 6
