REMARK  Name = ZINC43764263
REMARK  16 active torsions:
REMARK  status: ('A' for Active; 'I' for Inactive)
REMARK    1  A    between atoms: C_1  and  C_2
REMARK    2  A    between atoms: C_2  and  C_4
REMARK    3  A    between atoms: C_2  and  C_10
REMARK    4  A    between atoms: C_4  and  C_5
REMARK    5  A    between atoms: C_5  and  C_6
REMARK    6  A    between atoms: C_6  and  C_7
REMARK    7  A    between atoms: C_7  and  C_8
REMARK    8  A    between atoms: C_7  and  C_9
REMARK    9  A    between atoms: C_16  and  C_43
REMARK   10  A    between atoms: C_24  and  O_39
REMARK   11  A    between atoms: C_26  and  O_38
REMARK   12  A    between atoms: C_27  and  C_37
REMARK   13  A    between atoms: C_31  and  N_33
REMARK   14  A    between atoms: C_34  and  C_36
REMARK   15  A    between atoms: O_39  and  C_40
REMARK   16  A    between atoms: C_40  and  C_42
REMARK                            x       y       z     vdW  Elec       q    Type
REMARK                         _______ _______ _______ _____ _____    ______ ____
ROOT
ATOM      1  C   UNL     1       1.140  -0.723  -0.979  0.00  0.00    -0.002 C 
ATOM      2  C   UNL     1       1.114  -2.272  -0.956  0.00  0.00    +0.004 C 
ATOM      3  C   UNL     1       0.725  -2.724  -2.390  0.00  0.00    +0.004 C 
ATOM      4  C   UNL     1      -0.024  -1.507  -2.943  0.00  0.00    -0.001 C 
ATOM      5  C   UNL     1       0.858  -0.334  -2.426  0.00  0.00    -0.026 C 
ATOM      6  C   UNL     1       0.082   0.950  -2.644  0.00  0.00    +0.007 C 
ATOM      7  C   UNL     1      -0.089   1.129  -4.162  0.00  0.00    +0.005 C 
ATOM      8  C   UNL     1      -0.795  -0.069  -4.786  0.00  0.00    +0.001 C 
ATOM      9  C   UNL     1      -0.091  -1.401  -4.455  0.00  0.00    -0.000 C 
ATOM     10  C   UNL     1      -0.890  -2.570  -5.034  0.00  0.00    +0.051 C 
ATOM     11  C   UNL     1      -0.990  -2.414  -6.553  0.00  0.00    +0.210 C 
ATOM     12  C   UNL     1      -1.699  -1.100  -6.887  0.00  0.00    +0.126 C 
ATOM     13  C   UNL     1      -0.867   0.098  -6.304  0.00  0.00    +0.005 C 
ATOM     14  C   UNL     1      -1.577   1.411  -6.639  0.00  0.00    +0.010 C 
ATOM     15  C   UNL     1      -2.988   1.392  -6.047  0.00  0.00    +0.003 C 
ATOM     16  C   UNL     1      -3.775   0.222  -6.642  0.00  0.00    +0.025 C 
ATOM     17  C   UNL     1      -3.103  -1.110  -6.278  0.00  0.00    +0.109 C 
ATOM     18  C   UNL     1       0.548   0.115  -6.885  0.00  0.00    +0.014 C 
ATOM     19  C   UNL     1       2.168  -0.286  -3.214  0.00  0.00    +0.012 C 
ENDROOT
BRANCH  17  20
ATOM     20  N   UNL     1      -3.003  -1.258  -4.824  0.00  0.00    -0.310 N 
ATOM     21  C   UNL     1      -4.121  -1.304  -4.072  0.00  0.00    +0.210 C 
ATOM     22  O   UNL     1      -5.210  -1.286  -4.605  0.00  0.00    -0.276 OA
ATOM     23  C   UNL     1      -4.017  -1.379  -2.571  0.00  0.00    +0.109 C 
ATOM     24  H   UNL     1      -2.132  -1.323  -4.401  0.00  0.00    +0.149 HD
ENDBRANCH  17  20
BRANCH   1  26
ATOM     25  C   UNL     1       0.489  -0.328   1.401  0.00  0.00    +0.008 C 
ATOM     26  C   UNL     1       0.056  -0.161  -0.058  0.00  0.00    -0.010 C 
BRANCH  26  27
ATOM     27  C   UNL     1      -1.254  -0.918  -0.290  0.00  0.00    +0.003 C 
BRANCH  27  28
ATOM     28  C   UNL     1      -2.314  -0.415   0.691  0.00  0.00    +0.001 C 
BRANCH  28  29
ATOM     29  C   UNL     1      -3.562  -1.294   0.587  0.00  0.00    +0.003 C 
BRANCH  29  30
ATOM     30  C   UNL     1      -4.662  -0.726   1.486  0.00  0.00    -0.017 C 
ATOM     31  C   UNL     1      -5.090   0.647   0.963  0.00  0.00    +0.007 C 
ATOM     32  C   UNL     1      -5.865  -1.672   1.480  0.00  0.00    +0.007 C 
ENDBRANCH  29  30
ENDBRANCH  28  29
ENDBRANCH  27  28
ENDBRANCH  26  27
ENDBRANCH   1  26
BRANCH  12  33
ATOM     33  O   UNL     1      -1.796  -0.957  -8.305  0.00  0.00    -0.383 OA
ATOM     34  H   UNL     1      -2.290  -1.666  -8.739  0.00  0.00    +0.210 HD
ENDBRANCH  12  33
BRANCH  11  35
ATOM     35  O   UNL     1      -1.735  -3.507  -7.095  0.00  0.00    -0.459 OA
BRANCH  35  36
ATOM     36  C   UNL     1      -1.040  -4.598  -7.457  0.00  0.00    +0.304 C 
ATOM     37  O   UNL     1       0.160  -4.623  -7.318  0.00  0.00    -0.251 OA
ATOM     38  C   UNL     1      -1.757  -5.790  -8.036  0.00  0.00    +0.136 C 
ENDBRANCH  35  36
ENDBRANCH  11  35
TORSDOF 9
