REMARK  Name = ZINC49813971
REMARK  7 active torsions:
REMARK  status: ('A' for Active; 'I' for Inactive)
REMARK    1  A    between atoms: C_5  and  S_14
REMARK    2  A    between atoms: C_6  and  N_7
REMARK    3  A    between atoms: N_7  and  C_8
REMARK    4  A    between atoms: S_14  and  N_17
REMARK    5  A    between atoms: C_18  and  C_19
REMARK    6  A    between atoms: C_19  and  N_20
REMARK    7  A    between atoms: N_23  and  C_24
REMARK                            x       y       z     vdW  Elec       q    Type
REMARK                         _______ _______ _______ _____ _____    ______ ____
ROOT
ATOM      1  S   UNL     1       1.138  -2.432  -0.137  0.00  0.00    +0.103 S 
ATOM      2  O   UNL     1       0.322  -3.057  -1.118  0.00  0.00    -0.146 OA
ATOM      3  O   UNL     1       2.550  -2.594  -0.105  0.00  0.00    -0.146 OA
ENDROOT
BRANCH   1   8
ATOM      4  C   UNL     1      -0.663   1.165  -0.381  0.00  0.00    +0.042 A 
ATOM      5  C   UNL     1       0.440   1.990  -0.443  0.00  0.00    +0.084 A 
ATOM      6  N   UNL     1       1.661   1.490  -0.413  0.00  0.00    -0.365 N 
ATOM      7  C   UNL     1       1.882   0.192  -0.323  0.00  0.00    +0.113 A 
ATOM      8  C   UNL     1       0.833  -0.700  -0.256  0.00  0.00    +0.149 A 
ATOM      9  C   UNL     1      -0.474  -0.213  -0.285  0.00  0.00    +0.057 A 
ATOM     10  H   UNL     1       2.419   2.094  -0.458  0.00  0.00    +0.165 HD
BRANCH   9  11
ATOM     11  N   UNL     1      -1.561  -1.080  -0.220  0.00  0.00    -0.339 N 
ATOM     12  H   UNL     1      -1.415  -2.037  -0.153  0.00  0.00    +0.146 HD
BRANCH  11  13
ATOM     13  C   UNL     1      -2.925  -0.548  -0.251  0.00  0.00    +0.070 C 
ATOM     14  C   UNL     1      -3.348  -0.146   1.163  0.00  0.00    +0.022 C 
ATOM     15  C   UNL     1      -4.774   0.410   1.131  0.00  0.00    +0.002 C 
ATOM     16  C   UNL     1      -5.727  -0.661   0.599  0.00  0.00    +0.000 C 
ATOM     17  C   UNL     1      -5.304  -1.064  -0.815  0.00  0.00    +0.002 C 
ATOM     18  C   UNL     1      -3.879  -1.620  -0.783  0.00  0.00    +0.022 C 
ENDBRANCH  11  13
ENDBRANCH   9  11
ENDBRANCH   1   8
BRANCH   1  19
ATOM     19  N   UNL     1       0.571  -2.929   1.337  0.00  0.00    -0.116 NA
ATOM     20  C   UNL     1       0.608  -4.181   1.655  0.00  0.00    +0.144 C 
ATOM     21  N   UNL     1       0.249  -4.579   2.916  0.00  0.00    -0.327 N 
ATOM     22  H   UNL     1       0.352  -5.507   3.180  0.00  0.00    +0.148 HD
BRANCH  21  23
ATOM     23  C   UNL     1      -0.291  -3.603   3.866  0.00  0.00    +0.072 C 
ATOM     24  C   UNL     1       0.862  -2.892   4.577  0.00  0.00    +0.022 C 
ATOM     25  C   UNL     1       0.338  -1.625   5.257  0.00  0.00    +0.002 C 
ATOM     26  C   UNL     1      -0.602  -0.885   4.303  0.00  0.00    +0.000 C 
ATOM     27  C   UNL     1      -2.027  -0.927   4.857  0.00  0.00    +0.000 C 
ATOM     28  C   UNL     1      -2.624  -2.317   4.624  0.00  0.00    +0.000 C 
ATOM     29  C   UNL     1      -2.031  -3.302   5.633  0.00  0.00    +0.002 C 
ATOM     30  C   UNL     1      -1.161  -4.323   4.899  0.00  0.00    +0.022 C 
ENDBRANCH  21  23
BRANCH  20  31
ATOM     31  C   UNL     1       1.046  -5.204   0.639  0.00  0.00    +0.283 C 
BRANCH  31  32
ATOM     32  N   UNL     1       0.853  -6.550   1.186  0.00  0.00    +0.030 N 
ATOM     33  O   UNL     1      -0.220  -6.869   1.641  0.00  0.00    -0.131 OA
ATOM     34  O   UNL     1       1.767  -7.341   1.181  0.00  0.00    -0.131 OA
ENDBRANCH  31  32
ENDBRANCH  20  31
ENDBRANCH   1  19
TORSDOF 7
