REMARK  Name = ZINC38685238
REMARK  17 active torsions:
REMARK  status: ('A' for Active; 'I' for Inactive)
REMARK    1  A    between atoms: C_1  and  C_2
REMARK    2  A    between atoms: C_2  and  C_3
REMARK    3  A    between atoms: C_3  and  C_4
REMARK    4  A    between atoms: C_4  and  O_5
REMARK    5  A    between atoms: O_5  and  C_6
REMARK    6  A    between atoms: C_10  and  C_12
REMARK    7  A    between atoms: C_17  and  O_26
REMARK    8  A    between atoms: C_21  and  N_25
REMARK    9  A    between atoms: C_22  and  C_23
REMARK   10  A    between atoms: O_26  and  C_27
REMARK   11  A    between atoms: C_27  and  C_29
REMARK   12  A    between atoms: C_29  and  C_31
REMARK   13  A    between atoms: C_29  and  O_32
REMARK   14  A    between atoms: O_32  and  C_33
REMARK   15  A    between atoms: C_36  and  C_39
REMARK   16  A    between atoms: C_39  and  C_40
REMARK   17  A    between atoms: C_39  and  C_41
REMARK                            x       y       z     vdW  Elec       q    Type
REMARK                         _______ _______ _______ _____ _____    ______ ____
ROOT
ATOM      1  C   UNL     1       2.998  -6.250   4.834  0.00  0.00    +0.098 C 
ATOM      2  C   UNL     1       4.172  -7.091   4.408  0.00  0.00    +0.008 A 
ATOM      3  C   UNL     1       5.341  -6.473   4.001  0.00  0.00    +0.012 A 
ATOM      4  C   UNL     1       6.427  -7.228   3.607  0.00  0.00    +0.047 A 
ATOM      5  C   UNL     1       6.348  -8.614   3.617  0.00  0.00    +0.135 A 
ATOM      6  C   UNL     1       5.179  -9.236   4.023  0.00  0.00    +0.093 A 
ATOM      7  C   UNL     1       4.088  -8.475   4.419  0.00  0.00    +0.138 A 
ATOM      8  O   UNL     1       2.951  -9.099   4.815  0.00  0.00    -0.441 OA
ATOM      9  C   UNL     1       2.044  -8.436   5.552  0.00  0.00    +0.199 C 
ATOM     10  C   UNL     1       2.014  -7.087   5.602  0.00  0.00    +0.098 C 
ENDROOT
BRANCH   1  15
ATOM     11  C   UNL     1       1.613  -3.785   2.327  0.00  0.00    +0.121 A 
ATOM     12  C   UNL     1       1.082  -4.637   1.370  0.00  0.00    +0.045 A 
ATOM     13  C   UNL     1       1.173  -6.005   1.537  0.00  0.00    +0.004 A 
ATOM     14  C   UNL     1       1.793  -6.526   2.658  0.00  0.00    +0.005 A 
ATOM     15  C   UNL     1       2.323  -5.679   3.614  0.00  0.00    -0.031 A 
ATOM     16  C   UNL     1       2.240  -4.310   3.448  0.00  0.00    +0.050 A 
BRANCH  11  17
ATOM     17  O   UNL     1       1.526  -2.439   2.164  0.00  0.00    -0.492 OA
BRANCH  17  18
ATOM     18  C   UNL     1       0.867  -1.969   0.986  0.00  0.00    +0.229 C 
BRANCH  18  19
ATOM     19  C   UNL     1       0.866  -0.439   0.977  0.00  0.00    +0.041 C 
BRANCH  19  21
ATOM     20  C   UNL     1       0.160   1.593  -0.293  0.00  0.00    +0.004 C 
ATOM     21  C   UNL     1       0.161   0.063  -0.284  0.00  0.00    -0.000 C 
ENDBRANCH  19  21
ENDBRANCH  18  19
ENDBRANCH  17  18
ENDBRANCH  11  17
ENDBRANCH   1  15
BRANCH   9  22
ATOM     22  N   UNL     1       1.121  -9.152   6.274  0.00  0.00    -0.328 N 
ATOM     23  H   UNL     1       1.130 -10.121   6.247  0.00  0.00    +0.145 HD
ATOM     24  H   UNL     1       0.460  -8.688   6.811  0.00  0.00    +0.145 HD
ENDBRANCH   9  22
BRANCH  10  25
ATOM     25  C   UNL     1       1.021  -6.441   6.407  0.00  0.00    +0.101 C 
ATOM     26  N   UNL     1       0.233  -5.929   7.045  0.00  0.00    -0.191 NA
ENDBRANCH  10  25
BRANCH   5  27
ATOM     27  O   UNL     1       7.417  -9.359   3.228  0.00  0.00    -0.423 OA
BRANCH  27  28
ATOM     28  C   UNL     1       7.298 -10.097   2.113  0.00  0.00    +0.353 C 
ATOM     29  O   UNL     1       6.300 -10.014   1.437  0.00  0.00    -0.246 OA
BRANCH  28  30
ATOM     30  C   UNL     1       8.410 -11.029   1.704  0.00  0.00    +0.279 C 
ATOM     31  C   UNL     1       9.658 -10.213   1.361  0.00  0.00    +0.064 C 
BRANCH  30  32
ATOM     32  O   UNL     1       8.004 -11.782   0.560  0.00  0.00    -0.478 OA
BRANCH  32  33
ATOM     33  C   UNL     1       8.467 -13.056   0.464  0.00  0.00    +0.122 A 
ATOM     34  C   UNL     1       9.393 -13.530   1.382  0.00  0.00    +0.046 A 
ATOM     35  C   UNL     1       9.862 -14.825   1.282  0.00  0.00    +0.007 A 
ATOM     36  C   UNL     1       9.410 -15.649   0.268  0.00  0.00    -0.045 A 
ATOM     37  C   UNL     1       8.488 -15.180  -0.649  0.00  0.00    +0.007 A 
ATOM     38  C   UNL     1       8.011 -13.887  -0.550  0.00  0.00    +0.046 A 
BRANCH  36  39
ATOM     39  C   UNL     1       9.924 -17.062   0.161  0.00  0.00    +0.013 C 
ATOM     40  C   UNL     1       8.754 -18.041   0.279  0.00  0.00    +0.012 C 
ATOM     41  C   UNL     1      10.615 -17.253  -1.190  0.00  0.00    +0.012 C 
ENDBRANCH  36  39
ENDBRANCH  32  33
ENDBRANCH  30  32
ENDBRANCH  28  30
ENDBRANCH  27  28
ENDBRANCH   5  27
TORSDOF 13
