REMARK  Name = ZINC27521956
REMARK  7 active torsions:
REMARK  status: ('A' for Active; 'I' for Inactive)
REMARK    1  A    between atoms: C_1  and  C_2
REMARK    2  A    between atoms: C_5  and  N_9
REMARK    3  A    between atoms: C_10  and  C_12
REMARK    4  A    between atoms: C_12  and  N_23
REMARK    5  A    between atoms: C_13  and  C_14
REMARK    6  A    between atoms: C_18  and  N_20
REMARK    7  A    between atoms: C_24  and  C_26
REMARK                            x       y       z     vdW  Elec       q    Type
REMARK                         _______ _______ _______ _____ _____    ______ ____
ROOT
ATOM      1  C   UNL     1      -4.737   3.681  -0.240  0.00  0.00    +0.097 C 
ATOM      2  C   UNL     1      -4.816   5.029  -0.327  0.00  0.00    +0.036 C 
ENDROOT
BRANCH   2   3
ATOM      3  C   UNL     1      -6.093   5.669  -0.679  0.00  0.00    -0.021 A 
ATOM      4  C   UNL     1      -7.091   4.936  -1.330  0.00  0.00    +0.008 A 
ATOM      5  C   UNL     1      -8.287   5.542  -1.652  0.00  0.00    +0.003 A 
ATOM      6  C   UNL     1      -8.497   6.875  -1.343  0.00  0.00    +0.033 A 
ATOM      7  C   UNL     1      -7.512   7.608  -0.704  0.00  0.00    +0.127 A 
ATOM      8  C   UNL     1      -6.313   7.015  -0.370  0.00  0.00    +0.040 A 
BRANCH   7   9
ATOM      9  N   UNL     1      -7.747   9.033  -0.378  0.00  0.00    +0.056 N 
ATOM     10  O   UNL     1      -6.882   9.680   0.184  0.00  0.00    -0.126 OA
ATOM     11  O   UNL     1      -8.806   9.558  -0.671  0.00  0.00    -0.126 OA
ENDBRANCH   7   9
ENDBRANCH   2   3
BRANCH   1  13
ATOM     12  N   UNL     1      -2.319   3.783   0.083  0.00  0.00    -0.280 N 
ATOM     13  C   UNL     1      -3.434   3.034  -0.026  0.00  0.00    +0.262 C 
ATOM     14  O   UNL     1      -3.363   1.821   0.053  0.00  0.00    -0.268 OA
ATOM     15  H   UNL     1      -2.393   4.880   0.093  0.00  0.00    +0.155 HD
BRANCH  12  20
ATOM     16  C   UNL     1       2.755   1.279   0.493  0.00  0.00    +0.045 C 
ATOM     17  C   UNL     1       1.407   1.944   0.384  0.00  0.00    -0.032 A 
ATOM     18  C   UNL     1       1.178   3.148   1.024  0.00  0.00    +0.006 A 
ATOM     19  C   UNL     1      -0.058   3.758   0.930  0.00  0.00    +0.023 A 
ATOM     20  C   UNL     1      -1.069   3.165   0.184  0.00  0.00    +0.035 A 
ATOM     21  C   UNL     1      -0.837   1.956  -0.457  0.00  0.00    +0.043 A 
ATOM     22  C   UNL     1       0.400   1.347  -0.356  0.00  0.00    +0.046 A 
ATOM     23 CL   UNL     1       0.692  -0.165  -1.157  0.00  0.00    -0.083 Cl
ENDBRANCH  12  20
ENDBRANCH   1  13
BRANCH   1  24
ATOM     24  N   UNL     1      -5.893   2.904  -0.353  0.00  0.00    -0.277 N 
ATOM     25  C   UNL     1      -5.976   1.953  -1.305  0.00  0.00    +0.250 C 
ATOM     26  O   UNL     1      -5.015   1.715  -2.011  0.00  0.00    -0.270 OA
ATOM     27  H   UNL     1      -6.736   3.068   0.335  0.00  0.00    +0.155 HD
BRANCH  25  28
ATOM     28  C   UNL     1      -7.232   1.201  -1.490  0.00  0.00    +0.055 A 
ATOM     29  C   UNL     1      -8.372   1.549  -0.760  0.00  0.00    +0.017 A 
ATOM     30  C   UNL     1      -9.542   0.844  -0.936  0.00  0.00    +0.039 A 
ATOM     31  C   UNL     1      -9.592  -0.210  -1.837  0.00  0.00    +0.125 A 
ATOM     32  C   UNL     1      -8.465  -0.561  -2.564  0.00  0.00    +0.059 A 
ATOM     33  C   UNL     1      -7.289   0.142  -2.400  0.00  0.00    +0.056 A 
ATOM     34 CL   UNL     1      -5.880  -0.293  -3.317  0.00  0.00    -0.083 Cl
ATOM     35  F   UNL     1     -10.742  -0.897  -2.006  0.00  0.00    -0.205 F 
ENDBRANCH  25  28
ENDBRANCH   1  24
TORSDOF 6
