REMARK  Name = ZINC14848988
REMARK  6 active torsions:
REMARK  status: ('A' for Active; 'I' for Inactive)
REMARK    1  A    between atoms: C_3  and  C_6
REMARK    2  A    between atoms: C_11  and  N_14
REMARK    3  A    between atoms: C_15  and  C_17
REMARK    4  A    between atoms: C_17  and  C_18
REMARK    5  A    between atoms: C_18  and  N_19
REMARK    6  A    between atoms: N_22  and  C_23
REMARK                            x       y       z     vdW  Elec       q    Type
REMARK                         _______ _______ _______ _____ _____    ______ ____
ROOT
ATOM      1  N   UNL     1       1.561  -0.326  -1.155  0.00  0.00    -0.312 N 
ATOM      2  C   UNL     1       1.019   0.446  -0.193  0.00  0.00    +0.215 C 
ATOM      3  O   UNL     1       0.291  -0.048   0.642  0.00  0.00    -0.276 OA
ATOM      4  H   UNL     1       2.143   0.069  -1.823  0.00  0.00    +0.149 HD
ENDROOT
BRANCH   1  10
ATOM      5  C   UNL     1       2.688  -5.528  -2.017  0.00  0.00    +0.282 C 
ATOM      6  O   UNL     1       3.464  -6.014  -1.215  0.00  0.00    -0.267 OA
ATOM      7  N   UNL     1       1.929  -4.472  -1.665  0.00  0.00    -0.295 N 
ATOM      8  C   UNL     1       1.108  -3.773  -2.664  0.00  0.00    +0.110 C 
ATOM      9  C   UNL     1       1.445  -2.280  -2.622  0.00  0.00    +0.041 C 
ATOM     10  C   UNL     1       1.272  -1.762  -1.192  0.00  0.00    +0.076 C 
ATOM     11  C   UNL     1       2.234  -2.500  -0.260  0.00  0.00    +0.041 C 
ATOM     12  C   UNL     1       1.906  -3.996  -0.275  0.00  0.00    +0.110 C 
BRANCH   5  15
ATOM     13  C   UNL     1       2.924  -7.292  -5.205  0.00  0.00    +0.042 A 
ATOM     14  C   UNL     1       3.384  -7.058  -3.900  0.00  0.00    +0.054 A 
ATOM     15  C   UNL     1       2.580  -6.092  -3.366  0.00  0.00    +0.189 A 
ATOM     16  O   UNL     1       1.664  -5.751  -4.297  0.00  0.00    -0.458 OA
ATOM     17  C   UNL     1       1.871  -6.468  -5.409  0.00  0.00    +0.196 A 
ENDBRANCH   5  15
ENDBRANCH   1  10
BRANCH   2  18
ATOM     18  C   UNL     1       1.317   1.923  -0.154  0.00  0.00    +0.114 C 
BRANCH  18  19
ATOM     19  C   UNL     1       0.582   2.561   1.027  0.00  0.00    +0.115 C 
BRANCH  19  20
ATOM     20  N   UNL     1       0.872   3.996   1.064  0.00  0.00    -0.299 N 
ATOM     21  C   UNL     1       0.330   4.769   2.026  0.00  0.00    +0.300 C 
ATOM     22  O   UNL     1      -0.400   4.274   2.864  0.00  0.00    -0.253 OA
ATOM     23  N   UNL     1       0.596   6.089   2.061  0.00  0.00    -0.297 N 
ATOM     24  H   UNL     1       1.454   4.391   0.396  0.00  0.00    +0.150 HD
ATOM     25  H   UNL     1       1.178   6.484   1.393  0.00  0.00    +0.151 HD
BRANCH  23  26
ATOM     26  C   UNL     1       0.006   6.928   3.107  0.00  0.00    +0.074 C 
ATOM     27  C   UNL     1      -1.394   7.371   2.677  0.00  0.00    +0.022 C 
ATOM     28  C   UNL     1      -2.010   8.248   3.769  0.00  0.00    +0.002 C 
ATOM     29  C   UNL     1      -1.131   9.480   3.990  0.00  0.00    +0.000 C 
ATOM     30  C   UNL     1       0.270   9.037   4.420  0.00  0.00    +0.002 C 
ATOM     31  C   UNL     1       0.885   8.161   3.328  0.00  0.00    +0.022 C 
ENDBRANCH  23  26
ENDBRANCH  19  20
ENDBRANCH  18  19
ENDBRANCH   2  18
TORSDOF 6
