REMARK  Name = ZINC01185220
REMARK  6 active torsions:
REMARK  status: ('A' for Active; 'I' for Inactive)
REMARK    1  A    between atoms: C_4  and  C_7
REMARK    2  A    between atoms: C_7  and  O_8
REMARK    3  A    between atoms: O_8  and  C_9
REMARK    4  A    between atoms: C_12  and  C_16
REMARK    5  A    between atoms: N_23  and  C_26
REMARK    6  A    between atoms: C_29  and  O_32
REMARK                            x       y       z     vdW  Elec       q    Type
REMARK                         _______ _______ _______ _____ _____    ______ ____
ROOT
ATOM      1  C   UNL     1      -0.296   0.385  -0.764  0.00  0.00    +0.026 C 
ATOM      2  C   UNL     1       0.813   1.108  -1.161  0.00  0.00    +0.100 C 
ATOM      3  C   UNL     1       0.698   2.506  -1.622  0.00  0.00    +0.257 C 
ATOM      4  O   UNL     1      -0.383   3.062  -1.666  0.00  0.00    -0.270 OA
ATOM      5  N   UNL     1       1.825   3.150  -1.989  0.00  0.00    -0.235 N 
ATOM      6  C   UNL     1       3.021   2.546  -1.952  0.00  0.00    +0.320 C 
ATOM      7  O   UNL     1       3.997   3.182  -2.301  0.00  0.00    -0.251 OA
ATOM      8  N   UNL     1       3.200   1.280  -1.550  0.00  0.00    -0.190 N 
ATOM      9  C   UNL     1       2.164   0.514  -1.148  0.00  0.00    +0.263 C 
ATOM     10  O   UNL     1       2.340  -0.634  -0.786  0.00  0.00    -0.269 OA
ATOM     11  H   UNL     1       1.768   4.070  -2.292  0.00  0.00    +0.159 HD
ENDROOT
BRANCH   1  15
ATOM     12  C   UNL     1      -3.972   2.366  -0.080  0.00  0.00    +0.135 A 
ATOM     13  C   UNL     1      -2.782   2.932   0.366  0.00  0.00    +0.047 A 
ATOM     14  C   UNL     1      -1.594   2.294   0.153  0.00  0.00    +0.011 A 
ATOM     15  C   UNL     1      -1.568   1.068  -0.529  0.00  0.00    -0.023 A 
ATOM     16  C   UNL     1      -2.768   0.497  -0.979  0.00  0.00    +0.027 A 
ATOM     17  C   UNL     1      -3.960   1.147  -0.753  0.00  0.00    +0.060 A 
ATOM     18 BR   UNL     1      -5.582   0.384  -1.356  0.00  0.00    -0.046 Br
BRANCH  12  19
ATOM     19  O   UNL     1      -5.148   3.004   0.141  0.00  0.00    -0.486 OA
BRANCH  19  20
ATOM     20  C   UNL     1      -5.089   4.251   0.837  0.00  0.00    +0.264 C 
BRANCH  20  24
ATOM     21  C   UNL     1      -9.035   5.829   1.269  0.00  0.00    +0.000 A 
ATOM     22  C   UNL     1      -8.513   4.997   2.242  0.00  0.00    +0.000 A 
ATOM     23  C   UNL     1      -7.236   4.486   2.102  0.00  0.00    +0.007 A 
ATOM     24  C   UNL     1      -6.481   4.808   0.990  0.00  0.00    -0.010 A 
ATOM     25  C   UNL     1      -7.001   5.644   0.019  0.00  0.00    +0.007 A 
ATOM     26  C   UNL     1      -8.280   6.151   0.157  0.00  0.00    +0.000 A 
ENDBRANCH  20  24
ENDBRANCH  19  20
ENDBRANCH  12  19
ENDBRANCH   1  15
BRANCH   8  27
ATOM     27  C   UNL     1       4.494   0.739  -1.547  0.00  0.00    +0.046 A 
ATOM     28  C   UNL     1       5.236   0.719  -0.374  0.00  0.00    +0.027 A 
ATOM     29  C   UNL     1       6.507   0.180  -0.370  0.00  0.00    +0.047 A 
ATOM     30  C   UNL     1       7.048  -0.331  -1.542  0.00  0.00    +0.117 A 
ATOM     31  C   UNL     1       6.309  -0.306  -2.716  0.00  0.00    +0.047 A 
ATOM     32  C   UNL     1       5.035   0.227  -2.719  0.00  0.00    +0.027 A 
BRANCH  30  33
ATOM     33  O   UNL     1       8.302  -0.856  -1.539  0.00  0.00    -0.507 OA
ATOM     34  H   UNL     1       8.998  -0.213  -1.731  0.00  0.00    +0.292 HD
ENDBRANCH  30  33
ENDBRANCH   8  27
TORSDOF 6
