REMARK  Name = ZINC05924662
REMARK  8 active torsions:
REMARK  status: ('A' for Active; 'I' for Inactive)
REMARK    1  A    between atoms: C_1  and  C_2
REMARK    2  A    between atoms: C_4  and  O_10
REMARK    3  A    between atoms: C_6  and  C_9
REMARK    4  A    between atoms: O_10  and  C_11
REMARK    5  A    between atoms: C_11  and  C_12
REMARK    6  A    between atoms: N_14  and  N_15
REMARK    7  A    between atoms: C_16  and  C_18
REMARK    8  A    between atoms: C_27  and  O_28
REMARK                            x       y       z     vdW  Elec       q    Type
REMARK                         _______ _______ _______ _____ _____    ______ ____
ROOT
ATOM      1  N   UNL     1       2.253   8.106   0.020  0.00  0.00    -0.230 N 
ATOM      2  C   UNL     1       1.089   7.428   0.028  0.00  0.00    +0.264 C 
ATOM      3  O   UNL     1       0.033   8.032   0.041  0.00  0.00    -0.269 OA
ATOM      4  H   UNL     1       3.095   7.625   0.010  0.00  0.00    +0.173 HD
ENDROOT
BRANCH   2   5
ATOM      5  C   UNL     1       1.094   5.955   0.021  0.00  0.00    +0.080 A 
ATOM      6  C   UNL     1       2.318   5.260   0.007  0.00  0.00    +0.017 A 
ATOM      7  C   UNL     1       2.350   3.904  -0.000  0.00  0.00    +0.009 A 
ATOM      8  C   UNL     1       1.149   3.167   0.008  0.00  0.00    -0.014 A 
ATOM      9  C   UNL     1       1.163   1.763   0.000  0.00  0.00    +0.008 A 
ATOM     10  C   UNL     1      -0.013   1.076   0.008  0.00  0.00    +0.001 A 
ATOM     11  C   UNL     1      -1.234   1.745   0.017  0.00  0.00    +0.001 A 
ATOM     12  C   UNL     1      -1.285   3.106   0.030  0.00  0.00    +0.012 A 
ATOM     13  C   UNL     1      -0.093   3.848   0.023  0.00  0.00    +0.024 A 
ATOM     14  C   UNL     1      -0.111   5.257   0.029  0.00  0.00    +0.137 A 
BRANCH  14  15
ATOM     15  O   UNL     1      -1.289   5.926   0.043  0.00  0.00    -0.505 OA
ATOM     16  H   UNL     1      -1.623   6.117   0.931  0.00  0.00    +0.292 HD
ENDBRANCH  14  15
ENDBRANCH   2   5
BRANCH   1  19
ATOM     17  C   UNL     1       3.412  10.186   0.019  0.00  0.00    +0.267 C 
ATOM     18  O   UNL     1       4.465   9.584   0.006  0.00  0.00    -0.271 OA
ATOM     19  N   UNL     1       2.248   9.507   0.027  0.00  0.00    -0.231 N 
ATOM     20  H   UNL     1       1.406   9.989   0.037  0.00  0.00    +0.173 HD
BRANCH  17  21
ATOM     21  C   UNL     1       3.406  11.693   0.026  0.00  0.00    +0.326 C 
BRANCH  21  22
ATOM     22  O   UNL     1       4.752  12.174   0.015  0.00  0.00    -0.483 OA
BRANCH  22  26
ATOM     23  C   UNL     1       7.767  16.012   0.004  0.00  0.00    +0.045 C 
ATOM     24  C   UNL     1       6.378  15.429   0.015  0.00  0.00    -0.028 A 
ATOM     25  C   UNL     1       6.204  14.059   0.010  0.00  0.00    +0.050 A 
ATOM     26  C   UNL     1       4.925  13.523   0.020  0.00  0.00    +0.122 A 
ATOM     27  C   UNL     1       3.822  14.364   0.029  0.00  0.00    +0.050 A 
ATOM     28  C   UNL     1       3.999  15.734   0.038  0.00  0.00    -0.028 A 
ATOM     29  C   UNL     1       5.276  16.267   0.029  0.00  0.00    +0.047 A 
ATOM     30 CL   UNL     1       5.497  17.989   0.035  0.00  0.00    -0.083 Cl
ATOM     31  C   UNL     1       2.802  16.649   0.053  0.00  0.00    +0.045 C 
ENDBRANCH  22  26
ENDBRANCH  21  22
ENDBRANCH  17  21
ENDBRANCH   1  19
TORSDOF 6
