REMARK  Name = ZINC66599815
REMARK  8 active torsions:
REMARK  status: ('A' for Active; 'I' for Inactive)
REMARK    1  A    between atoms: C_1  and  C_2
REMARK    2  A    between atoms: C_2  and  C_3
REMARK    3  A    between atoms: C_3  and  C_4
REMARK    4  A    between atoms: C_4  and  N_5
REMARK    5  A    between atoms: C_10  and  C_12
REMARK    6  A    between atoms: C_12  and  N_13
REMARK    7  A    between atoms: C_22  and  C_24
REMARK    8  A    between atoms: N_26  and  C_27
REMARK                            x       y       z     vdW  Elec       q    Type
REMARK                         _______ _______ _______ _____ _____    ______ ____
ROOT
ATOM      1  N   UNL     1      -0.666  -3.947   0.933  0.00  0.00    -0.301 N 
ATOM      2  C   UNL     1      -1.961  -4.138   0.612  0.00  0.00    +0.302 C 
ATOM      3  O   UNL     1      -2.672  -4.813   1.330  0.00  0.00    -0.253 OA
ATOM      4  N   UNL     1      -2.467  -3.581  -0.507  0.00  0.00    -0.283 N 
ATOM      5  C   UNL     1      -3.901  -3.682  -0.809  0.00  0.00    +0.128 C 
ATOM      6  C   UNL     1      -4.460  -2.268  -1.012  0.00  0.00    +0.127 C 
ATOM      7  N   UNL     1      -3.588  -1.549  -1.950  0.00  0.00    -0.291 N 
ATOM      8  C   UNL     1      -2.153  -1.448  -1.647  0.00  0.00    +0.127 C 
ATOM      9  C   UNL     1      -1.595  -2.857  -1.442  0.00  0.00    +0.128 C 
ATOM     10  C   UNL     1      -4.094  -0.991  -3.068  0.00  0.00    +0.302 C 
ATOM     11  O   UNL     1      -3.349  -0.514  -3.899  0.00  0.00    -0.265 OA
ATOM     12  H   UNL     1      -0.080  -3.471   0.324  0.00  0.00    +0.150 HD
ENDROOT
BRANCH  10  13
ATOM     13  C   UNL     1      -5.572  -0.962  -3.285  0.00  0.00    +0.299 C 
ATOM     14  O   UNL     1      -6.322  -1.329  -2.404  0.00  0.00    -0.265 OA
ATOM     15  N   UNL     1      -6.072  -0.527  -4.458  0.00  0.00    -0.305 N 
ATOM     16  H   UNL     1      -5.473  -0.233  -5.162  0.00  0.00    +0.149 HD
BRANCH  15  17
ATOM     17  C   UNL     1      -7.522  -0.498  -4.671  0.00  0.00    +0.073 C 
ATOM     18  C   UNL     1      -8.049  -1.002  -6.016  0.00  0.00    +0.024 C 
ATOM     19  C   UNL     1      -8.065   0.495  -5.701  0.00  0.00    +0.024 C 
ENDBRANCH  15  17
ENDBRANCH  10  13
BRANCH   1  20
ATOM     20  C   UNL     1      -0.143  -4.458   2.203  0.00  0.00    +0.090 C 
BRANCH  20  26
ATOM     21  N   UNL     1       2.088  -4.405   1.199  0.00  0.00    +0.383 N 
ATOM     22  C   UNL     1       3.498  -4.042   1.389  0.00  0.00    -0.078 C 
ATOM     23  C   UNL     1       3.626  -2.522   1.505  0.00  0.00    -0.019 C 
ATOM     24  C   UNL     1       2.805  -2.035   2.703  0.00  0.00    -0.003 C 
ATOM     25  C   UNL     1       1.352  -2.484   2.529  0.00  0.00    -0.014 C 
ATOM     26  C   UNL     1       1.308  -4.005   2.376  0.00  0.00    -0.051 C 
ATOM     27  H   UNL     1       1.729  -3.934   0.383  0.00  0.00    -0.081 HD
BRANCH  21  28
ATOM     28  C   UNL     1       1.979  -5.858   1.011  0.00  0.00    -0.078 C 
BRANCH  28  29
ATOM     29  C   UNL     1       2.673  -6.257  -0.293  0.00  0.00    -0.019 C 
BRANCH  29  31
ATOM     30  C   UNL     1       3.253  -8.170  -1.792  0.00  0.00    +0.004 C 
ATOM     31  C   UNL     1       2.559  -7.771  -0.488  0.00  0.00    -0.005 C 
ENDBRANCH  29  31
ENDBRANCH  28  29
ENDBRANCH  21  28
ENDBRANCH  20  26
ENDBRANCH   1  20
TORSDOF 7
