REMARK  Name = ZINC09870159
REMARK  10 active torsions:
REMARK  status: ('A' for Active; 'I' for Inactive)
REMARK    1  A    between atoms: C_1  and  C_2
REMARK    2  A    between atoms: C_2  and  C_28
REMARK    3  A    between atoms: N_5  and  N_9
REMARK    4  A    between atoms: C_10  and  C_12
REMARK    5  A    between atoms: C_15  and  S_18
REMARK    6  A    between atoms: S_18  and  N_21
REMARK    7  A    between atoms: N_21  and  C_22
REMARK    8  A    between atoms: C_22  and  C_23
REMARK    9  A    between atoms: C_28  and  C_29
REMARK   10  A    between atoms: C_29  and  C_30
REMARK                            x       y       z     vdW  Elec       q    Type
REMARK                         _______ _______ _______ _____ _____    ______ ____
ROOT
ATOM      1  N   UNL     1      -4.119   2.278  -5.326  0.00  0.00    -0.220 N 
ATOM      2  C   UNL     1      -3.212   3.118  -4.788  0.00  0.00    +0.261 C 
ATOM      3  O   UNL     1      -3.041   4.219  -5.272  0.00  0.00    -0.269 OA
ATOM      4  H   UNL     1      -4.255   1.399  -4.939  0.00  0.00    +0.174 HD
ENDROOT
BRANCH   1   9
ATOM      5  C   UNL     1      -6.596   1.893  -9.227  0.00  0.00    +0.041 C 
ATOM      6  C   UNL     1      -5.677   2.921  -8.565  0.00  0.00    +0.112 C 
ATOM      7  C   UNL     1      -4.643   2.231  -7.697  0.00  0.00    +0.263 C 
ATOM      8  O   UNL     1      -3.794   1.443  -8.056  0.00  0.00    -0.271 OA
ATOM      9  N   UNL     1      -4.864   2.675  -6.444  0.00  0.00    -0.137 N 
ATOM     10  C   UNL     1      -5.886   3.537  -6.399  0.00  0.00    +0.326 C 
ATOM     11  O   UNL     1      -6.277   4.068  -5.378  0.00  0.00    -0.251 OA
ATOM     12  N   UNL     1      -6.431   3.752  -7.610  0.00  0.00    -0.284 N 
ATOM     13  H   UNL     1      -7.177   4.336  -7.814  0.00  0.00    +0.151 HD
BRANCH   6  14
ATOM     14  C   UNL     1      -4.997   3.793  -9.622  0.00  0.00    +0.040 C 
BRANCH  14  15
ATOM     15  C   UNL     1      -6.059   4.573 -10.400  0.00  0.00    +0.038 C 
BRANCH  15  16
ATOM     16  C   UNL     1      -5.389   5.432 -11.441  0.00  0.00    -0.047 A 
ATOM     17  C   UNL     1      -5.008   6.724 -11.131  0.00  0.00    +0.003 A 
ATOM     18  C   UNL     1      -4.389   7.510 -12.084  0.00  0.00    +0.000 A 
ATOM     19  C   UNL     1      -4.161   7.008 -13.352  0.00  0.00    +0.000 A 
ATOM     20  C   UNL     1      -4.547   5.718 -13.664  0.00  0.00    +0.000 A 
ATOM     21  C   UNL     1      -5.160   4.930 -12.709  0.00  0.00    +0.003 A 
ENDBRANCH  15  16
ENDBRANCH  14  15
ENDBRANCH   6  14
ENDBRANCH   1   9
BRANCH   2  22
ATOM     22  C   UNL     1      -2.426   2.699  -3.608  0.00  0.00    +0.038 A 
ATOM     23  C   UNL     1      -1.486   3.566  -3.048  0.00  0.00    +0.015 A 
ATOM     24  C   UNL     1      -0.756   3.170  -1.946  0.00  0.00    +0.029 A 
ATOM     25  C   UNL     1      -0.954   1.915  -1.397  0.00  0.00    +0.105 A 
ATOM     26  C   UNL     1      -1.879   1.049  -1.950  0.00  0.00    +0.029 A 
ATOM     27  C   UNL     1      -2.620   1.435  -3.048  0.00  0.00    +0.015 A 
BRANCH  25  28
ATOM     28  S   UNL     1      -0.017   1.417   0.010  0.00  0.00    +0.059 S 
ATOM     29  O   UNL     1       0.002  -0.004   0.002  0.00  0.00    -0.153 OA
ATOM     30  O   UNL     1       1.172   2.195   0.003  0.00  0.00    -0.153 OA
BRANCH  28  31
ATOM     31  N   UNL     1      -0.872   1.871   1.353  0.00  0.00    -0.183 NA
ATOM     32  H   UNL     1      -0.510   2.541   1.955  0.00  0.00    +0.148 HD
BRANCH  31  33
ATOM     33  C   UNL     1      -2.174   1.261   1.634  0.00  0.00    +0.180 C 
BRANCH  33  34
ATOM     34  C   UNL     1      -2.569   1.553   3.059  0.00  0.00    +0.120 A 
ATOM     35  C   UNL     1      -3.273   2.619   3.478  0.00  0.00    +0.046 A 
ATOM     36  C   UNL     1      -3.413   2.493   4.879  0.00  0.00    +0.041 A 
ATOM     37  C   UNL     1      -2.787   1.357   5.232  0.00  0.00    +0.195 A 
ATOM     38  O   UNL     1      -2.282   0.788   4.125  0.00  0.00    -0.466 OA
ENDBRANCH  33  34
ENDBRANCH  31  33
ENDBRANCH  28  31
ENDBRANCH  25  28
ENDBRANCH   2  22
TORSDOF 9
