REMARK  Name = ZINC03306065
REMARK  11 active torsions:
REMARK  status: ('A' for Active; 'I' for Inactive)
REMARK    1  A    between atoms: C_1  and  C_2
REMARK    2  A    between atoms: C_3  and  N_15
REMARK    3  A    between atoms: N_6  and  C_9
REMARK    4  A    between atoms: N_7  and  C_8
REMARK    5  A    between atoms: C_16  and  C_18
REMARK    6  A    between atoms: C_18  and  O_19
REMARK    7  A    between atoms: O_19  and  C_20
REMARK    8  A    between atoms: C_27  and  C_39
REMARK    9  A    between atoms: C_28  and  C_31
REMARK   10  A    between atoms: C_34  and  O_37
REMARK   11  A    between atoms: O_37  and  C_38
REMARK                            x       y       z     vdW  Elec       q    Type
REMARK                         _______ _______ _______ _____ _____    ______ ____
ROOT
ATOM      1  O   UNL     1      -3.323   7.272   1.688  0.00  0.00    -0.483 OA
ENDROOT
BRANCH   1   2
ATOM      2  C   UNL     1      -2.015   6.954   1.863  0.00  0.00    +0.125 A 
ATOM      3  C   UNL     1      -1.026   7.805   1.374  0.00  0.00    +0.046 A 
ATOM      4  C   UNL     1       0.293   7.497   1.544  0.00  0.00    +0.019 A 
ATOM      5  C   UNL     1       0.651   6.325   2.212  0.00  0.00    +0.065 A 
ATOM      6  C   UNL     1      -0.339   5.460   2.710  0.00  0.00    +0.142 A 
ATOM      7  C   UNL     1      -1.677   5.788   2.528  0.00  0.00    +0.092 A 
ATOM      8  O   UNL     1       0.007   4.326   3.350  0.00  0.00    -0.459 OA
ATOM      9  C   UNL     1       1.275   3.961   3.559  0.00  0.00    +0.114 A 
ATOM     10  C   UNL     1       2.329   4.702   3.132  0.00  0.00    +0.067 A 
ATOM     11  C   UNL     1       2.065   5.961   2.414  0.00  0.00    +0.200 A 
ATOM     12  O   UNL     1       2.971   6.667   2.007  0.00  0.00    -0.286 OA
ATOM     13  C   UNL     1       1.546   2.672   4.293  0.00  0.00    +0.087 C 
BRANCH  10  14
ATOM     14  C   UNL     1       3.721   4.253   3.382  0.00  0.00    -0.011 A 
ATOM     15  C   UNL     1       4.205   4.173   4.687  0.00  0.00    +0.012 A 
ATOM     16  C   UNL     1       5.497   3.749   4.916  0.00  0.00    +0.046 A 
ATOM     17  C   UNL     1       6.319   3.413   3.849  0.00  0.00    +0.120 A 
ATOM     18  C   UNL     1       5.841   3.497   2.549  0.00  0.00    +0.046 A 
ATOM     19  C   UNL     1       4.548   3.914   2.313  0.00  0.00    +0.012 A 
BRANCH  17  20
ATOM     20  O   UNL     1       7.594   3.002   4.079  0.00  0.00    -0.495 OA
ATOM     21  C   UNL     1       8.020   2.939   5.441  0.00  0.00    +0.277 C 
ENDBRANCH  17  20
ENDBRANCH  10  14
ENDBRANCH   1   2
BRANCH   1  22
ATOM     22  C   UNL     1      -3.607   8.489   0.994  0.00  0.00    +0.324 C 
BRANCH  22  24
ATOM     23  N   UNL     1      -5.604   9.760   0.277  0.00  0.00    -0.277 N 
ATOM     24  C   UNL     1      -5.100   8.674   0.895  0.00  0.00    +0.255 C 
ATOM     25  O   UNL     1      -5.847   7.846   1.372  0.00  0.00    -0.272 OA
ATOM     26  H   UNL     1      -5.010  10.460  -0.036  0.00  0.00    +0.155 HD
BRANCH  23  29
ATOM     27  C   UNL     1      -6.954  10.370  -2.410  0.00  0.00    +0.067 C 
ATOM     28  C   UNL     1      -7.625  10.147  -1.079  0.00  0.00    +0.059 A 
ATOM     29  C   UNL     1      -6.995   9.880   0.087  0.00  0.00    +0.121 A 
ATOM     30  C   UNL     1      -8.027   9.744   1.116  0.00  0.00    +0.293 A 
ATOM     31  O   UNL     1      -7.847   9.505   2.296  0.00  0.00    -0.264 OA
ATOM     32  N   UNL     1      -9.216   9.932   0.507  0.00  0.00    -0.216 N 
ATOM     33  N   UNL     1      -8.975  10.179  -0.850  0.00  0.00    -0.282 N 
ATOM     34  C   UNL     1     -10.003  10.435  -1.862  0.00  0.00    +0.171 C 
BRANCH  32  35
ATOM     35  C   UNL     1     -10.471   9.889   1.123  0.00  0.00    +0.067 A 
ATOM     36  C   UNL     1     -11.386  10.912   0.912  0.00  0.00    +0.028 A 
ATOM     37  C   UNL     1     -12.626  10.864   1.518  0.00  0.00    +0.002 A 
ATOM     38  C   UNL     1     -12.953   9.803   2.344  0.00  0.00    +0.000 A 
ATOM     39  C   UNL     1     -12.042   8.786   2.560  0.00  0.00    +0.002 A 
ATOM     40  C   UNL     1     -10.802   8.825   1.953  0.00  0.00    +0.028 A 
ENDBRANCH  32  35
ENDBRANCH  23  29
ENDBRANCH  22  24
ENDBRANCH   1  22
TORSDOF 7
