REMARK  Name = ZINC15675910
REMARK  5 active torsions:
REMARK  status: ('A' for Active; 'I' for Inactive)
REMARK    1  A    between atoms: C_1  and  O_2
REMARK    2  A    between atoms: O_2  and  C_3
REMARK    3  A    between atoms: C_6  and  N_9
REMARK    4  A    between atoms: C_21  and  C_23
REMARK    5  A    between atoms: C_25  and  C_28
REMARK                            x       y       z     vdW  Elec       q    Type
REMARK                         _______ _______ _______ _____ _____    ______ ____
ROOT
ATOM      1  N   UNL     1      -4.891  -2.582   0.037  0.00  0.00    -0.269 N 
ATOM      2  C   UNL     1      -4.946  -3.924  -0.068  0.00  0.00    +0.307 C 
ATOM      3  O   UNL     1      -3.919  -4.576  -0.080  0.00  0.00    -0.252 OA
ATOM      4  N   UNL     1      -6.138  -4.544  -0.161  0.00  0.00    -0.267 N 
ATOM      5  C   UNL     1      -7.387  -3.768  -0.268  0.00  0.00    +0.165 C 
ATOM      6  C   UNL     1      -8.391  -4.402   0.665  0.00  0.00    +0.054 A 
ATOM      7  C   UNL     1      -8.208  -5.601   1.260  0.00  0.00    +0.040 A 
ATOM      8  N   UNL     1      -9.316  -5.841   2.016  0.00  0.00    -0.349 N 
ATOM      9  H   UNL     1      -9.482  -6.626   2.561  0.00  0.00    +0.166 HD
ATOM     10  C   UNL     1     -10.140  -4.779   1.861  0.00  0.00    +0.171 A 
ATOM     11  N   UNL     1      -9.575  -3.923   1.050  0.00  0.00    -0.348 N 
ATOM     12  C   UNL     1      -6.988  -6.468   1.092  0.00  0.00    +0.087 C 
ATOM     13  C   UNL     1      -6.226  -6.012  -0.165  0.00  0.00    +0.172 C 
ATOM     14  H   UNL     1      -5.703  -2.073   0.185  0.00  0.00    +0.156 HD
ATOM     15  H   UNL     1      -9.957  -3.075   0.773  0.00  0.00    +0.166 HD
ENDROOT
BRANCH   1  19
ATOM     16  C   UNL     1      -1.226  -0.614  -0.268  0.00  0.00    +0.120 A 
ATOM     17  C   UNL     1      -2.389   0.017  -0.685  0.00  0.00    +0.047 A 
ATOM     18  C   UNL     1      -3.603  -0.634  -0.584  0.00  0.00    +0.027 A 
ATOM     19  C   UNL     1      -3.659  -1.920  -0.066  0.00  0.00    +0.035 A 
ATOM     20  C   UNL     1      -2.495  -2.552   0.351  0.00  0.00    +0.027 A 
ATOM     21  C   UNL     1      -1.281  -1.901   0.245  0.00  0.00    +0.047 A 
BRANCH  16  23
ATOM     22  C   UNL     1      -0.049   1.352  -0.905  0.00  0.00    +0.277 C 
ATOM     23  O   UNL     1      -0.032   0.028  -0.368  0.00  0.00    -0.495 OA
ENDBRANCH  16  23
ENDBRANCH   1  19
BRANCH  13  24
ATOM     24  C   UNL     1      -6.961  -6.471  -1.398  0.00  0.00    +0.249 A 
ATOM     25  N   UNL     1      -6.606  -7.454  -2.175  0.00  0.00    -0.190 NA
ATOM     26  C   UNL     1      -7.489  -7.588  -3.180  0.00  0.00    +0.202 A 
ATOM     27  N   UNL     1      -8.421  -6.678  -3.044  0.00  0.00    -0.056 NA
ATOM     28  O   UNL     1      -8.093  -5.939  -1.877  0.00  0.00    -0.336 OA
BRANCH  26  29
ATOM     29  C   UNL     1      -7.418  -8.600  -4.265  0.00  0.00    +0.025 A 
ATOM     30  C   UNL     1      -6.378  -9.531  -4.311  0.00  0.00    +0.031 A 
ATOM     31  C   UNL     1      -6.351 -10.454  -5.337  0.00  0.00    +0.111 A 
ATOM     32  N   UNL     1      -7.289 -10.464  -6.264  0.00  0.00    -0.263 NA
ATOM     33  C   UNL     1      -8.288  -9.603  -6.257  0.00  0.00    +0.111 A 
ATOM     34  C   UNL     1      -8.394  -8.649  -5.264  0.00  0.00    +0.031 A 
ENDBRANCH  26  29
ENDBRANCH  13  24
TORSDOF 4
