REMARK  Name = ZINC39934520
REMARK  9 active torsions:
REMARK  status: ('A' for Active; 'I' for Inactive)
REMARK    1  A    between atoms: C_1  and  C_2
REMARK    2  A    between atoms: C_2  and  C_3
REMARK    3  A    between atoms: C_3  and  C_33
REMARK    4  A    between atoms: N_6  and  N_10
REMARK    5  A    between atoms: C_11  and  C_13
REMARK    6  A    between atoms: C_13  and  S_14
REMARK    7  A    between atoms: S_14  and  C_15
REMARK    8  A    between atoms: C_19  and  C_24
REMARK    9  A    between atoms: N_20  and  C_21
REMARK                            x       y       z     vdW  Elec       q    Type
REMARK                         _______ _______ _______ _____ _____    ______ ____
ROOT
ATOM      1  C   UNL     1       0.815  -7.563   6.203  0.00  0.00    +0.237 C 
ATOM      2  N   UNL     1       0.883  -8.326   4.946  0.00  0.00    -0.237 N 
ATOM      3  N   UNL     1      -0.347  -8.980   4.811  0.00  0.00    -0.169 NA
ATOM      4  C   UNL     1      -1.140  -8.712   5.814  0.00  0.00    +0.147 C 
ATOM      5  N   UNL     1      -0.528  -7.851   6.733  0.00  0.00    -0.282 N 
ATOM      6  H   UNL     1       1.633  -8.367   4.332  0.00  0.00    +0.171 HD
ENDROOT
BRANCH   4   7
ATOM      7  C   UNL     1      -2.439  -9.223   5.954  0.00  0.00    +0.022 C 
ATOM      8  C   UNL     1      -3.071 -10.159   5.133  0.00  0.00    +0.006 A 
ATOM      9  C   UNL     1      -2.649 -10.852   3.979  0.00  0.00    +0.010 A 
ATOM     10  C   UNL     1      -3.494 -11.725   3.372  0.00  0.00    +0.001 A 
ATOM     11  C   UNL     1      -4.780 -11.959   3.862  0.00  0.00    +0.002 A 
ATOM     12  C   UNL     1      -5.251 -11.328   4.966  0.00  0.00    +0.026 A 
ATOM     13  C   UNL     1      -4.426 -10.402   5.654  0.00  0.00    +0.043 A 
ATOM     14  N   UNL     1      -4.643  -9.672   6.731  0.00  0.00    -0.380 N 
ATOM     15  C   UNL     1      -3.446  -8.880   7.029  0.00  0.00    +0.152 C 
ATOM     16  H   UNL     1      -5.465  -9.665   7.247  0.00  0.00    +0.160 HD
ENDBRANCH   4   7
BRANCH   5  17
ATOM     17  C   UNL     1      -1.108  -7.335   7.976  0.00  0.00    +0.078 C 
ATOM     18  C   UNL     1      -0.279  -6.332   8.780  0.00  0.00    +0.024 C 
ATOM     19  C   UNL     1      -0.455  -7.764   9.291  0.00  0.00    +0.024 C 
ENDBRANCH   5  17
BRANCH   1  20
ATOM     20  S   UNL     1       1.002  -5.788   5.879  0.00  0.00    -0.109 S 
BRANCH  20  21
ATOM     21  C   UNL     1      -0.327  -5.414   4.702  0.00  0.00    +0.169 C 
BRANCH  21  23
ATOM     22  N   UNL     1      -1.183  -3.442   3.478  0.00  0.00    -0.223 N 
ATOM     23  C   UNL     1      -0.284  -3.951   4.344  0.00  0.00    +0.240 C 
ATOM     24  O   UNL     1       0.560  -3.231   4.834  0.00  0.00    -0.273 OA
ATOM     25  H   UNL     1      -1.858  -4.018   3.086  0.00  0.00    +0.174 HD
BRANCH  22  29
ATOM     26  C   UNL     1      -0.834  -0.097   2.059  0.00  0.00    +0.111 C 
ATOM     27  C   UNL     1      -0.685  -1.603   1.972  0.00  0.00    +0.263 C 
ATOM     28  O   UNL     1      -0.245  -2.243   1.042  0.00  0.00    -0.271 OA
ATOM     29  N   UNL     1      -1.144  -2.082   3.146  0.00  0.00    -0.137 N 
ATOM     30  C   UNL     1      -1.557  -1.099   3.953  0.00  0.00    +0.326 C 
ATOM     31  O   UNL     1      -2.011  -1.283   5.065  0.00  0.00    -0.251 OA
ATOM     32  N   UNL     1      -1.413   0.118   3.396  0.00  0.00    -0.284 N 
ATOM     33  C   UNL     1       0.529   0.589   1.946  0.00  0.00    +0.041 C 
ATOM     34  H   UNL     1      -1.645   0.970   3.798  0.00  0.00    +0.151 HD
BRANCH  26  36
ATOM     35  C   UNL     1      -2.000   1.918   1.151  0.00  0.00    +0.006 C 
ATOM     36  C   UNL     1      -1.783   0.414   0.973  0.00  0.00    +0.032 C 
ENDBRANCH  26  36
ENDBRANCH  22  29
ENDBRANCH  21  23
ENDBRANCH  20  21
ENDBRANCH   1  20
TORSDOF 7
