REMARK  Name = ZINC17252535
REMARK  12 active torsions:
REMARK  status: ('A' for Active; 'I' for Inactive)
REMARK    1  A    between atoms: C_1  and  C_2
REMARK    2  A    between atoms: C_5  and  N_8
REMARK    3  A    between atoms: N_9  and  C_10
REMARK    4  A    between atoms: C_11  and  C_41
REMARK    5  A    between atoms: C_12  and  C_39
REMARK    6  A    between atoms: N_15  and  C_23
REMARK    7  A    between atoms: C_16  and  C_17
REMARK    8  A    between atoms: C_25  and  O_38
REMARK    9  A    between atoms: C_27  and  O_37
REMARK   10  A    between atoms: C_29  and  O_36
REMARK   11  A    between atoms: C_31  and  C_34
REMARK   12  A    between atoms: C_34  and  O_35
REMARK                            x       y       z     vdW  Elec       q    Type
REMARK                         _______ _______ _______ _____ _____    ______ ____
ROOT
ATOM      1  C   UNL     1      -2.811   0.090  -1.048  0.00  0.00    +0.114 A 
ATOM      2  C   UNL     1      -3.807  -0.865  -0.773  0.00  0.00    -0.001 A 
ATOM      3  C   UNL     1      -4.684  -0.638   0.281  0.00  0.00    +0.088 A 
ATOM      4  C   UNL     1      -4.538   0.584   1.073  0.00  0.00    +0.107 A 
ATOM      5  S   UNL     1      -5.603   0.893   2.378  0.00  0.00    -0.031 S 
ATOM      6  N   UNL     1      -3.564   1.464   0.774  0.00  0.00    -0.303 N 
ATOM      7  C   UNL     1      -2.707   1.240  -0.259  0.00  0.00    +0.080 A 
ATOM      8  C   UNL     1      -3.925  -2.111  -1.613  0.00  0.00    +0.047 C 
ENDROOT
BRANCH   7   9
ATOM      9  C   UNL     1      -1.655   2.228  -0.555  0.00  0.00    +0.001 A 
ATOM     10  C   UNL     1      -1.997   3.550  -0.853  0.00  0.00    +0.010 A 
ATOM     11  C   UNL     1      -1.006   4.471  -1.123  0.00  0.00    +0.001 A 
ATOM     12  C   UNL     1       0.324   4.087  -1.106  0.00  0.00    +0.000 A 
ATOM     13  C   UNL     1       0.670   2.778  -0.818  0.00  0.00    +0.001 A 
ATOM     14  C   UNL     1      -0.309   1.846  -0.546  0.00  0.00    +0.010 A 
ENDBRANCH   7   9
BRANCH   6  15
ATOM     15  C   UNL     1      -3.426   2.685   1.572  0.00  0.00    +0.252 C 
ATOM     16  C   UNL     1      -2.844   2.334   2.944  0.00  0.00    +0.195 C 
ATOM     17  C   UNL     1      -2.759   3.606   3.794  0.00  0.00    +0.178 C 
ATOM     18  C   UNL     1      -4.153   4.232   3.897  0.00  0.00    +0.177 C 
ATOM     19  C   UNL     1      -4.685   4.509   2.489  0.00  0.00    +0.177 C 
ATOM     20  O   UNL     1      -4.709   3.291   1.742  0.00  0.00    -0.346 OA
BRANCH  18  21
ATOM     21  O   UNL     1      -5.032   3.330   4.573  0.00  0.00    -0.386 OA
ATOM     22  H   UNL     1      -4.753   3.107   5.471  0.00  0.00    +0.210 HD
ENDBRANCH  18  21
BRANCH  17  23
ATOM     23  O   UNL     1      -2.284   3.276   5.101  0.00  0.00    -0.386 OA
ATOM     24  H   UNL     1      -2.206   4.036   5.694  0.00  0.00    +0.210 HD
ENDBRANCH  17  23
BRANCH  16  25
ATOM     25  O   UNL     1      -1.536   1.781   2.780  0.00  0.00    -0.385 OA
ATOM     26  H   UNL     1      -1.106   1.536   3.611  0.00  0.00    +0.210 HD
ENDBRANCH  16  25
BRANCH  19  27
ATOM     27  C   UNL     1      -6.102   5.079   2.582  0.00  0.00    +0.190 C 
BRANCH  27  28
ATOM     28  O   UNL     1      -6.554   5.446   1.277  0.00  0.00    -0.392 OA
ATOM     29  H   UNL     1      -7.447   5.816   1.260  0.00  0.00    +0.210 HD
ENDBRANCH  27  28
ENDBRANCH  19  27
ENDBRANCH   6  15
BRANCH   1  31
ATOM     30  N   UNL     1      -2.110  -1.108  -2.877  0.00  0.00    -0.149 NA
ATOM     31  N   UNL     1      -1.944  -0.108  -2.079  0.00  0.00    -0.147 NA
BRANCH  30  36
ATOM     32  C   UNL     1       1.484  -1.931  -7.151  0.00  0.00    +0.044 C 
ATOM     33  C   UNL     1       0.524  -1.711  -6.010  0.00  0.00    -0.050 A 
ATOM     34  C   UNL     1      -0.533  -2.584  -5.821  0.00  0.00    +0.005 A 
ATOM     35  C   UNL     1      -1.415  -2.389  -4.779  0.00  0.00    +0.030 A 
ATOM     36  C   UNL     1      -1.239  -1.307  -3.912  0.00  0.00    +0.086 A 
ATOM     37  C   UNL     1      -0.173  -0.426  -4.112  0.00  0.00    +0.030 A 
ATOM     38  C   UNL     1       0.705  -0.638  -5.155  0.00  0.00    +0.005 A 
ENDBRANCH  30  36
ENDBRANCH   1  31
BRANCH   3  39
ATOM     39  C   UNL     1      -5.714  -1.585   0.588  0.00  0.00    +0.102 C 
ATOM     40  N   UNL     1      -6.531  -2.336   0.830  0.00  0.00    -0.191 NA
ENDBRANCH   3  39
TORSDOF 10
