REMARK  Name = ZINC04200999
REMARK  17 active torsions:
REMARK  status: ('A' for Active; 'I' for Inactive)
REMARK    1  A    between atoms: C_1  and  C_2
REMARK    2  A    between atoms: C_2  and  C_3
REMARK    3  A    between atoms: C_2  and  N_4
REMARK    4  A    between atoms: N_7  and  C_8
REMARK    5  A    between atoms: C_13  and  C_15
REMARK    6  A    between atoms: N_17  and  C_18
REMARK    7  A    between atoms: C_18  and  C_20
REMARK    8  A    between atoms: C_18  and  C_30
REMARK    9  A    between atoms: C_20  and  C_21
REMARK   10  A    between atoms: C_21  and  C_22
REMARK   11  A    between atoms: C_22  and  N_23
REMARK   12  A    between atoms: C_24  and  C_26
REMARK   13  A    between atoms: C_27  and  C_28
REMARK   14  A    between atoms: C_27  and  C_29
REMARK   15  A    between atoms: C_33  and  C_35
REMARK   16  A    between atoms: C_36  and  C_37
REMARK   17  A    between atoms: C_36  and  C_38
REMARK                            x       y       z     vdW  Elec       q    Type
REMARK                         _______ _______ _______ _____ _____    ______ ____
ROOT
ATOM      1  C   UNL     1       5.278   1.250   4.252  0.00  0.00    +0.236 C 
ATOM      2  O   UNL     1       6.397   0.783   4.275  0.00  0.00    -0.274 OA
ATOM      3  N   UNL     1       4.742   1.771   5.374  0.00  0.00    -0.302 N 
ATOM      4  H   UNL     1       3.847   2.145   5.356  0.00  0.00    +0.150 HD
ENDROOT
BRANCH   1   9
ATOM      5  C   UNL     1       3.478   0.081   2.977  0.00  0.00    +0.105 C 
ATOM      6  C   UNL     1       3.508  -0.419   1.508  0.00  0.00    +0.043 C 
ATOM      7  C   UNL     1       4.999  -0.205   1.140  0.00  0.00    +0.111 C 
ATOM      8  N   UNL     1       5.385   1.042   1.825  0.00  0.00    -0.285 N 
ATOM      9  C   UNL     1       4.487   1.249   2.970  0.00  0.00    +0.182 C 
ATOM     10  C   UNL     1       6.395   1.857   1.461  0.00  0.00    +0.240 C 
ATOM     11  O   UNL     1       6.624   2.864   2.103  0.00  0.00    -0.271 OA
BRANCH   5  15
ATOM     12  N   UNL     1      -0.002   0.131   4.163  0.00  0.00    -0.297 N 
ATOM     13  C   UNL     1       1.231  -0.305   3.839  0.00  0.00    +0.300 C 
ATOM     14  O   UNL     1       1.524  -1.474   3.995  0.00  0.00    -0.253 OA
ATOM     15  N   UNL     1       2.139   0.555   3.336  0.00  0.00    -0.294 N 
ATOM     16  H   UNL     1      -0.236   1.064   4.039  0.00  0.00    +0.150 HD
ATOM     17  H   UNL     1       1.905   1.489   3.211  0.00  0.00    +0.151 HD
BRANCH  12  19
ATOM     18  C   UNL     1      -0.797  -0.934   6.217  0.00  0.00    +0.027 C 
ATOM     19  C   UNL     1      -0.991  -0.806   4.705  0.00  0.00    +0.068 C 
ATOM     20  C   UNL     1      -2.400  -0.285   4.413  0.00  0.00    +0.027 C 
ENDBRANCH  12  19
ENDBRANCH   5  15
BRANCH  10  21
ATOM     21  C   UNL     1       7.220   1.529   0.288  0.00  0.00    +0.066 C 
ATOM     22  C   UNL     1       8.158   2.377  -0.124  0.00  0.00    -0.071 C 
ATOM     23  C   UNL     1       8.413   3.649   0.643  0.00  0.00    +0.039 C 
ATOM     24  C   UNL     1       8.965   2.066  -1.357  0.00  0.00    +0.039 C 
ENDBRANCH  10  21
ENDBRANCH   1   9
BRANCH   3  25
ATOM     25  C   UNL     1       5.511   1.773   6.621  0.00  0.00    +0.159 C 
BRANCH  25  26
ATOM     26  C   UNL     1       5.333   0.451   7.322  0.00  0.00    +0.231 C 
ATOM     27  O   UNL     1       4.633  -0.408   6.830  0.00  0.00    -0.274 OA
ATOM     28  N   UNL     1       5.952   0.223   8.498  0.00  0.00    -0.328 N 
ATOM     29  H   UNL     1       6.512   0.910   8.892  0.00  0.00    +0.145 HD
ATOM     30  H   UNL     1       5.838  -0.627   8.950  0.00  0.00    +0.145 HD
ENDBRANCH  25  26
BRANCH  25  31
ATOM     31  C   UNL     1       5.014   2.902   7.526  0.00  0.00    +0.033 C 
BRANCH  31  32
ATOM     32  C   UNL     1       5.308   4.251   6.867  0.00  0.00    +0.021 C 
BRANCH  32  33
ATOM     33  C   UNL     1       4.811   5.380   7.771  0.00  0.00    +0.104 C 
BRANCH  33  34
ATOM     34  N   UNL     1       5.093   6.671   7.141  0.00  0.00    -0.312 N 
ATOM     35  C   UNL     1       4.740   7.815   7.760  0.00  0.00    +0.237 C 
ATOM     36  O   UNL     1       4.188   7.775   8.843  0.00  0.00    -0.271 OA
ATOM     37  H   UNL     1       5.533   6.704   6.277  0.00  0.00    +0.149 HD
BRANCH  35  38
ATOM     38  C   UNL     1       5.024   9.112   7.127  0.00  0.00    +0.066 C 
ATOM     39  C   UNL     1       4.559  10.234   7.671  0.00  0.00    -0.071 C 
ATOM     40  C   UNL     1       3.607  10.167   8.837  0.00  0.00    +0.039 C 
ATOM     41  C   UNL     1       4.986  11.571   7.121  0.00  0.00    +0.039 C 
ENDBRANCH  35  38
ENDBRANCH  33  34
ENDBRANCH  32  33
ENDBRANCH  31  32
ENDBRANCH  25  31
ENDBRANCH   3  25
TORSDOF 11
