REMARK  Name = ZINC12311472
REMARK  7 active torsions:
REMARK  status: ('A' for Active; 'I' for Inactive)
REMARK    1  A    between atoms: C_1  and  O_2
REMARK    2  A    between atoms: O_2  and  C_3
REMARK    3  A    between atoms: C_3  and  C_5
REMARK    4  A    between atoms: C_5  and  N_50
REMARK    5  A    between atoms: C_6  and  C_25
REMARK    6  A    between atoms: C_15  and  C_17
REMARK    7  A    between atoms: C_22  and  O_23
REMARK                            x       y       z     vdW  Elec       q    Type
REMARK                         _______ _______ _______ _____ _____    ______ ____
ROOT
ATOM      1  C   UNL     1       3.479   5.940   0.297  0.00  0.00    -0.001 C 
ATOM      2  C   UNL     1       4.597   5.168   0.947  0.00  0.00    -0.035 A 
ATOM      3  C   UNL     1       5.791   5.805   1.231  0.00  0.00    +0.019 A 
ATOM      4  C   UNL     1       6.828   5.106   1.822  0.00  0.00    +0.018 A 
ATOM      5  C   UNL     1       6.677   3.766   2.132  0.00  0.00    +0.017 A 
ATOM      6  C   UNL     1       5.486   3.124   1.853  0.00  0.00    +0.024 A 
ATOM      7  C   UNL     1       4.444   3.825   1.261  0.00  0.00    +0.028 A 
ATOM      8  N   UNL     1       3.236   3.175   0.981  0.00  0.00    -0.353 N 
ATOM      9  C   UNL     1       2.271   3.853   0.102  0.00  0.00    +0.053 C 
ATOM     10 BR   UNL     1       8.458   5.985   2.207  0.00  0.00    -0.050 Br
ATOM     11  H   UNL     1       3.041   2.302   1.356  0.00  0.00    +0.145 HD
ATOM     12  N   UNL     1       2.191   5.263   0.541  0.00  0.00    +0.409 N 
ATOM     13  H   UNL     1       1.986   5.288   1.547  0.00  0.00    -0.076 HD
ENDROOT
BRANCH   9  14
ATOM     14  C   UNL     1       0.916   3.208   0.239  0.00  0.00    -0.003 A 
ATOM     15  C   UNL     1      -0.002   3.713   1.140  0.00  0.00    +0.007 A 
ATOM     16  C   UNL     1      -1.245   3.122   1.268  0.00  0.00    +0.000 A 
ATOM     17  C   UNL     1      -1.576   2.028   0.490  0.00  0.00    +0.004 A 
ATOM     18  C   UNL     1      -0.660   1.515  -0.408  0.00  0.00    +0.045 A 
ATOM     19  C   UNL     1       0.588   2.107  -0.538  0.00  0.00    +0.120 A 
BRANCH  19  20
ATOM     20  O   UNL     1       1.489   1.607  -1.424  0.00  0.00    -0.507 OA
ATOM     21  H   UNL     1       1.431   1.999  -2.307  0.00  0.00    +0.292 HD
ENDBRANCH  19  20
ENDBRANCH   9  14
BRANCH   1  22
ATOM     22  C   UNL     1       3.420   7.325   0.889  0.00  0.00    -0.057 A 
ATOM     23  C   UNL     1       2.801   7.529   2.108  0.00  0.00    +0.002 A 
ATOM     24  C   UNL     1       2.751   8.799   2.653  0.00  0.00    +0.000 A 
ATOM     25  C   UNL     1       3.311   9.865   1.975  0.00  0.00    +0.000 A 
ATOM     26  C   UNL     1       3.925   9.661   0.753  0.00  0.00    +0.000 A 
ATOM     27  C   UNL     1       3.980   8.391   0.210  0.00  0.00    +0.002 A 
ENDBRANCH   1  22
BRANCH  12  28
ATOM     28  C   UNL     1       1.108   5.960  -0.188  0.00  0.00    +0.048 C 
BRANCH  28  29
ATOM     29  C   UNL     1       1.372   5.937  -1.671  0.00  0.00    +0.290 C 
ATOM     30  O   UNL     1       2.335   5.349  -2.104  0.00  0.00    -0.253 OA
BRANCH  29  32
ATOM     31  C   UNL     1       0.915   6.605  -3.913  0.00  0.00    +0.280 C 
ATOM     32  O   UNL     1       0.537   6.569  -2.511  0.00  0.00    -0.469 OA
ENDBRANCH  29  32
ENDBRANCH  28  29
ENDBRANCH  12  28
TORSDOF 6
