REMARK  Name = ZINC09492132
REMARK  16 active torsions:
REMARK  status: ('A' for Active; 'I' for Inactive)
REMARK    1  A    between atoms: C_1  and  C_2
REMARK    2  A    between atoms: C_2  and  O_3
REMARK    3  A    between atoms: O_3  and  C_4
REMARK    4  A    between atoms: C_4  and  C_6
REMARK    5  A    between atoms: C_7  and  C_14
REMARK    6  A    between atoms: C_8  and  C_12
REMARK    7  A    between atoms: C_9  and  N_11
REMARK    8  A    between atoms: C_14  and  O_15
REMARK    9  A    between atoms: O_15  and  C_16
REMARK   10  A    between atoms: C_16  and  C_18
REMARK   11  A    between atoms: C_18  and  C_20
REMARK   12  A    between atoms: C_18  and  N_24
REMARK   13  A    between atoms: C_20  and  C_21
REMARK   14  A    between atoms: C_21  and  S_22
REMARK   15  A    between atoms: S_22  and  C_23
REMARK   16  A    between atoms: C_25  and  C_27
REMARK                            x       y       z     vdW  Elec       q    Type
REMARK                         _______ _______ _______ _____ _____    ______ ____
ROOT
ATOM      1  C   UNL     1       4.108   0.667  -1.577  0.00  0.00    +0.328 C 
ATOM      2  O   UNL     1       4.774   0.329  -0.627  0.00  0.00    -0.249 OA
ENDROOT
BRANCH   1   3
ATOM      3  O   UNL     1       2.923   1.267  -1.387  0.00  0.00    -0.459 OA
BRANCH   3   4
ATOM      4  C   UNL     1       2.503   1.478  -0.013  0.00  0.00    +0.270 C 
BRANCH   4   6
ATOM      5  C   UNL     1       1.052   3.535   0.011  0.00  0.00    +0.106 A 
ATOM      6  C   UNL     1       1.159   2.159   0.003  0.00  0.00    +0.030 A 
ATOM      7  C   UNL     1      -0.017   1.428   0.010  0.00  0.00    +0.087 A 
ATOM      8  C   UNL     1      -1.226   2.134   0.019  0.00  0.00    +0.082 A 
ATOM      9  S   UNL     1      -0.713   3.789   0.029  0.00  0.00    -0.066 S 
BRANCH   8  10
ATOM     10  N   UNL     1      -2.509   1.635   0.022  0.00  0.00    -0.352 N 
ATOM     11  H   UNL     1      -2.656   0.676   0.017  0.00  0.00    +0.143 HD
ATOM     12  H   UNL     1      -3.265   2.242   0.029  0.00  0.00    +0.143 HD
ENDBRANCH   8  10
BRANCH   5  13
ATOM     13  C   UNL     1       2.087   4.504   0.006  0.00  0.00    +0.346 C 
ATOM     14  O   UNL     1       3.251   4.151  -0.007  0.00  0.00    -0.244 OA
BRANCH  13  15
ATOM     15  O   UNL     1       1.780   5.819   0.016  0.00  0.00    -0.461 OA
BRANCH  15  17
ATOM     16  C   UNL     1       2.333   8.171   0.023  0.00  0.00    +0.048 C 
ATOM     17  C   UNL     1       2.873   6.739   0.010  0.00  0.00    +0.229 C 
ENDBRANCH  15  17
ENDBRANCH  13  15
ENDBRANCH   5  13
BRANCH   7  18
ATOM     18  C   UNL     1       0.002  -0.004   0.002  0.00  0.00    +0.102 C 
ATOM     19  N   UNL     1       0.018  -1.140  -0.004  0.00  0.00    -0.191 NA
ENDBRANCH   7  18
ENDBRANCH   4   6
ENDBRANCH   3   4
ENDBRANCH   1   3
BRANCH   1  20
ATOM     20  C   UNL     1       4.609   0.414  -2.976  0.00  0.00    +0.183 C 
BRANCH  20  21
ATOM     21  N   UNL     1       5.915  -0.247  -2.915  0.00  0.00    -0.298 N 
ATOM     22  C   UNL     1       6.779  -0.130  -3.944  0.00  0.00    +0.245 C 
ATOM     23  O   UNL     1       6.473   0.524  -4.922  0.00  0.00    -0.270 OA
ATOM     24  H   UNL     1       6.159  -0.768  -2.135  0.00  0.00    +0.150 HD
BRANCH  22  25
ATOM     25  C   UNL     1       8.096  -0.797  -3.882  0.00  0.00    +0.037 A 
ATOM     26  C   UNL     1       8.451  -1.544  -2.757  0.00  0.00    +0.014 A 
ATOM     27  C   UNL     1       9.679  -2.169  -2.708  0.00  0.00    +0.021 A 
ATOM     28  C   UNL     1      10.565  -2.047  -3.767  0.00  0.00    +0.041 A 
ATOM     29  C   UNL     1      10.220  -1.302  -4.883  0.00  0.00    +0.021 A 
ATOM     30  C   UNL     1       8.992  -0.678  -4.946  0.00  0.00    +0.014 A 
ATOM     31 CL   UNL     1      12.112  -2.831  -3.695  0.00  0.00    -0.084 Cl
ENDBRANCH  22  25
ENDBRANCH  20  21
BRANCH  20  32
ATOM     32  C   UNL     1       3.618  -0.483  -3.719  0.00  0.00    +0.044 C 
BRANCH  32  33
ATOM     33  C   UNL     1       4.061  -0.638  -5.175  0.00  0.00    +0.071 C 
BRANCH  33  34
ATOM     34  S   UNL     1       2.886  -1.702  -6.056  0.00  0.00    -0.164 S 
ATOM     35  C   UNL     1       3.546  -1.783  -7.743  0.00  0.00    +0.084 C 
ENDBRANCH  33  34
ENDBRANCH  32  33
ENDBRANCH  20  32
ENDBRANCH   1  20
TORSDOF 14
