REMARK  Name = ZINC36546064
REMARK  15 active torsions:
REMARK  status: ('A' for Active; 'I' for Inactive)
REMARK    1  A    between atoms: C_1  and  C_2
REMARK    2  A    between atoms: C_2  and  C_3
REMARK    3  A    between atoms: C_3  and  C_4
REMARK    4  A    between atoms: C_4  and  N_5
REMARK    5  A    between atoms: C_6  and  C_8
REMARK    6  A    between atoms: C_8  and  C_10
REMARK    7  A    between atoms: C_8  and  N_19
REMARK    8  A    between atoms: C_11  and  O_18
REMARK    9  A    between atoms: C_13  and  O_17
REMARK   10  A    between atoms: C_15  and  O_16
REMARK   11  A    between atoms: N_19  and  C_20
REMARK   12  A    between atoms: C_27  and  C_29
REMARK   13  A    between atoms: C_29  and  C_30
REMARK   14  A    between atoms: C_30  and  C_32
REMARK   15  A    between atoms: C_30  and  C_33
REMARK                            x       y       z     vdW  Elec       q    Type
REMARK                         _______ _______ _______ _____ _____    ______ ____
ROOT
ATOM      1  C   UNL     1      -4.392  -4.763  -0.312  0.00  0.00    +0.204 C 
ENDROOT
BRANCH   1   2
ATOM      2  C   UNL     1      -5.747  -4.108  -0.386  0.00  0.00    +0.065 A 
ATOM      3  C   UNL     1      -6.740  -4.466   0.513  0.00  0.00    +0.129 A 
ATOM      4  C   UNL     1      -7.988  -3.864   0.445  0.00  0.00    +0.091 A 
ATOM      5  C   UNL     1      -8.242  -2.903  -0.522  0.00  0.00    +0.124 A 
ATOM      6  C   UNL     1      -7.248  -2.545  -1.421  0.00  0.00    +0.091 A 
ATOM      7  C   UNL     1      -6.000  -3.144  -1.350  0.00  0.00    +0.129 A 
BRANCH   7   8
ATOM      8  O   UNL     1      -5.025  -2.789  -2.227  0.00  0.00    -0.506 OA
ATOM      9  H   UNL     1      -5.016  -3.315  -3.039  0.00  0.00    +0.292 HD
ENDBRANCH   7   8
BRANCH   5  10
ATOM     10  O   UNL     1      -9.464  -2.314  -0.589  0.00  0.00    -0.507 OA
ATOM     11  H   UNL     1      -9.545  -1.512  -0.054  0.00  0.00    +0.292 HD
ENDBRANCH   5  10
BRANCH   3  12
ATOM     12  O   UNL     1      -6.492  -5.408   1.461  0.00  0.00    -0.506 OA
ATOM     13  H   UNL     1      -6.225  -5.044   2.317  0.00  0.00    +0.292 HD
ENDBRANCH   3  12
ENDBRANCH   1   2
BRANCH   1  15
ATOM     14  N   UNL     1      -2.748  -3.251   0.750  0.00  0.00    -0.313 N 
ATOM     15  C   UNL     1      -3.648  -4.243   0.891  0.00  0.00    +0.239 C 
ATOM     16  O   UNL     1      -3.860  -4.718   1.987  0.00  0.00    -0.273 OA
ATOM     17  H   UNL     1      -2.578  -2.871  -0.126  0.00  0.00    +0.149 HD
BRANCH  14  18
ATOM     18  C   UNL     1      -2.025  -2.745   1.920  0.00  0.00    +0.104 C 
BRANCH  18  19
ATOM     19  C   UNL     1      -1.071  -1.630   1.487  0.00  0.00    +0.018 C 
BRANCH  19  21
ATOM     20  C   UNL     1       0.638   0.013   2.276  0.00  0.00    +0.004 C 
ATOM     21  C   UNL     1      -0.316  -1.102   2.709  0.00  0.00    -0.002 C 
ENDBRANCH  19  21
ENDBRANCH  18  19
ENDBRANCH  14  18
ENDBRANCH   1  15
BRANCH   1  22
ATOM     22  N   UNL     1      -4.556  -6.214  -0.195  0.00  0.00    -0.254 N 
ATOM     23  C   UNL     1      -5.411  -6.863  -1.010  0.00  0.00    +0.221 C 
ATOM     24  O   UNL     1      -6.045  -6.246  -1.840  0.00  0.00    -0.275 OA
BRANCH  22  25
ATOM     25  C   UNL     1      -3.825  -6.926   0.763  0.00  0.00    +0.056 A 
ATOM     26  C   UNL     1      -4.434  -7.332   1.943  0.00  0.00    +0.025 A 
ATOM     27  C   UNL     1      -3.710  -8.034   2.886  0.00  0.00    +0.002 A 
ATOM     28  C   UNL     1      -2.380  -8.334   2.657  0.00  0.00    +0.002 A 
ATOM     29  C   UNL     1      -1.770  -7.932   1.484  0.00  0.00    +0.022 A 
ATOM     30  C   UNL     1      -2.490  -7.234   0.533  0.00  0.00    +0.062 A 
ATOM     31 CL   UNL     1      -1.725  -6.736  -0.944  0.00  0.00    -0.082 Cl
ENDBRANCH  22  25
BRANCH  23  32
ATOM     32  C   UNL     1      -5.580  -8.356  -0.890  0.00  0.00    +0.104 C 
BRANCH  32  33
ATOM     33  C   UNL     1      -6.600  -8.838  -1.923  0.00  0.00    +0.025 C 
ATOM     34  C   UNL     1      -6.050  -8.605  -3.331  0.00  0.00    +0.013 C 
BRANCH  33  35
ATOM     35  C   UNL     1      -6.861 -10.309  -1.722  0.00  0.00    -0.044 A 
ATOM     36  C   UNL     1      -5.822 -11.215  -1.824  0.00  0.00    +0.004 A 
ATOM     37  C   UNL     1      -6.061 -12.564  -1.640  0.00  0.00    +0.000 A 
ATOM     38  C   UNL     1      -7.339 -13.007  -1.354  0.00  0.00    +0.000 A 
ATOM     39  C   UNL     1      -8.378 -12.101  -1.252  0.00  0.00    +0.000 A 
ATOM     40  C   UNL     1      -8.138 -10.751  -1.432  0.00  0.00    +0.004 A 
ENDBRANCH  33  35
ENDBRANCH  32  33
ENDBRANCH  23  32
ENDBRANCH   1  22
TORSDOF 13
