REMARK  Name = ZINC58849815
REMARK  11 active torsions:
REMARK  status: ('A' for Active; 'I' for Inactive)
REMARK    1  A    between atoms: C_1  and  C_2
REMARK    2  A    between atoms: C_5  and  O_38
REMARK    3  A    between atoms: C_6  and  N_8
REMARK    4  A    between atoms: N_8  and  S_9
REMARK    5  A    between atoms: S_9  and  C_12
REMARK    6  A    between atoms: C_25  and  C_28
REMARK    7  A    between atoms: C_31  and  O_34
REMARK    8  A    between atoms: O_34  and  C_35
REMARK    9  A    between atoms: C_35  and  C_36
REMARK   10  A    between atoms: C_35  and  C_37
REMARK   11  A    between atoms: O_38  and  C_39
REMARK                            x       y       z     vdW  Elec       q    Type
REMARK                         _______ _______ _______ _____ _____    ______ ____
ROOT
ATOM      1  C   UNL     1      -2.556  -1.664   3.259  0.00  0.00    +0.109 A 
ATOM      2  C   UNL     1      -3.272  -0.634   2.676  0.00  0.00    +0.030 A 
ATOM      3  C   UNL     1      -4.636  -0.756   2.509  0.00  0.00    +0.025 A 
ATOM      4  C   UNL     1      -5.289  -1.913   2.923  0.00  0.00    +0.031 A 
ATOM      5  C   UNL     1      -4.571  -2.951   3.496  0.00  0.00    -0.018 A 
ATOM      6  C   UNL     1      -3.200  -2.816   3.661  0.00  0.00    +0.034 A 
ATOM      7  C   UNL     1      -5.230  -4.222   3.916  0.00  0.00    +0.049 C 
ATOM      8  C   UNL     1      -5.404  -4.303   5.411  0.00  0.00    -0.023 C 
ATOM      9  C   UNL     1      -6.531  -4.904   5.703  0.00  0.00    -0.030 C 
ATOM     10  C   UNL     1      -7.272  -5.303   4.446  0.00  0.00    +0.033 C 
ATOM     11  C   UNL     1      -6.631  -4.428   3.345  0.00  0.00    +0.029 C 
ATOM     12  C   UNL     1      -7.437  -3.150   3.228  0.00  0.00    +0.105 C 
ATOM     13  N   UNL     1      -6.666  -2.014   2.766  0.00  0.00    -0.336 N 
ATOM     14  H   UNL     1      -7.137  -1.277   2.347  0.00  0.00    +0.147 HD
ENDROOT
BRANCH  12  15
ATOM     15  C   UNL     1      -8.040  -2.840   4.574  0.00  0.00    -0.027 A 
ATOM     16  C   UNL     1      -7.272  -2.234   5.551  0.00  0.00    +0.009 A 
ATOM     17  C   UNL     1      -7.823  -1.949   6.786  0.00  0.00    +0.046 A 
ATOM     18  C   UNL     1      -9.147  -2.271   7.044  0.00  0.00    +0.121 A 
ATOM     19  C   UNL     1      -9.916  -2.878   6.061  0.00  0.00    +0.046 A 
ATOM     20  C   UNL     1      -9.362  -3.156   4.827  0.00  0.00    +0.009 A 
BRANCH  18  21
ATOM     21  O   UNL     1      -9.691  -1.992   8.258  0.00  0.00    -0.489 OA
BRANCH  21  22
ATOM     22  C   UNL     1      -8.855  -1.326   9.206  0.00  0.00    +0.167 C 
ATOM     23  C   UNL     1      -8.871   0.179   8.931  0.00  0.00    +0.051 C 
ATOM     24  C   UNL     1      -9.374  -1.592  10.620  0.00  0.00    +0.051 C 
ENDBRANCH  21  22
ENDBRANCH  18  21
ENDBRANCH  12  15
BRANCH   1  25
ATOM     25  S   UNL     1      -0.815  -1.508   3.482  0.00  0.00    +0.072 S 
ATOM     26  O   UNL     1      -0.461  -2.387   4.540  0.00  0.00    -0.150 OA
ATOM     27  O   UNL     1      -0.534  -0.115   3.522  0.00  0.00    -0.150 OA
BRANCH  25  28
ATOM     28  N   UNL     1      -0.091  -2.098   2.114  0.00  0.00    -0.213 N 
ATOM     29  H   UNL     1       0.518  -2.850   2.174  0.00  0.00    +0.174 HD
BRANCH  28  35
ATOM     30  C   UNL     1      -1.050   1.924  -0.546  0.00  0.00    +0.044 C 
ATOM     31  C   UNL     1      -0.828   0.436  -0.448  0.00  0.00    -0.048 A 
ATOM     32  C   UNL     1      -0.887  -0.347  -1.585  0.00  0.00    +0.007 A 
ATOM     33  C   UNL     1      -0.683  -1.712  -1.501  0.00  0.00    +0.048 A 
ATOM     34  C   UNL     1      -0.418  -2.299  -0.275  0.00  0.00    +0.142 A 
ATOM     35  C   UNL     1      -0.358  -1.510   0.872  0.00  0.00    +0.090 A 
ATOM     36  C   UNL     1      -0.559  -0.141   0.779  0.00  0.00    +0.031 A 
BRANCH  34  37
ATOM     37  O   UNL     1      -0.218  -3.641  -0.191  0.00  0.00    -0.493 OA
ATOM     38  C   UNL     1      -0.295  -4.386  -1.407  0.00  0.00    +0.277 C 
ENDBRANCH  34  37
ENDBRANCH  28  35
ENDBRANCH  25  28
ENDBRANCH   1  25
TORSDOF 7
