REMARK  Name = ZINC39467150
REMARK  6 active torsions:
REMARK  status: ('A' for Active; 'I' for Inactive)
REMARK    1  A    between atoms: C_1  and  O_2
REMARK    2  A    between atoms: O_2  and  C_3
REMARK    3  A    between atoms: P_12  and  C_28
REMARK    4  A    between atoms: C_20  and  C_21
REMARK    5  A    between atoms: C_26  and  O_27
REMARK    6  A    between atoms: C_33  and  O_34
REMARK                            x       y       z     vdW  Elec       q    Type
REMARK                         _______ _______ _______ _____ _____    ______ ____
ROOT
ATOM      1  C   UNL     1       0.606  -0.607  -1.056  0.00  0.00    +0.124 C 
ATOM      2  C   UNL     1       1.151   0.128  -2.024  0.00  0.00    +0.023 C 
ATOM      3  C   UNL     1       1.829  -0.554  -3.188  0.00  0.00    +0.019 C 
ATOM      4  C   UNL     1       0.759  -0.998  -4.188  0.00  0.00    -0.002 C 
ATOM      5  C   UNL     1       1.388  -1.811  -5.325  0.00  0.00    -0.020 C 
ATOM      6  C   UNL     1       0.251  -2.218  -6.271  0.00  0.00    +0.157 C 
ATOM      7  O   UNL     1       0.791  -2.942  -7.391  0.00  0.00    -0.316 OA
ATOM      8  P   UNL     1       1.798  -4.180  -7.074  0.00  0.00    +0.291 P 
ATOM      9  O   UNL     1       2.659  -4.454  -8.247  0.00  0.00    -0.269 OA
ATOM     10  N   UNL     1       2.715  -3.676  -5.797  0.00  0.00    -0.288 NA
ATOM     11  N   UNL     1       2.078  -2.986  -4.787  0.00  0.00    +0.398 N 
ATOM     12  C   UNL     1       3.137  -2.574  -3.852  0.00  0.00    -0.046 C 
ATOM     13  C   UNL     1       2.576  -1.788  -2.672  0.00  0.00    +0.005 C 
ATOM     14  C   UNL     1       1.626  -2.659  -1.893  0.00  0.00    -0.013 C 
ATOM     15  C   UNL     1       0.666  -2.086  -1.135  0.00  0.00    +0.023 C 
ATOM     16  H   UNL     1       3.666  -3.863  -5.758  0.00  0.00    +0.111 HD
ATOM     17  H   UNL     1       1.414  -3.587  -4.324  0.00  0.00    -0.055 HD
ENDROOT
BRANCH  15  18
ATOM     18  C   UNL     1      -0.297  -2.918  -0.375  0.00  0.00    +0.027 A 
ATOM     19  C   UNL     1       0.112  -3.583   0.779  0.00  0.00    +0.012 A 
ATOM     20  C   UNL     1      -0.789  -4.356   1.483  0.00  0.00    +0.001 A 
ATOM     21  C   UNL     1      -2.097  -4.474   1.047  0.00  0.00    +0.004 A 
ATOM     22  C   UNL     1      -2.513  -3.819  -0.097  0.00  0.00    +0.046 A 
ATOM     23  C   UNL     1      -1.621  -3.034  -0.810  0.00  0.00    +0.125 A 
BRANCH  23  24
ATOM     24  O   UNL     1      -2.030  -2.385  -1.931  0.00  0.00    -0.506 OA
ATOM     25  H   UNL     1      -1.926  -2.900  -2.744  0.00  0.00    +0.292 HD
ENDBRANCH  23  24
ENDBRANCH  15  18
BRANCH   8  26
ATOM     26  C   UNL     1       0.853  -5.662  -6.629  0.00  0.00    +0.091 A 
ATOM     27  C   UNL     1       0.523  -5.901  -5.309  0.00  0.00    +0.018 A 
ATOM     28  C   UNL     1      -0.198  -7.031  -4.969  0.00  0.00    +0.001 A 
ATOM     29  C   UNL     1      -0.590  -7.925  -5.949  0.00  0.00    +0.004 A 
ATOM     30  C   UNL     1      -0.263  -7.690  -7.270  0.00  0.00    +0.046 A 
ATOM     31  C   UNL     1       0.455  -6.554  -7.614  0.00  0.00    +0.131 A 
BRANCH  31  32
ATOM     32  O   UNL     1       0.773  -6.318  -8.914  0.00  0.00    -0.506 OA
ATOM     33  H   UNL     1       1.619  -6.699  -9.188  0.00  0.00    +0.292 HD
ENDBRANCH  31  32
ENDBRANCH   8  26
BRANCH   1  35
ATOM     34  C   UNL     1      -0.017   1.425   0.010  0.00  0.00    +0.277 C 
ATOM     35  O   UNL     1       0.002  -0.004   0.002  0.00  0.00    -0.495 OA
ENDBRANCH   1  35
TORSDOF 5
