REMARK  Name = ZINC15946527
REMARK  6 active torsions:
REMARK  status: ('A' for Active; 'I' for Inactive)
REMARK    1  A    between atoms: C_1  and  C_2
REMARK    2  A    between atoms: C_7  and  C_8
REMARK    3  A    between atoms: C_7  and  N_58
REMARK    4  A    between atoms: N_10  and  C_11
REMARK    5  A    between atoms: C_12  and  C_20
REMARK    6  A    between atoms: N_22  and  C_23
REMARK                            x       y       z     vdW  Elec       q    Type
REMARK                         _______ _______ _______ _____ _____    ______ ____
ROOT
ATOM      1  C   UNL     1      -1.376   1.413   3.421  0.00  0.00    +0.084 A 
ATOM      2  C   UNL     1      -0.521   0.981   2.416  0.00  0.00    +0.069 A 
ATOM      3  C   UNL     1      -0.573   1.678   1.145  0.00  0.00    -0.023 A 
ATOM      4  C   UNL     1      -1.469   2.689   1.077  0.00  0.00    -0.004 A 
ATOM      5  S   UNL     1      -2.231   2.722   2.675  0.00  0.00    -0.077 S 
ATOM      6  C   UNL     1      -1.744   3.578  -0.096  0.00  0.00    +0.043 C 
ATOM      7  C   UNL     1      -0.595   3.418  -1.103  0.00  0.00    +0.005 C 
ATOM      8  C   UNL     1      -0.330   1.925  -1.315  0.00  0.00    +0.005 C 
ATOM      9  C   UNL     1       0.296   1.323  -0.056  0.00  0.00    +0.037 C 
ENDROOT
BRANCH   1  12
ATOM     10  C   UNL     1      -2.405   1.471   5.553  0.00  0.00    +0.201 C 
ATOM     11  O   UNL     1      -3.088   2.403   5.186  0.00  0.00    -0.278 OA
ATOM     12  N   UNL     1      -1.512   0.917   4.708  0.00  0.00    -0.281 N 
ATOM     13  H   UNL     1      -0.966   0.171   5.001  0.00  0.00    +0.155 HD
BRANCH  10  14
ATOM     14  C   UNL     1      -2.553   0.931   6.952  0.00  0.00    +0.019 C 
BRANCH  14  21
ATOM     15  C   UNL     1      -5.890   4.028  10.408  0.00  0.00    +0.007 C 
ATOM     16  C   UNL     1      -4.702   3.266   9.818  0.00  0.00    -0.018 C 
ATOM     17  C   UNL     1      -5.095   1.804   9.590  0.00  0.00    -0.016 C 
ATOM     18  C   UNL     1      -3.923   1.061   8.944  0.00  0.00    -0.078 C 
ATOM     19  C   UNL     1      -3.155   3.091   7.866  0.00  0.00    -0.078 C 
ATOM     20  C   UNL     1      -4.304   3.894   8.480  0.00  0.00    -0.016 C 
ATOM     21  N   UNL     1      -3.606   1.700   7.649  0.00  0.00    +0.385 N 
ATOM     22  H   UNL     1      -4.451   1.710   7.066  0.00  0.00    -0.081 HD
ENDBRANCH  14  21
ENDBRANCH  10  14
ENDBRANCH   1  12
BRANCH   2  23
ATOM     23  C   UNL     1       0.402  -0.137   2.632  0.00  0.00    +0.251 C 
ATOM     24  O   UNL     1       0.049  -1.275   2.384  0.00  0.00    -0.270 OA
ATOM     25  N   UNL     1       1.643   0.096   3.105  0.00  0.00    -0.281 N 
ATOM     26  H   UNL     1       1.951   1.006   3.231  0.00  0.00    +0.155 HD
BRANCH  25  27
ATOM     27  C   UNL     1       2.485  -0.977   3.416  0.00  0.00    +0.034 A 
ATOM     28  C   UNL     1       3.856  -0.863   3.226  0.00  0.00    +0.024 A 
ATOM     29  C   UNL     1       4.686  -1.921   3.538  0.00  0.00    +0.017 A 
ATOM     30  C   UNL     1       4.152  -3.100   4.029  0.00  0.00    +0.018 A 
ATOM     31  C   UNL     1       2.786  -3.219   4.214  0.00  0.00    +0.017 A 
ATOM     32  C   UNL     1       1.952  -2.161   3.909  0.00  0.00    +0.024 A 
ATOM     33 BR   UNL     1       5.290  -4.550   4.448  0.00  0.00    -0.050 Br
ENDBRANCH  25  27
ENDBRANCH   2  23
TORSDOF 5
