REMARK  Name = ZINC19837962
REMARK  10 active torsions:
REMARK  status: ('A' for Active; 'I' for Inactive)
REMARK    1  A    between atoms: C_1  and  C_2
REMARK    2  A    between atoms: C_2  and  C_3
REMARK    3  A    between atoms: C_3  and  C_4
REMARK    4  A    between atoms: C_4  and  C_5
REMARK    5  A    between atoms: C_9  and  C_11
REMARK    6  A    between atoms: C_11  and  N_12
REMARK    7  A    between atoms: C_19  and  C_21
REMARK    8  A    between atoms: N_23  and  C_24
REMARK    9  A    between atoms: C_24  and  C_25
REMARK   10  A    between atoms: C_25  and  C_31
REMARK                            x       y       z     vdW  Elec       q    Type
REMARK                         _______ _______ _______ _____ _____    ______ ____
ROOT
ATOM      1  N   UNL     1       0.896  -2.553   1.372  0.00  0.00    -0.297 NA
ATOM      2  C   UNL     1      -0.302  -2.281   2.175  0.00  0.00    +0.085 C 
ATOM      3  C   UNL     1      -0.010  -2.592   3.647  0.00  0.00    +0.023 C 
ATOM      4  C   UNL     1       0.483  -4.038   3.754  0.00  0.00    -0.015 C 
ATOM      5  C   UNL     1       1.633  -4.396   2.807  0.00  0.00    +0.023 C 
ATOM      6  C   UNL     1       1.244  -3.979   1.385  0.00  0.00    +0.085 C 
ATOM      7  C   UNL     1      -0.550  -5.122   4.061  0.00  0.00    +0.021 C 
ATOM      8  C   UNL     1       0.461  -4.700   5.131  0.00  0.00    +0.082 C 
ENDROOT
BRANCH   8   9
ATOM      9  C   UNL     1       1.572  -5.664   5.457  0.00  0.00    +0.217 C 
ATOM     10  O   UNL     1       2.439  -5.889   4.640  0.00  0.00    -0.275 OA
ATOM     11  N   UNL     1       1.601  -6.277   6.658  0.00  0.00    -0.314 N 
ATOM     12  H   UNL     1       0.814  -6.073   7.399  0.00  0.00    +0.149 HD
BRANCH  11  13
ATOM     13  C   UNL     1       2.681  -7.214   6.976  0.00  0.00    +0.115 C 
BRANCH  13  14
ATOM     14  C   UNL     1       2.545  -7.676   8.428  0.00  0.00    +0.015 C 
ATOM     15  C   UNL     1       3.695  -8.627   8.773  0.00  0.00    +0.041 C 
ATOM     16  C   UNL     1       3.598  -9.874   7.891  0.00  0.00    +0.160 C 
ATOM     17  O   UNL     1       2.326 -10.495   8.084  0.00  0.00    -0.380 OA
ATOM     18  C   UNL     1       1.214  -9.669   7.732  0.00  0.00    +0.160 C 
ATOM     19  C   UNL     1       1.215  -8.414   8.608  0.00  0.00    +0.041 C 
BRANCH  14  20
ATOM     20  C   UNL     1       2.586  -6.479   9.343  0.00  0.00    -0.040 A 
ATOM     21  C   UNL     1       1.512  -6.204  10.169  0.00  0.00    +0.004 A 
ATOM     22  C   UNL     1       1.552  -5.109  11.012  0.00  0.00    +0.000 A 
ATOM     23  C   UNL     1       2.660  -4.283  11.021  0.00  0.00    +0.000 A 
ATOM     24  C   UNL     1       3.732  -4.555  10.191  0.00  0.00    +0.000 A 
ATOM     25  C   UNL     1       3.695  -5.653   9.352  0.00  0.00    +0.004 A 
ENDBRANCH  14  20
ENDBRANCH  13  14
ENDBRANCH  11  13
ENDBRANCH   8   9
BRANCH   1  26
ATOM     26  C   UNL     1       0.729  -2.064  -0.004  0.00  0.00    +0.139 C 
BRANCH  26  31
ATOM     27  C   UNL     1      -1.312   0.918   0.102  0.00  0.00    +0.084 A 
ATOM     28  N   UNL     1      -0.092   1.490   0.022  0.00  0.00    -0.350 N 
ATOM     29  H   UNL     1       0.002   2.586   0.009  0.00  0.00    +0.166 HD
ATOM     30  C   UNL     1       0.828   0.477  -0.027  0.00  0.00    +0.106 A 
ATOM     31  C   UNL     1       0.138  -0.678   0.024  0.00  0.00    +0.047 A 
ATOM     32  N   UNL     1      -1.167  -0.379   0.102  0.00  0.00    -0.346 N 
ATOM     33  H   UNL     1      -2.051  -1.032   0.162  0.00  0.00    +0.167 HD
BRANCH  27  34
ATOM     34  C   UNL     1      -2.625   1.655   0.173  0.00  0.00    +0.072 C 
BRANCH  34  35
ATOM     35  C   UNL     1      -3.541   1.174  -0.954  0.00  0.00    +0.007 C 
BRANCH  35  37
ATOM     36  C   UNL     1      -5.790   1.442  -2.010  0.00  0.00    +0.004 C 
ATOM     37  C   UNL     1      -4.874   1.922  -0.883  0.00  0.00    -0.003 C 
ENDBRANCH  35  37
ENDBRANCH  34  35
ENDBRANCH  27  34
ENDBRANCH  26  31
ENDBRANCH   1  26
TORSDOF 9
