REMARK  Name = ZINC63686320
REMARK  5 active torsions:
REMARK  status: ('A' for Active; 'I' for Inactive)
REMARK    1  A    between atoms: C_4  and  N_7
REMARK    2  A    between atoms: N_7  and  C_8
REMARK    3  A    between atoms: C_11  and  C_30
REMARK    4  A    between atoms: C_13  and  N_16
REMARK    5  A    between atoms: C_17  and  C_19
REMARK                            x       y       z     vdW  Elec       q    Type
REMARK                         _______ _______ _______ _____ _____    ______ ____
ROOT
ATOM      1  C   UNL     1       3.641  -2.114  -0.044  0.00  0.00    +0.202 C 
ATOM      2  N   UNL     1       5.017  -2.639   0.199  0.00  0.00    -0.277 NA
ATOM      3  C   UNL     1       5.188  -4.007  -0.296  0.00  0.00    +0.173 C 
ATOM      4  C   UNL     1       4.351  -4.324  -1.556  0.00  0.00    +0.160 C 
ATOM      5  S   UNL     1       3.354  -2.783  -1.743  0.00  0.00    -0.099 S 
ATOM      6  H   UNL     1       5.714  -2.024  -0.192  0.00  0.00    +0.125 HD
ENDROOT
BRANCH   3   7
ATOM      7  C   UNL     1       6.643  -4.223  -0.623  0.00  0.00    +0.230 C 
ATOM      8  O   UNL     1       7.376  -3.270  -0.783  0.00  0.00    -0.274 OA
ATOM      9  N   UNL     1       7.130  -5.474  -0.736  0.00  0.00    -0.328 N 
ATOM     10  H   UNL     1       6.544  -6.236  -0.608  0.00  0.00    +0.145 HD
ATOM     11  H   UNL     1       8.067  -5.613  -0.947  0.00  0.00    +0.145 HD
ENDBRANCH   3   7
BRANCH   4  12
ATOM     12  N   UNL     1       5.216  -4.535  -2.720  0.00  0.00    -0.300 N 
ATOM     13  C   UNL     1       4.988  -5.574  -3.549  0.00  0.00    +0.240 C 
ATOM     14  O   UNL     1       4.068  -6.333  -3.331  0.00  0.00    -0.273 OA
ATOM     15  H   UNL     1       5.952  -3.928  -2.894  0.00  0.00    +0.150 HD
BRANCH  13  16
ATOM     16  C   UNL     1       5.878  -5.791  -4.746  0.00  0.00    +0.190 C 
ATOM     17  C   UNL     1       5.777  -4.614  -5.691  0.00  0.00    +0.016 C 
ATOM     18  C   UNL     1       5.308  -5.110  -6.858  0.00  0.00    -0.002 A 
ATOM     19  C   UNL     1       4.997  -4.486  -8.150  0.00  0.00    +0.029 A 
ATOM     20  C   UNL     1       4.531  -5.260  -9.157  0.00  0.00    +0.042 A 
ATOM     21  C   UNL     1       4.339  -6.640  -8.998  0.00  0.00    +0.022 A 
ATOM     22  C   UNL     1       4.603  -7.284  -7.842  0.00  0.00    +0.027 A 
ATOM     23  C   UNL     1       5.097  -6.568  -6.717  0.00  0.00    +0.043 A 
ATOM     24  N   UNL     1       5.424  -6.960  -5.507  0.00  0.00    -0.370 N 
ATOM     25 CL   UNL     1       4.161  -4.525 -10.686  0.00  0.00    -0.084 Cl
ATOM     26  H   UNL     1       5.373  -7.869  -5.172  0.00  0.00    +0.161 HD
ENDBRANCH  13  16
ENDBRANCH   4  12
BRANCH   1  27
ATOM     27  N   UNL     1       3.620  -0.649  -0.036  0.00  0.00    -0.320 N 
ATOM     28  H   UNL     1       4.452  -0.152  -0.042  0.00  0.00    +0.148 HD
BRANCH  27  32
ATOM     29  C   UNL     1      -0.017   1.379   0.010  0.00  0.00    +0.000 A 
ATOM     30  C   UNL     1       1.169   2.089   0.002  0.00  0.00    +0.002 A 
ATOM     31  C   UNL     1       2.377   1.420  -0.013  0.00  0.00    +0.023 A 
ATOM     32  C   UNL     1       2.400   0.031  -0.021  0.00  0.00    +0.029 A 
ATOM     33  C   UNL     1       1.206  -0.680  -0.013  0.00  0.00    +0.023 A 
ATOM     34  C   UNL     1       0.002  -0.004   0.002  0.00  0.00    +0.002 A 
ENDBRANCH  27  32
ENDBRANCH   1  27
TORSDOF 5
