REMARK  Name = ZINC04912306
REMARK  1 active torsions:
REMARK  status: ('A' for Active; 'I' for Inactive)
REMARK    1  A    between atoms: C_5  and  C_6
REMARK                            x       y       z     vdW  Elec       q    Type
REMARK                         _______ _______ _______ _____ _____    ______ ____
ROOT
ATOM      1  C   UNL     1      -0.729   1.579   1.268  0.00  0.00    +0.066 C 
ATOM      2  C   UNL     1      -0.013   1.086   0.008  0.00  0.00    +0.109 C 
ATOM      3  C   UNL     1      -0.741   1.584  -1.213  0.00  0.00    +0.218 C 
ATOM      4  O   UNL     1      -0.795   0.890  -2.206  0.00  0.00    -0.275 OA
ATOM      5  N   UNL     1      -1.332   2.794  -1.212  0.00  0.00    -0.285 N 
ATOM      6  C   UNL     1      -1.240   3.622  -0.085  0.00  0.00    +0.041 A 
ATOM      7  C   UNL     1      -0.954   3.066   1.155  0.00  0.00    -0.014 A 
ATOM      8  C   UNL     1      -0.874   3.871   2.275  0.00  0.00    +0.055 A 
ATOM      9  C   UNL     1      -1.071   5.236   2.160  0.00  0.00    +0.167 A 
ATOM     10  C   UNL     1      -1.351   5.798   0.915  0.00  0.00    +0.168 A 
ATOM     11  C   UNL     1      -1.436   4.991  -0.205  0.00  0.00    +0.073 A 
ATOM     12  O   UNL     1      -1.498   7.149   1.079  0.00  0.00    -0.453 OA
ATOM     13  C   UNL     1      -1.833   7.296   2.480  0.00  0.00    +0.466 C 
ATOM     14  O   UNL     1      -1.049   6.243   3.088  0.00  0.00    -0.453 OA
ATOM     15  H   UNL     1      -1.822   3.094  -1.994  0.00  0.00    +0.155 HD
ENDROOT
BRANCH   1  20
ATOM     16  C   UNL     1      -0.165   0.529   3.562  0.00  0.00    +0.027 A 
ATOM     17  C   UNL     1       0.780   0.404   4.563  0.00  0.00    +0.025 A 
ATOM     18  C   UNL     1       1.967   1.047   4.431  0.00  0.00    +0.060 A 
ATOM     19  S   UNL     1       1.775   1.854   2.850  0.00  0.00    -0.100 S 
ATOM     20  C   UNL     1       0.123   1.290   2.478  0.00  0.00    -0.001 A 
ATOM     21 BR   UNL     1       0.423  -0.646   6.095  0.00  0.00    -0.050 Br
ENDBRANCH   1  20
TORSDOF 1
