REMARK  Name = ZINC11396632
REMARK  8 active torsions:
REMARK  status: ('A' for Active; 'I' for Inactive)
REMARK    1  A    between atoms: C_1  and  C_2
REMARK    2  A    between atoms: C_4  and  C_27
REMARK    3  A    between atoms: C_5  and  C_25
REMARK    4  A    between atoms: C_6  and  S_8
REMARK    5  A    between atoms: S_8  and  C_9
REMARK    6  A    between atoms: C_9  and  C_10
REMARK    7  A    between atoms: N_12  and  C_13
REMARK    8  A    between atoms: C_14  and  C_22
REMARK                            x       y       z     vdW  Elec       q    Type
REMARK                         _______ _______ _______ _____ _____    ______ ____
ROOT
ATOM      1  C   UNL     1      -2.410   7.230   0.061  0.00  0.00    +0.228 C 
ATOM      2  O   UNL     1      -1.526   8.060   0.057  0.00  0.00    -0.275 OA
ATOM      3  N   UNL     1      -3.700   7.620   0.075  0.00  0.00    -0.279 N 
ATOM      4  H   UNL     1      -4.408   6.956   0.079  0.00  0.00    +0.155 HD
ENDROOT
BRANCH   3   5
ATOM      5  C   UNL     1      -4.017   8.970   0.085  0.00  0.00    +0.084 A 
ATOM      6  C   UNL     1      -5.272   9.562   0.094  0.00  0.00    +0.068 A 
ATOM      7  C   UNL     1      -5.330  11.013   0.107  0.00  0.00    -0.023 A 
ATOM      8  C   UNL     1      -4.132  11.637   0.098  0.00  0.00    -0.004 A 
ATOM      9  S   UNL     1      -2.940  10.328   0.081  0.00  0.00    -0.077 S 
ATOM     10  C   UNL     1      -3.882  13.114   0.102  0.00  0.00    +0.043 C 
ATOM     11  C   UNL     1      -5.193  13.827  -0.262  0.00  0.00    +0.005 C 
ATOM     12  C   UNL     1      -6.326  13.236   0.583  0.00  0.00    +0.005 C 
ATOM     13  C   UNL     1      -6.629  11.809   0.123  0.00  0.00    +0.037 C 
BRANCH   6  14
ATOM     14  C   UNL     1      -6.494   8.752   0.095  0.00  0.00    +0.244 C 
ATOM     15  O   UNL     1      -6.997   8.410   1.149  0.00  0.00    -0.270 OA
ATOM     16  N   UNL     1      -7.061   8.386  -1.072  0.00  0.00    -0.325 N 
ATOM     17  H   UNL     1      -6.660   8.658  -1.912  0.00  0.00    +0.145 HD
ATOM     18  H   UNL     1      -7.869   7.850  -1.071  0.00  0.00    +0.145 HD
ENDBRANCH   6  14
ENDBRANCH   3   5
BRANCH   1  19
ATOM     19  C   UNL     1      -2.067   5.763   0.051  0.00  0.00    +0.172 C 
BRANCH  19  20
ATOM     20  S   UNL     1      -0.268   5.564   0.033  0.00  0.00    -0.095 S 
BRANCH  20  26
ATOM     21  C   UNL     1      -2.507   0.977   0.020  0.00  0.00    +0.065 C 
ATOM     22  C   UNL     1      -1.217   1.756   0.017  0.00  0.00    +0.040 A 
ATOM     23  C   UNL     1      -0.013   1.076   0.008  0.00  0.00    +0.036 A 
ATOM     24  C   UNL     1       1.173   1.789   0.001  0.00  0.00    +0.076 A 
ATOM     25  C   UNL     1       1.109   3.187   0.008  0.00  0.00    +0.095 A 
ATOM     26  C   UNL     1      -0.154   3.806   0.023  0.00  0.00    +0.116 A 
ATOM     27  N   UNL     1      -1.258   3.074   0.029  0.00  0.00    -0.244 NA
BRANCH  24  28
ATOM     28  C   UNL     1       2.502   1.078  -0.016  0.00  0.00    +0.419 C 
ATOM     29  F   UNL     1       2.290  -0.305  -0.021  0.00  0.00    -0.166 F 
ATOM     30  F   UNL     1       3.213   1.445  -1.163  0.00  0.00    -0.166 F 
ATOM     31  F   UNL     1       3.235   1.433   1.121  0.00  0.00    -0.166 F 
ENDBRANCH  24  28
BRANCH  25  32
ATOM     32  C   UNL     1       2.306   3.973   0.000  0.00  0.00    +0.102 C 
ATOM     33  N   UNL     1       3.256   4.596  -0.006  0.00  0.00    -0.191 NA
ENDBRANCH  25  32
ENDBRANCH  20  26
ENDBRANCH  19  20
ENDBRANCH   1  19
TORSDOF 7
