REMARK  Name = ZINC38685111
REMARK  7 active torsions:
REMARK  status: ('A' for Active; 'I' for Inactive)
REMARK    1  A    between atoms: C_1  and  N_2
REMARK    2  A    between atoms: N_9  and  C_12
REMARK    3  A    between atoms: N_13  and  C_28
REMARK    4  A    between atoms: N_16  and  C_17
REMARK    5  A    between atoms: C_17  and  C_18
REMARK    6  A    between atoms: C_18  and  C_19
REMARK    7  A    between atoms: C_28  and  C_29
REMARK                            x       y       z     vdW  Elec       q    Type
REMARK                         _______ _______ _______ _____ _____    ______ ____
ROOT
ATOM      1  C   UNL     1       0.903   0.899  -0.212  0.00  0.00    +0.136 C 
ATOM      2  N   UNL     1       0.680  -0.549  -0.236  0.00  0.00    -0.266 N 
ATOM      3  C   UNL     1      -0.633  -1.126  -0.128  0.00  0.00    +0.203 C 
ATOM      4  C   UNL     1      -0.737  -2.220  -1.237  0.00  0.00    +0.203 C 
ATOM      5  C   UNL     1       0.277  -3.249  -0.864  0.00  0.00    +0.247 C 
ATOM      6  O   UNL     1       0.044  -4.438  -0.903  0.00  0.00    -0.273 OA
ATOM      7  N   UNL     1       1.487  -2.751  -0.476  0.00  0.00    -0.227 N 
ATOM      8  C   UNL     1       1.704  -1.441  -0.369  0.00  0.00    +0.312 C 
ATOM      9  O   UNL     1       2.848  -1.032  -0.403  0.00  0.00    -0.252 OA
ATOM     10  C   UNL     1       2.573  -3.680  -0.154  0.00  0.00    +0.143 C 
ATOM     11  N   UNL     1      -2.162  -2.506  -1.083  0.00  0.00    -0.286 N 
ATOM     12  C   UNL     1      -2.716  -1.236  -0.897  0.00  0.00    +0.159 C 
ATOM     13  N   UNL     1      -1.851  -0.393  -0.382  0.00  0.00    -0.341 N 
ATOM     14  N   UNL     1      -4.010  -0.907  -1.227  0.00  0.00    -0.318 N 
ATOM     15  H   UNL     1      -4.596  -1.575  -1.615  0.00  0.00    +0.149 HD
ATOM     16  H   UNL     1      -2.007   0.547  -0.202  0.00  0.00    +0.164 HD
ENDROOT
BRANCH  14  17
ATOM     17  C   UNL     1      -4.502   0.453  -0.994  0.00  0.00    +0.109 C 
BRANCH  17  18
ATOM     18  C   UNL     1      -5.960   0.552  -1.446  0.00  0.00    +0.056 C 
BRANCH  18  19
ATOM     19  C   UNL     1      -6.467   1.951  -1.206  0.00  0.00    -0.021 A 
ATOM     20  C   UNL     1      -6.314   3.099  -2.103  0.00  0.00    +0.003 A 
ATOM     21  C   UNL     1      -5.716   3.282  -3.351  0.00  0.00    +0.010 A 
ATOM     22  C   UNL     1      -5.745   4.513  -3.943  0.00  0.00    +0.001 A 
ATOM     23  C   UNL     1      -6.364   5.584  -3.313  0.00  0.00    +0.002 A 
ATOM     24  C   UNL     1      -6.960   5.426  -2.081  0.00  0.00    +0.026 A 
ATOM     25  C   UNL     1      -6.943   4.181  -1.460  0.00  0.00    +0.047 A 
ATOM     26  N   UNL     1      -7.436   3.712  -0.263  0.00  0.00    -0.360 N 
ATOM     27  C   UNL     1      -7.148   2.380  -0.132  0.00  0.00    +0.087 A 
ATOM     28  H   UNL     1      -7.919   4.244   0.388  0.00  0.00    +0.165 HD
ENDBRANCH  18  19
ENDBRANCH  17  18
ENDBRANCH  14  17
BRANCH  11  29
ATOM     29  C   UNL     1      -2.842  -3.803  -1.117  0.00  0.00    +0.143 C 
BRANCH  29  30
ATOM     30  C   UNL     1      -3.176  -4.159  -2.542  0.00  0.00    -0.029 A 
ATOM     31  C   UNL     1      -4.426  -3.862  -3.054  0.00  0.00    +0.007 A 
ATOM     32  C   UNL     1      -4.734  -4.188  -4.361  0.00  0.00    +0.022 A 
ATOM     33  C   UNL     1      -3.791  -4.811  -5.159  0.00  0.00    +0.059 A 
ATOM     34  C   UNL     1      -2.539  -5.108  -4.647  0.00  0.00    +0.060 A 
ATOM     35  C   UNL     1      -2.231  -4.776  -3.340  0.00  0.00    +0.026 A 
ATOM     36 CL   UNL     1      -1.355  -5.891  -5.646  0.00  0.00    -0.082 Cl
ATOM     37 CL   UNL     1      -4.177  -5.222  -6.801  0.00  0.00    -0.082 Cl
ENDBRANCH  29  30
ENDBRANCH  11  29
TORSDOF 5
