REMARK  Name = ZINC59852661
REMARK  9 active torsions:
REMARK  status: ('A' for Active; 'I' for Inactive)
REMARK    1  A    between atoms: C_3  and  C_6
REMARK    2  A    between atoms: C_6  and  C_8
REMARK    3  A    between atoms: C_6  and  N_27
REMARK    4  A    between atoms: C_8  and  N_9
REMARK    5  A    between atoms: N_12  and  C_13
REMARK    6  A    between atoms: C_13  and  C_14
REMARK    7  A    between atoms: C_17  and  C_20
REMARK    8  A    between atoms: N_22  and  C_23
REMARK    9  A    between atoms: C_23  and  C_24
REMARK                            x       y       z     vdW  Elec       q    Type
REMARK                         _______ _______ _______ _____ _____    ______ ____
ROOT
ATOM      1  N   UNL     1       5.594   0.291   1.331  0.00  0.00    -0.301 N 
ATOM      2  C   UNL     1       6.282   0.092   2.472  0.00  0.00    +0.300 C 
ATOM      3  O   UNL     1       5.708   0.136   3.543  0.00  0.00    -0.253 OA
ATOM      4  N   UNL     1       7.606  -0.156   2.427  0.00  0.00    -0.295 N 
ATOM      5  H   UNL     1       6.051   0.256   0.476  0.00  0.00    +0.150 HD
ATOM      6  H   UNL     1       8.064  -0.191   1.572  0.00  0.00    +0.151 HD
ENDROOT
BRANCH   1   7
ATOM      7  C   UNL     1       4.154   0.560   1.380  0.00  0.00    +0.098 C 
BRANCH   7   8
ATOM      8  C   UNL     1       3.646   0.875  -0.028  0.00  0.00    +0.016 C 
BRANCH   8   9
ATOM      9  N   UNL     1       2.184   1.017  -0.000  0.00  0.00    +0.387 N 
ATOM     10  C   UNL     1       1.673   1.319  -1.361  0.00  0.00    -0.078 C 
ATOM     11  C   UNL     1       0.187   0.885  -1.287  0.00  0.00    -0.020 C 
ATOM     12  C   UNL     1       0.242  -0.383  -0.404  0.00  0.00    -0.020 C 
ATOM     13  C   UNL     1       1.554  -0.263   0.392  0.00  0.00    -0.078 C 
ATOM     14  H   UNL     1       1.917   1.748   0.643  0.00  0.00    -0.081 HD
ENDBRANCH   8   9
BRANCH   8  17
ATOM     15  C   UNL     1       5.561   3.642  -1.529  0.00  0.00    +0.041 A 
ATOM     16  C   UNL     1       5.316   2.262  -1.346  0.00  0.00    +0.043 A 
ATOM     17  C   UNL     1       4.267   2.160  -0.511  0.00  0.00    +0.093 A 
ATOM     18  O   UNL     1       3.866   3.399  -0.180  0.00  0.00    -0.469 OA
ATOM     19  C   UNL     1       4.647   4.301  -0.795  0.00  0.00    +0.195 A 
ENDBRANCH   8  17
ENDBRANCH   7   8
ENDBRANCH   1   7
BRANCH   4  20
ATOM     20  C   UNL     1       8.354  -0.372   3.668  0.00  0.00    +0.141 C 
BRANCH  20  21
ATOM     21  C   UNL     1       9.803  -0.626   3.343  0.00  0.00    -0.030 A 
ATOM     22  C   UNL     1      10.242  -1.919   3.118  0.00  0.00    +0.006 A 
ATOM     23  C   UNL     1      11.568  -2.159   2.820  0.00  0.00    +0.013 A 
ATOM     24  C   UNL     1      12.467  -1.094   2.746  0.00  0.00    +0.037 A 
ATOM     25  C   UNL     1      12.017   0.208   2.974  0.00  0.00    +0.013 A 
ATOM     26  C   UNL     1      10.688   0.434   3.266  0.00  0.00    +0.006 A 
BRANCH  24  27
ATOM     27  C   UNL     1      13.889  -1.343   2.428  0.00  0.00    +0.244 C 
ATOM     28  O   UNL     1      14.277  -2.478   2.230  0.00  0.00    -0.270 OA
ATOM     29  N   UNL     1      14.754  -0.313   2.357  0.00  0.00    -0.303 N 
ATOM     30  H   UNL     1      14.444   0.593   2.515  0.00  0.00    +0.150 HD
BRANCH  29  31
ATOM     31  C   UNL     1      16.163  -0.560   2.042  0.00  0.00    +0.200 C 
BRANCH  31  32
ATOM     32  C   UNL     1      16.911   0.748   2.025  0.00  0.00    +0.228 C 
ATOM     33  O   UNL     1      16.325   1.785   2.253  0.00  0.00    -0.274 OA
ATOM     34  N   UNL     1      18.232   0.766   1.755  0.00  0.00    -0.328 N 
ATOM     35  H   UNL     1      18.701  -0.063   1.572  0.00  0.00    +0.145 HD
ATOM     36  H   UNL     1      18.713   1.608   1.744  0.00  0.00    +0.145 HD
ENDBRANCH  31  32
ENDBRANCH  29  31
ENDBRANCH  24  27
ENDBRANCH  20  21
ENDBRANCH   4  20
TORSDOF 9
