REMARK  Name = ZINC04275257
REMARK  9 active torsions:
REMARK  status: ('A' for Active; 'I' for Inactive)
REMARK    1  A    between atoms: C_1  and  C_2
REMARK    2  A    between atoms: C_2  and  C_4
REMARK    3  A    between atoms: C_7  and  C_10
REMARK    4  A    between atoms: N_12  and  C_13
REMARK    5  A    between atoms: C_14  and  C_25
REMARK    6  A    between atoms: C_18  and  C_23
REMARK    7  A    between atoms: C_18  and  C_24
REMARK    8  A    between atoms: C_19  and  C_21
REMARK    9  A    between atoms: C_19  and  C_22
REMARK                            x       y       z     vdW  Elec       q    Type
REMARK                         _______ _______ _______ _____ _____    ______ ____
ROOT
ATOM      1  C   UNL     1       2.413   0.245  -0.025  0.00  0.00    +0.085 A 
ATOM      2  C   UNL     1       1.316  -0.609  -0.028  0.00  0.00    +0.068 A 
ATOM      3  C   UNL     1       0.002  -0.003  -0.001  0.00  0.00    -0.026 A 
ATOM      4  C   UNL     1      -0.016   1.351   0.017  0.00  0.00    -0.016 A 
ATOM      5  S   UNL     1       1.690   1.820   0.009  0.00  0.00    -0.079 S 
ATOM      6  C   UNL     1      -1.228   2.224   0.032  0.00  0.00    -0.041 C 
ATOM      7  C   UNL     1      -2.330   0.114   0.788  0.00  0.00    -0.069 C 
ATOM      8  C   UNL     1      -1.326  -0.748   0.013  0.00  0.00    +0.024 C 
ATOM      9  C   UNL     1      -3.705  -0.577   0.706  0.00  0.00    -0.010 C 
ATOM     10  C   UNL     1      -1.918   0.168   2.261  0.00  0.00    -0.010 C 
ATOM     11  C   UNL     1      -1.081   3.281   1.135  0.00  0.00    -0.005 C 
ATOM     12  C   UNL     1      -1.313   2.957  -1.321  0.00  0.00    -0.005 C 
ATOM     13  N   UNL     1      -2.504   1.473   0.214  0.00  0.00    +0.389 N 
ATOM     14  H   UNL     1      -2.958   1.382  -0.702  0.00  0.00    -0.084 HD
ATOM     15  H   UNL     1      -3.109   2.014   0.844  0.00  0.00    -0.084 HD
ENDROOT
BRANCH   2  16
ATOM     16  C   UNL     1       1.496  -2.064  -0.061  0.00  0.00    +0.244 C 
ATOM     17  O   UNL     1       1.560  -2.646  -1.128  0.00  0.00    -0.270 OA
ATOM     18  N   UNL     1       1.592  -2.757   1.091  0.00  0.00    -0.325 N 
ATOM     19  H   UNL     1       1.542  -2.293   1.942  0.00  0.00    +0.145 HD
ATOM     20  H   UNL     1       1.712  -3.719   1.070  0.00  0.00    +0.145 HD
ENDBRANCH   2  16
BRANCH   1  23
ATOM     21  C   UNL     1       4.691   0.889  -0.039  0.00  0.00    +0.249 C 
ATOM     22  O   UNL     1       4.351   2.055  -0.015  0.00  0.00    -0.270 OA
ATOM     23  N   UNL     1       3.758  -0.084  -0.046  0.00  0.00    -0.275 N 
ATOM     24  H   UNL     1       4.029  -1.016  -0.066  0.00  0.00    +0.156 HD
BRANCH  21  28
ATOM     25  C   UNL     1       8.823  -0.124  -0.102  0.00  0.00    +0.017 A 
ATOM     26  C   UNL     1       8.432   1.218  -0.075  0.00  0.00    +0.012 A 
ATOM     27  C   UNL     1       7.094   1.544  -0.054  0.00  0.00    +0.014 A 
ATOM     28  C   UNL     1       6.128   0.536  -0.061  0.00  0.00    +0.037 A 
ATOM     29  C   UNL     1       6.517  -0.804  -0.084  0.00  0.00    +0.014 A 
ATOM     30  C   UNL     1       7.855  -1.133  -0.109  0.00  0.00    +0.012 A 
BRANCH  25  32
ATOM     31  C   UNL     1      10.677  -1.919  -0.028  0.00  0.00    +0.091 C 
ATOM     32  C   UNL     1      10.254  -0.475  -0.124  0.00  0.00    +0.160 C 
ATOM     33  O   UNL     1      11.090   0.397  -0.219  0.00  0.00    -0.292 OA
ENDBRANCH  25  32
ENDBRANCH  21  28
ENDBRANCH   1  23
TORSDOF 4
