REMARK  Name = ZINC13909357
REMARK  8 active torsions:
REMARK  status: ('A' for Active; 'I' for Inactive)
REMARK    1  A    between atoms: C_3  and  O_9
REMARK    2  A    between atoms: O_9  and  C_10
REMARK    3  A    between atoms: C_10  and  C_11
REMARK    4  A    between atoms: N_13  and  C_14
REMARK    5  A    between atoms: C_20  and  N_22
REMARK    6  A    between atoms: C_23  and  C_25
REMARK    7  A    between atoms: C_25  and  O_26
REMARK    8  A    between atoms: O_26  and  C_27
REMARK                            x       y       z     vdW  Elec       q    Type
REMARK                         _______ _______ _______ _____ _____    ______ ____
ROOT
ATOM      1  C   UNL     1      -0.927   1.718   3.671  0.00  0.00    +0.093 C 
ATOM      2  C   UNL     1      -2.065   0.757   4.021  0.00  0.00    +0.024 C 
ATOM      3  C   UNL     1      -2.781   1.250   5.279  0.00  0.00    +0.002 C 
ATOM      4  C   UNL     1      -1.788   1.309   6.442  0.00  0.00    +0.002 C 
ATOM      5  C   UNL     1      -0.650   2.270   6.092  0.00  0.00    +0.024 C 
ATOM      6  C   UNL     1       0.066   1.777   4.833  0.00  0.00    +0.093 C 
ENDROOT
BRANCH   1   9
ATOM      7  C   UNL     1      -0.718   1.572   1.248  0.00  0.00    +0.251 C 
ATOM      8  O   UNL     1      -1.714   2.256   1.150  0.00  0.00    -0.272 OA
ATOM      9  N   UNL     1      -0.242   1.246   2.466  0.00  0.00    -0.308 N 
ATOM     10  H   UNL     1       0.555   0.699   2.544  0.00  0.00    +0.149 HD
BRANCH   7  11
ATOM     11  C   UNL     1      -0.013   1.086   0.008  0.00  0.00    +0.324 C 
BRANCH  11  12
ATOM     12  O   UNL     1      -0.704   1.559  -1.150  0.00  0.00    -0.481 OA
BRANCH  12  15
ATOM     13  C   UNL     1       1.465   0.068  -3.662  0.00  0.00    +0.023 A 
ATOM     14  C   UNL     1       0.951   0.428  -2.431  0.00  0.00    +0.048 A 
ATOM     15  C   UNL     1      -0.194   1.207  -2.360  0.00  0.00    +0.140 A 
ATOM     16  C   UNL     1      -0.815   1.633  -3.526  0.00  0.00    +0.084 A 
ATOM     17  C   UNL     1      -0.294   1.274  -4.755  0.00  0.00    +0.043 A 
ATOM     18  C   UNL     1       0.845   0.492  -4.823  0.00  0.00    +0.043 A 
ATOM     19 CL   UNL     1       1.497   0.042  -6.368  0.00  0.00    -0.083 Cl
ATOM     20 CL   UNL     1      -2.244   2.615  -3.441  0.00  0.00    -0.080 Cl
ENDBRANCH  12  15
ENDBRANCH  11  12
ENDBRANCH   7  11
ENDBRANCH   1   9
BRANCH   6  21
ATOM     21  N   UNL     1       1.155   2.698   4.498  0.00  0.00    -0.308 N 
ATOM     22  C   UNL     1       2.361   2.556   5.084  0.00  0.00    +0.251 C 
ATOM     23  O   UNL     1       2.545   1.666   5.887  0.00  0.00    -0.272 OA
ATOM     24  H   UNL     1       1.009   3.409   3.856  0.00  0.00    +0.149 HD
BRANCH  22  25
ATOM     25  C   UNL     1       3.482   3.503   4.739  0.00  0.00    +0.324 C 
BRANCH  25  26
ATOM     26  O   UNL     1       4.649   3.150   5.484  0.00  0.00    -0.481 OA
BRANCH  26  27
ATOM     27  C   UNL     1       5.759   3.911   5.288  0.00  0.00    +0.140 A 
ATOM     28  C   UNL     1       5.726   4.971   4.395  0.00  0.00    +0.048 A 
ATOM     29  C   UNL     1       6.853   5.746   4.202  0.00  0.00    +0.023 A 
ATOM     30  C   UNL     1       8.018   5.459   4.890  0.00  0.00    +0.043 A 
ATOM     31  C   UNL     1       8.056   4.398   5.779  0.00  0.00    +0.043 A 
ATOM     32  C   UNL     1       6.929   3.624   5.979  0.00  0.00    +0.084 A 
ATOM     33 CL   UNL     1       6.976   2.293   7.093  0.00  0.00    -0.080 Cl
ATOM     34 CL   UNL     1       9.435   6.431   4.641  0.00  0.00    -0.083 Cl
ENDBRANCH  26  27
ENDBRANCH  25  26
ENDBRANCH  22  25
ENDBRANCH   6  21
TORSDOF 8
