REMARK  Name = ZINC04337352
REMARK  12 active torsions:
REMARK  status: ('A' for Active; 'I' for Inactive)
REMARK    1  A    between atoms: C_1  and  C_2
REMARK    2  A    between atoms: C_2  and  O_3
REMARK    3  A    between atoms: O_3  and  C_4
REMARK    4  A    between atoms: C_4  and  C_6
REMARK    5  A    between atoms: C_9  and  C_22
REMARK    6  A    between atoms: C_11  and  C_13
REMARK    7  A    between atoms: C_17  and  O_20
REMARK    8  A    between atoms: C_18  and  O_19
REMARK    9  A    between atoms: O_20  and  C_21
REMARK   10  A    between atoms: C_26  and  O_29
REMARK   11  A    between atoms: C_27  and  O_28
REMARK   12  A    between atoms: O_29  and  C_30
REMARK                            x       y       z     vdW  Elec       q    Type
REMARK                         _______ _______ _______ _____ _____    ______ ____
ROOT
ATOM      1  C   UNL     1       0.682   0.832  -5.296  0.00  0.00    +0.132 C 
ATOM      2  C   UNL     1       0.662  -0.227  -4.474  0.00  0.00    +0.021 C 
ATOM      3  C   UNL     1       1.062  -0.133  -3.027  0.00  0.00    +0.040 C 
ATOM      4  C   UNL     1       1.067   1.334  -2.589  0.00  0.00    -0.031 C 
ATOM      5  C   UNL     1       1.090   2.204  -4.840  0.00  0.00    -0.017 C 
ATOM      6  N   UNL     1       0.264  -1.437  -4.969  0.00  0.00    -0.308 NA
ATOM      7  H   UNL     1       0.078  -1.536  -5.916  0.00  0.00    +0.186 HD
ATOM      8  N   UNL     1       1.833   2.122  -3.573  0.00  0.00    +0.389 N 
ATOM      9  H   UNL     1       2.740   1.669  -3.740  0.00  0.00    -0.084 HD
ATOM     10  H   UNL     1       1.986   3.068  -3.206  0.00  0.00    -0.084 HD
ENDROOT
BRANCH   5  11
ATOM     11  C   UNL     1      -0.139   3.055  -4.646  0.00  0.00    -0.015 A 
ATOM     12  C   UNL     1      -1.382   2.459  -4.531  0.00  0.00    +0.006 A 
ATOM     13  C   UNL     1      -2.511   3.236  -4.352  0.00  0.00    +0.004 A 
ATOM     14  C   UNL     1      -2.403   4.613  -4.287  0.00  0.00    +0.049 A 
ATOM     15  C   UNL     1      -1.161   5.216  -4.400  0.00  0.00    +0.161 A 
ATOM     16  C   UNL     1      -0.023   4.434  -4.575  0.00  0.00    +0.160 A 
BRANCH  16  17
ATOM     17  O   UNL     1       1.198   5.021  -4.682  0.00  0.00    -0.503 OA
ATOM     18  H   UNL     1       1.417   5.313  -5.577  0.00  0.00    +0.292 HD
ENDBRANCH  16  17
BRANCH  15  19
ATOM     19  O   UNL     1      -1.053   6.570  -4.335  0.00  0.00    -0.491 OA
ATOM     20  C   UNL     1      -2.262   7.309  -4.148  0.00  0.00    +0.277 C 
ENDBRANCH  15  19
ENDBRANCH   5  11
BRANCH   4  21
ATOM     21  C   UNL     1       1.716   1.455  -1.235  0.00  0.00    -0.016 A 
ATOM     22  C   UNL     1       3.034   1.860  -1.134  0.00  0.00    +0.006 A 
ATOM     23  C   UNL     1       3.633   1.972   0.107  0.00  0.00    +0.004 A 
ATOM     24  C   UNL     1       2.916   1.680   1.253  0.00  0.00    +0.049 A 
ATOM     25  C   UNL     1       1.593   1.280   1.159  0.00  0.00    +0.161 A 
ATOM     26  C   UNL     1       0.992   1.161  -0.091  0.00  0.00    +0.160 A 
BRANCH  26  27
ATOM     27  O   UNL     1      -0.305   0.763  -0.189  0.00  0.00    -0.503 OA
ATOM     28  H   UNL     1      -0.417  -0.194  -0.267  0.00  0.00    +0.292 HD
ENDBRANCH  26  27
BRANCH  25  29
ATOM     29  O   UNL     1       0.885   0.997   2.285  0.00  0.00    -0.491 OA
ATOM     30  C   UNL     1       1.566   1.141   3.533  0.00  0.00    +0.277 C 
ENDBRANCH  25  29
ENDBRANCH   4  21
BRANCH   1  31
ATOM     31  C   UNL     1       0.300   0.652  -6.643  0.00  0.00    +0.314 C 
ATOM     32  O   UNL     1       1.150   0.578  -7.511  0.00  0.00    -0.250 OA
BRANCH  31  33
ATOM     33  O   UNL     1      -1.007   0.561  -6.968  0.00  0.00    -0.464 OA
BRANCH  33  35
ATOM     34  C   UNL     1      -2.844   0.397  -8.530  0.00  0.00    +0.048 C 
ATOM     35  C   UNL     1      -1.327   0.496  -8.359  0.00  0.00    +0.229 C 
ENDBRANCH  33  35
ENDBRANCH  31  33
ENDBRANCH   1  31
TORSDOF 9
