REMARK  Name = ZINC63072957
REMARK  7 active torsions:
REMARK  status: ('A' for Active; 'I' for Inactive)
REMARK    1  A    between atoms: C_7  and  C_10
REMARK    2  A    between atoms: C_10  and  C_11
REMARK    3  A    between atoms: C_11  and  C_13
REMARK    4  A    between atoms: C_11  and  N_25
REMARK    5  A    between atoms: N_15  and  C_16
REMARK    6  A    between atoms: C_19  and  C_22
REMARK    7  A    between atoms: C_26  and  C_28
REMARK                            x       y       z     vdW  Elec       q    Type
REMARK                         _______ _______ _______ _____ _____    ______ ____
ROOT
ATOM      1  C   UNL     1       0.457  -3.653  -1.455  0.00  0.00    +0.163 C 
ENDROOT
BRANCH   1   2
ATOM      2  C   UNL     1      -0.578  -4.749  -1.474  0.00  0.00    +0.238 C 
ATOM      3  O   UNL     1      -0.232  -5.908  -1.560  0.00  0.00    -0.273 OA
ATOM      4  N   UNL     1      -1.887  -4.441  -1.394  0.00  0.00    -0.284 N 
ATOM      5  H   UNL     1      -2.162  -3.521  -1.258  0.00  0.00    +0.155 HD
BRANCH   4   6
ATOM      6  C   UNL     1      -2.848  -5.445  -1.508  0.00  0.00    +0.033 A 
ATOM      7  C   UNL     1      -2.595  -6.710  -0.986  0.00  0.00    +0.024 A 
ATOM      8  C   UNL     1      -3.542  -7.704  -1.097  0.00  0.00    +0.015 A 
ATOM      9  C   UNL     1      -4.757  -7.441  -1.733  0.00  0.00    +0.037 A 
ATOM     10  C   UNL     1      -5.008  -6.169  -2.256  0.00  0.00    +0.015 A 
ATOM     11  C   UNL     1      -4.060  -5.179  -2.138  0.00  0.00    +0.024 A 
BRANCH   9  12
ATOM     12  C   UNL     1      -5.774  -8.504  -1.854  0.00  0.00    +0.242 C 
ATOM     13  O   UNL     1      -5.554  -9.610  -1.399  0.00  0.00    -0.270 OA
ATOM     14  N   UNL     1      -6.946  -8.249  -2.468  0.00  0.00    -0.325 N 
ATOM     15  H   UNL     1      -7.122  -7.366  -2.831  0.00  0.00    +0.145 HD
ATOM     16  H   UNL     1      -7.614  -8.947  -2.548  0.00  0.00    +0.145 HD
ENDBRANCH   9  12
ENDBRANCH   4   6
ENDBRANCH   1   2
BRANCH   1  17
ATOM     17  N   UNL     1       1.712  -4.157  -2.018  0.00  0.00    -0.299 N 
ATOM     18  C   UNL     1       2.336  -5.204  -1.442  0.00  0.00    +0.251 C 
ATOM     19  O   UNL     1       1.857  -5.731  -0.455  0.00  0.00    -0.270 OA
ATOM     20  H   UNL     1       2.094  -3.737  -2.804  0.00  0.00    +0.150 HD
BRANCH  18  21
ATOM     21  C   UNL     1       3.592  -5.708  -2.005  0.00  0.00    +0.074 A 
ATOM     22  C   UNL     1       4.381  -6.764  -1.575  0.00  0.00    +0.021 A 
ATOM     23  C   UNL     1       5.515  -7.002  -2.314  0.00  0.00    +0.008 A 
ATOM     24  C   UNL     1       5.782  -6.213  -3.384  0.00  0.00    +0.046 A 
ATOM     25  S   UNL     1       4.499  -5.129  -3.426  0.00  0.00    -0.092 S 
ENDBRANCH  18  21
ENDBRANCH   1  17
BRANCH   1  26
ATOM     26  C   UNL     1       0.691  -3.197  -0.013  0.00  0.00    +0.065 C 
BRANCH  26  33
ATOM     27  C   UNL     1      -0.015   1.336   0.057  0.00  0.00    +0.001 A 
ATOM     28  C   UNL     1       1.167   2.089   0.056  0.00  0.00    +0.002 A 
ATOM     29  C   UNL     1       2.392   1.523   0.037  0.00  0.00    +0.026 A 
ATOM     30  C   UNL     1       2.530   0.107   0.016  0.00  0.00    +0.043 A 
ATOM     31  N   UNL     1       3.587  -0.667  -0.005  0.00  0.00    -0.380 N 
ATOM     32  C   UNL     1       3.144  -2.065  -0.021  0.00  0.00    +0.144 C 
ATOM     33  C   UNL     1       1.632  -2.021  -0.005  0.00  0.00    -0.039 C 
ATOM     34  C   UNL     1       1.296  -0.711   0.016  0.00  0.00    -0.001 A 
ATOM     35  C   UNL     1       0.003  -0.016   0.038  0.00  0.00    +0.010 A 
ATOM     36  H   UNL     1       4.510  -0.365  -0.011  0.00  0.00    +0.160 HD
ENDBRANCH  26  33
ENDBRANCH   1  26
TORSDOF 7
