REMARK  Name = ZINC36550944
REMARK  5 active torsions:
REMARK  status: ('A' for Active; 'I' for Inactive)
REMARK    1  A    between atoms: C_3  and  S_10
REMARK    2  A    between atoms: C_6  and  N_7
REMARK    3  A    between atoms: S_10  and  C_11
REMARK    4  A    between atoms: C_14  and  C_25
REMARK    5  A    between atoms: C_16  and  C_22
REMARK                            x       y       z     vdW  Elec       q    Type
REMARK                         _______ _______ _______ _____ _____    ______ ____
ROOT
ATOM      1  C   UNL     1       5.269   1.125  -0.097  0.00  0.00    +0.070 C 
ATOM      2  C   UNL     1       6.593   1.866   0.101  0.00  0.00    +0.031 C 
ATOM      3  C   UNL     1       6.762   2.912  -1.003  0.00  0.00    +0.117 C 
ATOM      4  C   UNL     1       6.764   2.218  -2.366  0.00  0.00    +0.117 C 
ATOM      5  C   UNL     1       5.441   1.476  -2.564  0.00  0.00    +0.036 C 
ATOM      6  C   UNL     1       5.272   0.431  -1.460  0.00  0.00    +0.095 C 
ATOM      7 CL   UNL     1       3.712  -0.443  -1.693  0.00  0.00    -0.121 Cl
ENDROOT
BRANCH   4   8
ATOM      8  C   UNL     1       6.931   3.248  -3.454  0.00  0.00    +0.360 C 
ATOM      9  O   UNL     1       7.642   3.010  -4.415  0.00  0.00    -0.246 OA
ATOM     10  O   UNL     1       6.354   4.319  -3.373  0.00  0.00    -0.246 OA
ENDBRANCH   4   8
BRANCH   3  11
ATOM     11  C   UNL     1       8.065   3.642  -0.808  0.00  0.00    +0.360 C 
ATOM     12  O   UNL     1       8.792   3.353   0.127  0.00  0.00    -0.246 OA
ATOM     13  O   UNL     1       8.393   4.522  -1.586  0.00  0.00    -0.246 OA
ENDBRANCH   3  11
BRANCH   1  14
ATOM     14  S   UNL     1       3.897   2.308  -0.023  0.00  0.00    -0.120 S 
BRANCH  14  17
ATOM     15  C   UNL     1       2.940   4.182   3.405  0.00  0.00    +0.034 A 
ATOM     16  C   UNL     1       2.981   3.805   2.077  0.00  0.00    +0.017 A 
ATOM     17  C   UNL     1       3.841   2.792   1.670  0.00  0.00    +0.008 A 
ATOM     18  C   UNL     1       4.657   2.162   2.602  0.00  0.00    +0.017 A 
ATOM     19  C   UNL     1       4.611   2.544   3.928  0.00  0.00    +0.034 A 
ATOM     20  C   UNL     1       3.753   3.552   4.329  0.00  0.00    +0.126 A 
BRANCH  20  21
ATOM     21  N   UNL     1       3.706   3.959   5.752  0.00  0.00    +0.056 N 
ATOM     22  O   UNL     1       2.958   4.840   6.104  0.00  0.00    -0.126 OA
ATOM     23  O   UNL     1       4.417   3.410   6.561  0.00  0.00    -0.126 OA
ENDBRANCH  20  21
ENDBRANCH  14  17
ENDBRANCH   1  14
TORSDOF 5
