REMARK  Name = ZINC09942119
REMARK  6 active torsions:
REMARK  status: ('A' for Active; 'I' for Inactive)
REMARK    1  A    between atoms: C_1  and  C_2
REMARK    2  A    between atoms: C_5  and  N_9
REMARK    3  A    between atoms: C_6  and  C_8
REMARK    4  A    between atoms: C_10  and  C_12
REMARK    5  A    between atoms: C_13  and  C_29
REMARK    6  A    between atoms: C_20  and  C_22
REMARK                            x       y       z     vdW  Elec       q    Type
REMARK                         _______ _______ _______ _____ _____    ______ ____
ROOT
ATOM      1  C   UNL     1      -2.669   3.395   7.019  0.00  0.00    +0.060 C 
ATOM      2  C   UNL     1      -1.948   3.617   8.128  0.00  0.00    +0.018 C 
ATOM      3  N   UNL     1      -2.529   3.965   9.323  0.00  0.00    -0.286 N 
ATOM      4  C   UNL     1      -3.905   3.821   9.428  0.00  0.00    +0.240 A 
ATOM      5  N   UNL     1      -4.690   3.853  10.467  0.00  0.00    -0.092 NA
ATOM      6  N   UNL     1      -5.914   3.661  10.108  0.00  0.00    -0.021 NA
ATOM      7  N   UNL     1      -5.988   3.498   8.827  0.00  0.00    -0.042 NA
ATOM      8  N   UNL     1      -4.686   3.598   8.339  0.00  0.00    -0.201 N 
ATOM      9  C   UNL     1      -4.171   3.504   6.979  0.00  0.00    +0.179 C 
ATOM     10  C   UNL     1      -0.449   3.487   8.059  0.00  0.00    +0.061 C 
ATOM     11  H   UNL     1      -1.999   4.295  10.066  0.00  0.00    +0.155 HD
ENDROOT
BRANCH   9  12
ATOM     12  C   UNL     1      -4.564   4.735   6.205  0.00  0.00    -0.018 A 
ATOM     13  C   UNL     1      -4.155   5.983   6.637  0.00  0.00    +0.007 A 
ATOM     14  C   UNL     1      -4.512   7.113   5.924  0.00  0.00    +0.015 A 
ATOM     15  C   UNL     1      -5.287   6.995   4.785  0.00  0.00    +0.018 A 
ATOM     16  C   UNL     1      -5.701   5.747   4.356  0.00  0.00    +0.015 A 
ATOM     17  C   UNL     1      -5.339   4.618   5.066  0.00  0.00    +0.007 A 
ATOM     18 BR   UNL     1      -5.781   8.541   3.814  0.00  0.00    -0.050 Br
ENDBRANCH   9  12
BRANCH   1  20
ATOM     19  N   UNL     1      -2.669   2.900   4.678  0.00  0.00    -0.281 N 
ATOM     20  C   UNL     1      -1.987   3.035   5.833  0.00  0.00    +0.248 C 
ATOM     21  O   UNL     1      -0.784   2.847   5.856  0.00  0.00    -0.270 OA
ATOM     22  H   UNL     1      -3.615   3.111   4.646  0.00  0.00    +0.155 HD
BRANCH  19  27
ATOM     23  C   UNL     1      -0.004   1.102   0.005  0.00  0.00    +0.044 C 
ATOM     24  C   UNL     1      -0.712   1.580   1.246  0.00  0.00    -0.050 A 
ATOM     25  C   UNL     1      -0.044   2.378   2.158  0.00  0.00    +0.005 A 
ATOM     26  C   UNL     1      -0.690   2.817   3.297  0.00  0.00    +0.024 A 
ATOM     27  C   UNL     1      -2.012   2.457   3.526  0.00  0.00    +0.037 A 
ATOM     28  C   UNL     1      -2.679   1.656   2.609  0.00  0.00    -0.029 A 
ATOM     29  C   UNL     1      -2.029   1.225   1.469  0.00  0.00    +0.008 A 
ATOM     30  C   UNL     1      -4.113   1.263   2.854  0.00  0.00    +0.045 C 
ENDBRANCH  19  27
ENDBRANCH   1  20
TORSDOF 3
