REMARK  Name = ZINC39680862
REMARK  7 active torsions:
REMARK  status: ('A' for Active; 'I' for Inactive)
REMARK    1  A    between atoms: C_1  and  C_2
REMARK    2  A    between atoms: C_2  and  C_4
REMARK    3  A    between atoms: C_2  and  N_10
REMARK    4  A    between atoms: C_11  and  C_13
REMARK    5  A    between atoms: C_24  and  C_26
REMARK    6  A    between atoms: C_29  and  O_32
REMARK    7  A    between atoms: O_32  and  C_33
REMARK                            x       y       z     vdW  Elec       q    Type
REMARK                         _______ _______ _______ _____ _____    ______ ____
ROOT
ATOM      1  C   UNL     1       1.231  -1.300  -3.992  0.00  0.00    +0.100 C 
ATOM      2  C   UNL     1       1.628  -2.701  -3.473  0.00  0.00    +0.121 C 
ATOM      3  N   UNL     1       0.553  -3.598  -3.957  0.00  0.00    -0.296 N 
ATOM      4  C   UNL     1       0.250  -3.106  -5.323  0.00  0.00    +0.115 C 
ATOM      5  C   UNL     1       0.330  -1.571  -5.208  0.00  0.00    -0.004 C 
ATOM      6  C   UNL     1       0.952  -0.979  -6.469  0.00  0.00    -0.010 C 
ATOM      7  C   UNL     1       0.010  -1.210  -7.654  0.00  0.00    -0.082 C 
ATOM      8  N   UNL     1      -1.287  -0.578  -7.381  0.00  0.00    +0.379 N 
ATOM      9  C   UNL     1      -1.920  -1.217  -6.222  0.00  0.00    -0.082 C 
ATOM     10  C   UNL     1      -1.060  -0.987  -4.976  0.00  0.00    -0.010 C 
ATOM     11  C   UNL     1      -0.019  -4.629  -3.304  0.00  0.00    +0.247 C 
ATOM     12  O   UNL     1       0.250  -4.834  -2.137  0.00  0.00    -0.270 OA
ATOM     13  H   UNL     1      -1.148   0.403  -7.189  0.00  0.00    -0.086 HD
ATOM     14  H   UNL     1      -1.885  -0.678  -8.188  0.00  0.00    -0.086 HD
ENDROOT
BRANCH  11  15
ATOM     15  C   UNL     1      -0.973  -5.509  -4.007  0.00  0.00    +0.037 A 
ATOM     16  C   UNL     1      -0.966  -5.577  -5.403  0.00  0.00    +0.016 A 
ATOM     17  C   UNL     1      -1.857  -6.400  -6.055  0.00  0.00    +0.047 A 
ATOM     18  C   UNL     1      -2.764  -7.162  -5.326  0.00  0.00    +0.130 A 
ATOM     19  C   UNL     1      -2.774  -7.097  -3.938  0.00  0.00    +0.047 A 
ATOM     20  C   UNL     1      -1.882  -6.281  -3.278  0.00  0.00    +0.016 A 
BRANCH  18  21
ATOM     21  O   UNL     1      -3.641  -7.971  -5.973  0.00  0.00    -0.406 OA
BRANCH  21  22
ATOM     22  C   UNL     1      -4.544  -8.726  -5.163  0.00  0.00    +0.575 C 
ATOM     23  F   UNL     1      -5.329  -7.853  -4.401  0.00  0.00    -0.133 F 
ATOM     24  F   UNL     1      -5.371  -9.500  -5.984  0.00  0.00    -0.133 F 
ATOM     25  F   UNL     1      -3.818  -9.564  -4.311  0.00  0.00    -0.133 F 
ENDBRANCH  21  22
ENDBRANCH  18  21
ENDBRANCH  11  15
BRANCH   1  27
ATOM     26  N   UNL     1       0.444   0.803  -2.956  0.00  0.00    -0.308 N 
ATOM     27  C   UNL     1       0.471  -0.544  -2.933  0.00  0.00    +0.219 C 
ATOM     28  O   UNL     1      -0.117  -1.148  -2.061  0.00  0.00    -0.275 OA
ATOM     29  H   UNL     1       0.913   1.286  -3.654  0.00  0.00    +0.149 HD
BRANCH  26  31
ATOM     30  C   UNL     1      -1.766   1.647  -2.335  0.00  0.00    +0.033 C 
ATOM     31  C   UNL     1      -0.296   1.538  -1.927  0.00  0.00    +0.100 C 
BRANCH  31  32
ATOM     32  C   UNL     1       0.289   2.919  -1.778  0.00  0.00    -0.025 A 
ATOM     33  C   UNL     1       0.689   3.643  -2.890  0.00  0.00    +0.025 A 
ATOM     34  C   UNL     1       1.221   4.907  -2.716  0.00  0.00    +0.111 A 
ATOM     35  N   UNL     1       1.349   5.424  -1.509  0.00  0.00    -0.263 NA
ATOM     36  C   UNL     1       0.979   4.764  -0.429  0.00  0.00    +0.111 A 
ATOM     37  C   UNL     1       0.433   3.498  -0.527  0.00  0.00    +0.025 A 
ENDBRANCH  31  32
ENDBRANCH  26  31
ENDBRANCH   1  27
TORSDOF 6
