REMARK  Name = ZINC17721098
REMARK  8 active torsions:
REMARK  status: ('A' for Active; 'I' for Inactive)
REMARK    1  A    between atoms: C_1  and  C_2
REMARK    2  A    between atoms: N_13  and  C_26
REMARK    3  A    between atoms: C_14  and  S_16
REMARK    4  A    between atoms: S_16  and  C_17
REMARK    5  A    between atoms: C_17  and  C_18
REMARK    6  A    between atoms: C_26  and  C_27
REMARK    7  A    between atoms: C_27  and  C_28
REMARK    8  A    between atoms: C_27  and  C_29
REMARK                            x       y       z     vdW  Elec       q    Type
REMARK                         _______ _______ _______ _____ _____    ______ ____
ROOT
ATOM      1  C   UNL     1     -11.712   9.083   1.191  0.00  0.00    +0.008 C 
ATOM      2  C   UNL     1     -10.645   8.161   0.599  0.00  0.00    -0.009 C 
ATOM      3  C   UNL     1     -10.064   8.795  -0.668  0.00  0.00    +0.008 C 
ATOM      4  C   UNL     1      -9.183   7.782  -1.399  0.00  0.00    +0.037 C 
ATOM      5  C   UNL     1      -8.161   7.217  -0.416  0.00  0.00    -0.023 A 
ATOM      6  C   UNL     1      -8.353   7.325   0.914  0.00  0.00    -0.004 A 
ATOM      7  S   UNL     1      -6.941   6.543   1.647  0.00  0.00    -0.073 S 
ATOM      8  C   UNL     1      -6.095   6.072   0.160  0.00  0.00    +0.117 A 
ATOM      9  C   UNL     1      -6.940   6.541  -0.860  0.00  0.00    +0.076 A 
ATOM     10  C   UNL     1      -6.498   6.296  -2.198  0.00  0.00    +0.263 A 
ATOM     11  O   UNL     1      -7.167   6.667  -3.147  0.00  0.00    -0.267 OA
ATOM     12  N   UNL     1      -5.334   5.650  -2.395  0.00  0.00    -0.287 N 
ATOM     13  C   UNL     1      -4.573   5.226  -1.344  0.00  0.00    +0.173 A 
ATOM     14  N   UNL     1      -4.959   5.435  -0.101  0.00  0.00    -0.216 NA
ATOM     15  C   UNL     1      -9.511   7.966   1.615  0.00  0.00    +0.046 C 
ENDROOT
BRANCH  13  16
ATOM     16  S   UNL     1      -3.057   4.383  -1.653  0.00  0.00    -0.080 S 
BRANCH  16  17
ATOM     17  C   UNL     1      -2.514   4.080   0.047  0.00  0.00    +0.153 C 
BRANCH  17  18
ATOM     18  C   UNL     1      -1.197   3.348   0.030  0.00  0.00    +0.146 A 
ATOM     19  N   UNL     1      -1.178   2.026   0.019  0.00  0.00    -0.199 NA
ATOM     20  C   UNL     1      -0.017   1.376   0.010  0.00  0.00    +0.217 A 
ATOM     21  N   UNL     1       1.124   2.057   0.002  0.00  0.00    -0.181 NA
ATOM     22  C   UNL     1       1.101   3.385   0.009  0.00  0.00    +0.217 A 
ATOM     23  N   UNL     1      -0.064   4.028   0.023  0.00  0.00    -0.199 NA
ATOM     24  N   UNL     1       2.283   4.096   0.001  0.00  0.00    -0.327 N 
ATOM     25  N   UNL     1       0.002  -0.004   0.002  0.00  0.00    -0.327 N 
ATOM     26  H   UNL     1       3.132   3.627  -0.009  0.00  0.00    +0.145 HD
ATOM     27  H   UNL     1       2.266   5.066   0.006  0.00  0.00    +0.145 HD
ATOM     28  H   UNL     1       0.849  -0.478  -0.009  0.00  0.00    +0.145 HD
ATOM     29  H   UNL     1      -0.831  -0.500   0.007  0.00  0.00    +0.145 HD
ENDBRANCH  17  18
ENDBRANCH  16  17
ENDBRANCH  13  16
BRANCH  12  30
ATOM     30  C   UNL     1      -4.875   5.396  -3.763  0.00  0.00    +0.130 C 
BRANCH  30  31
ATOM     31  C   UNL     1      -5.416   4.046  -4.240  0.00  0.00    +0.003 C 
ATOM     32  C   UNL     1      -6.942   4.112  -4.330  0.00  0.00    +0.009 C 
ATOM     33  C   UNL     1      -4.837   3.724  -5.618  0.00  0.00    +0.009 C 
ENDBRANCH  30  31
ENDBRANCH  12  30
TORSDOF 5
