REMARK  Name = ZINC11718120
REMARK  7 active torsions:
REMARK  status: ('A' for Active; 'I' for Inactive)
REMARK    1  A    between atoms: C_1  and  C_2
REMARK    2  A    between atoms: C_2  and  C_4
REMARK    3  A    between atoms: C_2  and  N_49
REMARK    4  A    between atoms: N_6  and  C_7
REMARK    5  A    between atoms: C_17  and  N_20
REMARK    6  A    between atoms: N_20  and  S_21
REMARK    7  A    between atoms: S_21  and  C_24
REMARK                            x       y       z     vdW  Elec       q    Type
REMARK                         _______ _______ _______ _____ _____    ______ ____
ROOT
ATOM      1  C   UNL     1      -1.636   5.996  -1.181  0.00  0.00    -0.076 C 
ATOM      2  C   UNL     1      -1.251   7.472  -1.061  0.00  0.00    +0.002 C 
ATOM      3  C   UNL     1      -2.522   8.326  -1.047  0.00  0.00    +0.073 C 
ATOM      4  C   UNL     1      -3.414   7.880   0.115  0.00  0.00    +0.002 C 
ATOM      5  C   UNL     1      -3.736   6.391  -0.039  0.00  0.00    -0.076 C 
ATOM      6  N   UNL     1      -2.473   5.623  -0.021  0.00  0.00    +0.387 N 
ATOM      7  H   UNL     1      -1.963   5.842   0.843  0.00  0.00    -0.081 HD
ENDROOT
BRANCH   6   9
ATOM      8  C   UNL     1      -1.444   3.404  -0.120  0.00  0.00    -0.004 C 
ATOM      9  C   UNL     1      -2.764   4.175  -0.053  0.00  0.00    +0.016 C 
BRANCH   9  10
ATOM     10  C   UNL     1      -3.502   3.798   1.206  0.00  0.00    +0.203 C 
ATOM     11  O   UNL     1      -3.366   4.464   2.210  0.00  0.00    -0.277 OA
ATOM     12  N   UNL     1      -4.313   2.722   1.215  0.00  0.00    -0.287 N 
ATOM     13  H   UNL     1      -4.368   2.149   0.434  0.00  0.00    +0.155 HD
BRANCH  12  14
ATOM     14  C   UNL     1      -5.077   2.431   2.350  0.00  0.00    +0.036 A 
ATOM     15  C   UNL     1      -5.372   1.113   2.671  0.00  0.00    +0.043 A 
ATOM     16  C   UNL     1      -6.131   0.829   3.791  0.00  0.00    +0.044 A 
ATOM     17  C   UNL     1      -6.598   1.857   4.592  0.00  0.00    +0.040 A 
ATOM     18  C   UNL     1      -6.306   3.171   4.274  0.00  0.00    +0.044 A 
ATOM     19  C   UNL     1      -5.546   3.461   3.155  0.00  0.00    +0.043 A 
ATOM     20 CL   UNL     1      -6.893   4.458   5.280  0.00  0.00    -0.083 Cl
ATOM     21 CL   UNL     1      -6.500  -0.819   4.193  0.00  0.00    -0.083 Cl
ENDBRANCH  12  14
ENDBRANCH   9  10
ENDBRANCH   6   9
BRANCH   3  22
ATOM     22  N   UNL     1      -2.163   9.736  -0.874  0.00  0.00    -0.187 NA
ATOM     23  H   UNL     1      -2.019  10.094   0.016  0.00  0.00    +0.148 HD
BRANCH  22  24
ATOM     24  S   UNL     1      -2.003  10.718  -2.198  0.00  0.00    +0.065 S 
ATOM     25  O   UNL     1      -1.680  12.012  -1.707  0.00  0.00    -0.153 OA
ATOM     26  O   UNL     1      -1.173  10.024  -3.120  0.00  0.00    -0.153 OA
BRANCH  24  27
ATOM     27  C   UNL     1      -3.592  10.845  -2.947  0.00  0.00    +0.142 A 
ATOM     28  C   UNL     1      -4.577  11.747  -2.713  0.00  0.00    +0.036 A 
ATOM     29  C   UNL     1      -5.755  11.654  -3.429  0.00  0.00    +0.010 A 
ATOM     30  C   UNL     1      -5.892  10.664  -4.344  0.00  0.00    +0.047 A 
ATOM     31  S   UNL     1      -4.322   9.825  -4.218  0.00  0.00    -0.077 S 
ENDBRANCH  24  27
ENDBRANCH  22  24
ENDBRANCH   3  22
TORSDOF 6
