REMARK  Name = ZINC08921457
REMARK  3 active torsions:
REMARK  status: ('A' for Active; 'I' for Inactive)
REMARK    1  A    between atoms: C_13  and  C_14
REMARK    2  A    between atoms: C_13  and  O_40
REMARK    3  A    between atoms: N_16  and  N_17
REMARK                            x       y       z     vdW  Elec       q    Type
REMARK                         _______ _______ _______ _____ _____    ______ ____
ROOT
ATOM      1  N   UNL     1       6.444  -0.968  -2.447  0.00  0.00    -0.155 N 
ATOM      2  C   UNL     1       6.326  -1.760  -3.564  0.00  0.00    +0.243 C 
ATOM      3  O   UNL     1       5.717  -2.803  -3.663  0.00  0.00    -0.273 OA
ATOM      4  C   UNL     1       7.095  -1.071  -4.616  0.00  0.00    +0.102 C 
ATOM      5  C   UNL     1       8.183  -0.406  -3.735  0.00  0.00    +0.102 C 
ATOM      6  C   UNL     1       7.398   0.018  -2.583  0.00  0.00    +0.243 C 
ATOM      7  O   UNL     1       7.550   1.008  -1.900  0.00  0.00    -0.273 OA
ATOM      8  C   UNL     1       9.249   0.154  -4.583  0.00  0.00    +0.062 C 
ATOM      9  C   UNL     1       8.709   0.620  -5.919  0.00  0.00    -0.035 A 
ATOM     10  C   UNL     1       8.885   1.871  -6.442  0.00  0.00    +0.004 A 
ATOM     11  C   UNL     1       8.376   2.150  -7.703  0.00  0.00    +0.000 A 
ATOM     12  C   UNL     1       7.705   1.180  -8.425  0.00  0.00    +0.000 A 
ATOM     13  C   UNL     1       7.511  -0.086  -7.884  0.00  0.00    +0.004 A 
ATOM     14  C   UNL     1       7.992  -0.340  -6.638  0.00  0.00    -0.035 A 
ATOM     15  C   UNL     1       7.756  -1.659  -5.830  0.00  0.00    +0.062 C 
ATOM     16  C   UNL     1       9.188  -2.083  -5.515  0.00  0.00    -0.035 A 
ATOM     17  C   UNL     1      10.001  -1.132  -4.948  0.00  0.00    -0.035 A 
ATOM     18  C   UNL     1      11.316  -1.378  -4.716  0.00  0.00    +0.004 A 
ATOM     19  C   UNL     1      11.829  -2.626  -5.058  0.00  0.00    +0.000 A 
ATOM     20  C   UNL     1      11.006  -3.584  -5.618  0.00  0.00    +0.000 A 
ATOM     21  C   UNL     1       9.696  -3.321  -5.803  0.00  0.00    +0.004 A 
ENDROOT
BRANCH   1  24
ATOM     22  C   UNL     1       4.378  -0.762  -1.282  0.00  0.00    +0.271 C 
ATOM     23  O   UNL     1       3.884  -0.270  -2.273  0.00  0.00    -0.270 OA
ATOM     24  N   UNL     1       5.671  -1.142  -1.291  0.00  0.00    -0.222 N 
ATOM     25  H   UNL     1       6.067  -1.536  -0.497  0.00  0.00    +0.174 HD
BRANCH  22  38
ATOM     26  C   UNL     1      -0.017   1.375   0.010  0.00  0.00    +0.001 A 
ATOM     27  C   UNL     1       1.169   2.088   0.002  0.00  0.00    +0.000 A 
ATOM     28  C   UNL     1       2.380   1.420  -0.013  0.00  0.00    +0.008 A 
ATOM     29  C   UNL     1       2.408   0.042  -0.021  0.00  0.00    +0.005 A 
ATOM     30  C   UNL     1       1.221  -0.685  -0.013  0.00  0.00    -0.011 A 
ATOM     31  C   UNL     1       0.002  -0.004   0.002  0.00  0.00    +0.009 A 
ATOM     32  C   UNL     1       1.530  -2.136  -0.025  0.00  0.00    -0.011 A 
ATOM     33  C   UNL     1       0.694  -3.254  -0.023  0.00  0.00    +0.009 A 
ATOM     34  C   UNL     1       1.238  -4.521  -0.035  0.00  0.00    +0.001 A 
ATOM     35  C   UNL     1       2.611  -4.690  -0.050  0.00  0.00    +0.000 A 
ATOM     36  C   UNL     1       3.445  -3.587  -0.052  0.00  0.00    +0.008 A 
ATOM     37  C   UNL     1       2.910  -2.316  -0.040  0.00  0.00    +0.005 A 
ATOM     38  C   UNL     1       3.547  -0.948  -0.038  0.00  0.00    +0.195 C 
BRANCH  38  39
ATOM     39  O   UNL     1       4.359  -0.785   1.126  0.00  0.00    -0.371 OA
ATOM     40  H   UNL     1       5.108  -1.394   1.172  0.00  0.00    +0.212 HD
ENDBRANCH  38  39
ENDBRANCH  22  38
ENDBRANCH   1  24
TORSDOF 3
