REMARK  Name = ZINC05951308
REMARK  10 active torsions:
REMARK  status: ('A' for Active; 'I' for Inactive)
REMARK    1  A    between atoms: C_1  and  C_2
REMARK    2  A    between atoms: C_2  and  C_3
REMARK    3  A    between atoms: C_3  and  C_4
REMARK    4  A    between atoms: C_4  and  C_5
REMARK    5  A    between atoms: C_5  and  C_6
REMARK    6  A    between atoms: C_6  and  C_7
REMARK    7  A    between atoms: C_11  and  C_19
REMARK    8  A    between atoms: C_17  and  O_18
REMARK    9  A    between atoms: N_20  and  N_21
REMARK   10  A    between atoms: C_22  and  C_24
REMARK                            x       y       z     vdW  Elec       q    Type
REMARK                         _______ _______ _______ _____ _____    ______ ____
ROOT
ATOM      1  C   UNL     1       0.814   5.062  -0.750  0.00  0.00    -0.005 A 
ATOM      2  C   UNL     1      -0.137   4.108  -0.533  0.00  0.00    +0.018 A 
ATOM      3  C   UNL     1       0.219   2.751  -0.536  0.00  0.00    +0.019 A 
ATOM      4  C   UNL     1      -0.765   1.756  -0.310  0.00  0.00    +0.030 A 
ATOM      5  C   UNL     1      -0.383   0.428  -0.318  0.00  0.00    +0.099 A 
ATOM      6  C   UNL     1       1.026   0.098  -0.559  0.00  0.00    +0.348 A 
ATOM      7  O   UNL     1       1.384  -1.065  -0.570  0.00  0.00    -0.244 OA
ATOM      8  O   UNL     1       1.922   1.077  -0.767  0.00  0.00    -0.422 OA
ATOM      9  C   UNL     1       1.557   2.378  -0.761  0.00  0.00    +0.143 A 
ATOM     10  C   UNL     1       2.510   3.363  -0.980  0.00  0.00    +0.092 A 
ATOM     11  C   UNL     1       2.140   4.697  -0.974  0.00  0.00    +0.124 A 
ENDROOT
BRANCH   5  12
ATOM     12  C   UNL     1      -1.374  -0.639  -0.087  0.00  0.00    +0.121 C 
ATOM     13  N   UNL     1      -2.099  -0.634   0.998  0.00  0.00    -0.291 N 
ATOM     14  N   UNL     1      -1.537  -1.652  -1.026  0.00  0.00    -0.343 N 
ATOM     15  H   UNL     1      -2.276  -2.448  -0.854  0.00  0.00    +0.144 HD
ATOM     16  H   UNL     1      -0.926  -1.657  -1.941  0.00  0.00    +0.144 HD
ATOM     17  H   UNL     1      -2.900  -1.376   1.129  0.00  0.00    +0.186 HD
BRANCH  13  18
ATOM     18  N   UNL     1      -1.857   0.319   1.997  0.00  0.00    -0.224 N 
ATOM     19  C   UNL     1      -2.671   0.393   3.069  0.00  0.00    +0.268 C 
ATOM     20  O   UNL     1      -3.616  -0.368   3.169  0.00  0.00    -0.268 OA
ATOM     21  H   UNL     1      -1.003   1.006   1.906  0.00  0.00    +0.175 HD
BRANCH  19  22
ATOM     22  C   UNL     1      -2.417   1.389   4.114  0.00  0.00    +0.075 A 
ATOM     23  C   UNL     1      -3.127   1.633   5.279  0.00  0.00    +0.021 A 
ATOM     24  C   UNL     1      -2.665   2.637   6.094  0.00  0.00    +0.008 A 
ATOM     25  C   UNL     1      -1.562   3.337   5.723  0.00  0.00    +0.046 A 
ATOM     26  S   UNL     1      -1.120   2.610   4.213  0.00  0.00    -0.092 S 
ENDBRANCH  19  22
ENDBRANCH  13  18
ENDBRANCH   5  12
BRANCH  11  27
ATOM     27  O   UNL     1       3.075   5.657  -1.189  0.00  0.00    -0.506 OA
ATOM     28  H   UNL     1       4.123   5.374  -1.366  0.00  0.00    +0.292 HD
ENDBRANCH  11  27
BRANCH   1  29
ATOM     29  C   UNL     1       0.427   6.518  -0.747  0.00  0.00    +0.039 C 
BRANCH  29  30
ATOM     30  C   UNL     1       0.788   7.139   0.604  0.00  0.00    +0.005 C 
BRANCH  30  31
ATOM     31  C   UNL     1       0.396   8.618   0.607  0.00  0.00    +0.000 C 
BRANCH  31  32
ATOM     32  C   UNL     1       0.757   9.239   1.958  0.00  0.00    -0.000 C 
BRANCH  32  34
ATOM     33  C   UNL     1       0.726  11.339   3.311  0.00  0.00    +0.004 C 
ATOM     34  C   UNL     1       0.365  10.718   1.960  0.00  0.00    -0.003 C 
ENDBRANCH  32  34
ENDBRANCH  31  32
ENDBRANCH  30  31
ENDBRANCH  29  30
ENDBRANCH   1  29
TORSDOF 9
