REMARK  Name = ZINC41081060
REMARK  4 active torsions:
REMARK  status: ('A' for Active; 'I' for Inactive)
REMARK    1  A    between atoms: C_6  and  O_7
REMARK    2  A    between atoms: O_7  and  C_8
REMARK    3  A    between atoms: C_11  and  N_17
REMARK    4  A    between atoms: C_12  and  C_14
REMARK                            x       y       z     vdW  Elec       q    Type
REMARK                         _______ _______ _______ _____ _____    ______ ____
ROOT
ATOM      1  C   UNL     1      -2.324  -0.010   0.244  0.00  0.00    +0.129 A 
ATOM      2  C   UNL     1      -2.738   0.652  -0.907  0.00  0.00    +0.048 A 
ATOM      3  C   UNL     1      -3.916   1.371  -0.912  0.00  0.00    +0.027 A 
ATOM      4  C   UNL     1      -4.697   1.438   0.235  0.00  0.00    +0.037 A 
ATOM      5  C   UNL     1      -4.284   0.772   1.399  0.00  0.00    +0.061 A 
ATOM      6  C   UNL     1      -3.092   0.042   1.392  0.00  0.00    +0.061 A 
ENDROOT
BRANCH   5   7
ATOM      7  C   UNL     1      -5.106   0.837   2.621  0.00  0.00    +0.243 C 
ATOM      8  O   UNL     1      -6.081   1.562   2.660  0.00  0.00    -0.270 OA
ATOM      9  N   UNL     1      -4.776   0.093   3.696  0.00  0.00    -0.325 N 
ATOM     10  H   UNL     1      -3.997  -0.485   3.664  0.00  0.00    +0.145 HD
ATOM     11  H   UNL     1      -5.316   0.136   4.500  0.00  0.00    +0.145 HD
ENDBRANCH   5   7
BRANCH   4  12
ATOM     12  N   UNL     1      -5.883   2.163   0.230  0.00  0.00    -0.357 N 
ATOM     13  H   UNL     1      -6.209   2.555  -0.596  0.00  0.00    +0.142 HD
ATOM     14  H   UNL     1      -6.386   2.277   1.052  0.00  0.00    +0.142 HD
ENDBRANCH   4  12
BRANCH   1  15
ATOM     15  O   UNL     1      -1.162  -0.716   0.238  0.00  0.00    -0.456 OA
BRANCH  15  21
ATOM     16  C   UNL     1      -0.006   1.363   0.277  0.00  0.00    +0.046 A 
ATOM     17  C   UNL     1       1.183   2.062   0.343  0.00  0.00    +0.007 A 
ATOM     18  C   UNL     1       2.387   1.384   0.436  0.00  0.00    -0.044 A 
ATOM     19  C   UNL     1       2.401   0.001   0.462  0.00  0.00    -0.041 A 
ATOM     20  C   UNL     1       1.212  -0.702   0.396  0.00  0.00    +0.050 A 
ATOM     21  C   UNL     1       0.005  -0.024   0.303  0.00  0.00    +0.129 A 
ATOM     22  C   UNL     1       3.828  -0.494   0.565  0.00  0.00    +0.036 C 
ATOM     23  C   UNL     1       4.704   0.710   0.159  0.00  0.00    +0.009 C 
ATOM     24  C   UNL     1       3.804   1.911   0.519  0.00  0.00    +0.036 C 
ENDBRANCH  15  21
ENDBRANCH   1  15
TORSDOF 4
