REMARK  Name = ZINC01076878
REMARK  11 active torsions:
REMARK  status: ('A' for Active; 'I' for Inactive)
REMARK    1  A    between atoms: C_1  and  C_2
REMARK    2  A    between atoms: C_9  and  N_40
REMARK    3  A    between atoms: C_10  and  C_38
REMARK    4  A    between atoms: C_14  and  O_27
REMARK    5  A    between atoms: C_21  and  C_25
REMARK    6  A    between atoms: C_21  and  C_26
REMARK    7  A    between atoms: C_23  and  C_24
REMARK    8  A    between atoms: O_27  and  C_28
REMARK    9  A    between atoms: C_28  and  C_30
REMARK   10  A    between atoms: C_35  and  O_36
REMARK   11  A    between atoms: O_36  and  C_37
REMARK                            x       y       z     vdW  Elec       q    Type
REMARK                         _______ _______ _______ _____ _____    ______ ____
ROOT
ATOM      1  C   UNL     1       0.072   1.183  -0.022  0.00  0.00    +0.068 C 
ATOM      2  C   UNL     1       0.075  -0.319  -0.147  0.00  0.00    +0.068 A 
ATOM      3  C   UNL     1       0.046  -1.037  -1.335  0.00  0.00    +0.061 A 
ATOM      4  C   UNL     1       0.059  -2.370  -1.024  0.00  0.00    +0.223 A 
ATOM      5  N   UNL     1       0.097  -2.473   0.314  0.00  0.00    -0.246 N 
ATOM      6  H   UNL     1       0.114  -3.299   0.823  0.00  0.00    +0.192 HD
ATOM      7  N   UNL     1       0.111  -1.174   0.846  0.00  0.00    -0.176 NA
ATOM      8  O   UNL     1       0.035  -3.341  -1.970  0.00  0.00    -0.423 OA
ATOM      9  C   UNL     1       0.265  -2.983  -3.250  0.00  0.00    +0.201 C 
ATOM     10  C   UNL     1       0.267  -1.700  -3.682  0.00  0.00    +0.110 C 
ATOM     11  C   UNL     1       0.006  -0.545  -2.754  0.00  0.00    +0.145 C 
ATOM     12  C   UNL     1      -1.292   0.121  -3.066  0.00  0.00    +0.003 A 
ATOM     13  C   UNL     1      -2.612  -0.278  -3.078  0.00  0.00    +0.053 A 
ATOM     14  C   UNL     1      -3.570   0.676  -3.438  0.00  0.00    +0.133 A 
ATOM     15  C   UNL     1      -3.233   1.982  -3.776  0.00  0.00    +0.056 A 
ATOM     16  C   UNL     1      -1.910   2.388  -3.768  0.00  0.00    +0.003 A 
ATOM     17  C   UNL     1      -0.952   1.422  -3.402  0.00  0.00    +0.050 A 
ATOM     18  N   UNL     1       0.416   1.655  -3.338  0.00  0.00    -0.260 N 
ATOM     19  C   UNL     1       1.057   0.532  -2.960  0.00  0.00    +0.241 C 
ATOM     20  O   UNL     1       2.254   0.405  -2.810  0.00  0.00    -0.273 OA
ATOM     21  C   UNL     1       0.985   2.970  -3.656  0.00  0.00    +0.055 C 
ATOM     22  C   UNL     1      -0.082   3.952  -4.038  0.00  0.00    +0.002 C 
ATOM     23  C   UNL     1      -1.383   3.719  -4.097  0.00  0.00    -0.043 C 
ATOM     24  C   UNL     1      -2.326   4.822  -4.503  0.00  0.00    +0.044 C 
ATOM     25  C   UNL     1       1.968   2.823  -4.818  0.00  0.00    +0.036 C 
ATOM     26  C   UNL     1       1.735   3.500  -2.432  0.00  0.00    +0.036 C 
ENDROOT
BRANCH   9  27
ATOM     27  N   UNL     1       0.511  -3.975  -4.165  0.00  0.00    -0.328 N 
ATOM     28  H   UNL     1       0.516  -4.904  -3.885  0.00  0.00    +0.145 HD
ATOM     29  H   UNL     1       0.680  -3.748  -5.093  0.00  0.00    +0.145 HD
ENDBRANCH   9  27
BRANCH  10  30
ATOM     30  C   UNL     1       0.526  -1.434  -5.065  0.00  0.00    +0.102 C 
ATOM     31  N   UNL     1       0.732  -1.223  -6.162  0.00  0.00    -0.191 NA
ENDBRANCH  10  30
BRANCH  14  32
ATOM     32  O   UNL     1      -4.879   0.313  -3.459  0.00  0.00    -0.422 OA
BRANCH  32  33
ATOM     33  C   UNL     1      -5.483   0.056  -2.282  0.00  0.00    +0.348 C 
ATOM     34  O   UNL     1      -4.891   0.253  -1.239  0.00  0.00    -0.244 OA
BRANCH  33  35
ATOM     35  C   UNL     1      -6.862  -0.464  -2.259  0.00  0.00    +0.101 A 
ATOM     36  C   UNL     1      -7.545  -0.698  -3.456  0.00  0.00    +0.018 A 
ATOM     37  C   UNL     1      -8.834  -1.184  -3.428  0.00  0.00    +0.001 A 
ATOM     38  C   UNL     1      -9.457  -1.443  -2.217  0.00  0.00    +0.004 A 
ATOM     39  C   UNL     1      -8.794  -1.217  -1.028  0.00  0.00    +0.046 A 
ATOM     40  C   UNL     1      -7.495  -0.733  -1.037  0.00  0.00    +0.134 A 
BRANCH  40  41
ATOM     41  O   UNL     1      -6.840  -0.516   0.131  0.00  0.00    -0.494 OA
ATOM     42  C   UNL     1      -7.548  -0.813   1.336  0.00  0.00    +0.277 C 
ENDBRANCH  40  41
ENDBRANCH  33  35
ENDBRANCH  32  33
ENDBRANCH  14  32
TORSDOF 6
