REMARK  Name = ZINC63822386
REMARK  4 active torsions:
REMARK  status: ('A' for Active; 'I' for Inactive)
REMARK    1  A    between atoms: C_1  and  C_2
REMARK    2  A    between atoms: C_2  and  C_3
REMARK    3  A    between atoms: C_7  and  N_10
REMARK    4  A    between atoms: C_11  and  C_13
REMARK                            x       y       z     vdW  Elec       q    Type
REMARK                         _______ _______ _______ _____ _____    ______ ____
ROOT
ATOM      1  N   UNL     1       4.174  -2.325  -1.483  0.00  0.00    -0.286 N 
ATOM      2  C   UNL     1       5.439  -1.897  -1.664  0.00  0.00    +0.247 C 
ATOM      3  O   UNL     1       5.669  -0.992  -2.441  0.00  0.00    -0.270 OA
ATOM      4  H   UNL     1       3.998  -3.094  -0.920  0.00  0.00    +0.151 HD
ENDROOT
BRANCH   2   5
ATOM      5  C   UNL     1       6.550  -2.531  -0.914  0.00  0.00    +0.051 A 
ATOM      6  C   UNL     1       6.328  -3.629  -0.133  0.00  0.00    +0.083 A 
ATOM      7  C   UNL     1       7.443  -4.232   0.594  0.00  0.00    +0.250 A 
ATOM      8  O   UNL     1       7.246  -5.211   1.291  0.00  0.00    -0.268 OA
ATOM      9  N   UNL     1       8.684  -3.722   0.504  0.00  0.00    -0.322 N 
ATOM     10  H   UNL     1       9.407  -4.141   0.997  0.00  0.00    +0.169 HD
ATOM     11  C   UNL     1       8.950  -2.615  -0.274  0.00  0.00    +0.050 A 
ATOM     12  C   UNL     1       7.918  -1.996  -1.001  0.00  0.00    +0.011 A 
ATOM     13  C   UNL     1       8.197  -0.878  -1.792  0.00  0.00    +0.011 A 
ATOM     14  C   UNL     1       9.474  -0.396  -1.859  0.00  0.00    +0.001 A 
ATOM     15  C   UNL     1      10.497  -1.007  -1.148  0.00  0.00    +0.002 A 
ATOM     16  C   UNL     1      10.242  -2.103  -0.353  0.00  0.00    +0.026 A 
ENDBRANCH   2   5
BRANCH   1  20
ATOM     17  C   UNL     1       0.737  -0.443  -1.233  0.00  0.00    +0.129 C 
ATOM     18  N   UNL     1       0.761  -1.938  -1.273  0.00  0.00    -0.241 NA
ATOM     19  N   UNL     1       1.830  -2.447  -2.106  0.00  0.00    -0.227 NA
ATOM     20  C   UNL     1       3.064  -1.626  -2.138  0.00  0.00    +0.217 C 
ATOM     21  S   UNL     1       2.559  -0.137  -1.172  0.00  0.00    -0.102 S 
ATOM     22  H   UNL     1      -0.132  -2.306  -1.565  0.00  0.00    +0.142 HD
ATOM     23  H   UNL     1       1.500  -2.640  -3.040  0.00  0.00    +0.143 HD
BRANCH  17  25
ATOM     24  C   UNL     1       0.032   1.604   0.013  0.00  0.00    +0.006 C 
ATOM     25  C   UNL     1       0.037   0.074   0.025  0.00  0.00    +0.027 C 
ENDBRANCH  17  25
ENDBRANCH   1  20
TORSDOF 3
