REMARK  Name = ZINC11898315
REMARK  9 active torsions:
REMARK  status: ('A' for Active; 'I' for Inactive)
REMARK    1  A    between atoms: C_1  and  C_2
REMARK    2  A    between atoms: C_5  and  N_11
REMARK    3  A    between atoms: C_6  and  N_8
REMARK    4  A    between atoms: C_12  and  C_14
REMARK    5  A    between atoms: N_16  and  C_17
REMARK    6  A    between atoms: C_17  and  C_18
REMARK    7  A    between atoms: C_18  and  C_20
REMARK    8  A    between atoms: C_18  and  N_54
REMARK    9  A    between atoms: N_24  and  C_25
REMARK                            x       y       z     vdW  Elec       q    Type
REMARK                         _______ _______ _______ _____ _____    ______ ____
ROOT
ATOM      1  C   UNL     1       3.323   1.033  -1.957  0.00  0.00    +0.299 C 
ATOM      2  O   UNL     1       3.758   1.600  -2.938  0.00  0.00    -0.265 OA
ATOM      3  N   UNL     1       2.008   0.749  -1.871  0.00  0.00    -0.309 N 
ATOM      4  H   UNL     1       1.660   0.296  -1.087  0.00  0.00    +0.149 HD
ENDROOT
BRANCH   1   6
ATOM      5  N   UNL     1       5.559   0.933  -0.932  0.00  0.00    -0.276 N 
ATOM      6  C   UNL     1       4.244   0.649  -0.846  0.00  0.00    +0.303 C 
ATOM      7  O   UNL     1       3.809   0.082   0.135  0.00  0.00    -0.265 OA
ATOM      8  H   UNL     1       5.895   1.449  -1.682  0.00  0.00    +0.155 HD
BRANCH   5  13
ATOM      9  C   UNL     1       9.122  -0.891   3.085  0.00  0.00    +0.044 C 
ATOM     10  C   UNL     1       8.175  -0.406   2.017  0.00  0.00    -0.048 A 
ATOM     11  C   UNL     1       6.884  -0.042   2.354  0.00  0.00    +0.005 A 
ATOM     12  C   UNL     1       6.014   0.403   1.379  0.00  0.00    +0.026 A 
ATOM     13  C   UNL     1       6.437   0.484   0.057  0.00  0.00    +0.064 A 
ATOM     14  C   UNL     1       7.732   0.112  -0.278  0.00  0.00    +0.148 A 
ATOM     15  C   UNL     1       8.599  -0.327   0.704  0.00  0.00    +0.038 A 
BRANCH  14  16
ATOM     16  N   UNL     1       8.185   0.191  -1.685  0.00  0.00    +0.058 N 
ATOM     17  O   UNL     1       9.297  -0.202  -1.990  0.00  0.00    -0.126 OA
ATOM     18  O   UNL     1       7.446   0.649  -2.538  0.00  0.00    -0.126 OA
ENDBRANCH  14  16
ENDBRANCH   5  13
ENDBRANCH   1   6
BRANCH   3  19
ATOM     19  C   UNL     1       1.104   1.125  -2.961  0.00  0.00    +0.095 C 
BRANCH  19  20
ATOM     20  C   UNL     1      -0.298   0.586  -2.670  0.00  0.00    -0.003 C 
BRANCH  20  21
ATOM     21  C   UNL     1      -1.260   1.101  -3.709  0.00  0.00    +0.006 A 
ATOM     22  C   UNL     1      -2.325   1.895  -3.476  0.00  0.00    +0.021 A 
ATOM     23  C   UNL     1      -2.949   2.138  -4.716  0.00  0.00    +0.019 A 
ATOM     24  C   UNL     1      -2.241   1.484  -5.659  0.00  0.00    +0.085 A 
ATOM     25  N   UNL     1      -1.200   0.851  -5.048  0.00  0.00    -0.355 N 
ATOM     26  C   UNL     1      -0.187   0.032  -5.718  0.00  0.00    +0.148 C 
ENDBRANCH  20  21
BRANCH  20  31
ATOM     27  C   UNL     1      -2.121   0.600  -1.055  0.00  0.00    -0.078 C 
ATOM     28  C   UNL     1      -2.609   1.550   0.059  0.00  0.00    -0.020 C 
ATOM     29  C   UNL     1      -1.730   2.814  -0.083  0.00  0.00    -0.020 C 
ATOM     30  C   UNL     1      -0.788   2.517  -1.270  0.00  0.00    -0.078 C 
ATOM     31  N   UNL     1      -0.753   1.057  -1.324  0.00  0.00    +0.386 N 
ATOM     32  H   UNL     1      -0.114   0.696  -0.606  0.00  0.00    -0.081 HD
ENDBRANCH  20  31
ENDBRANCH  19  20
ENDBRANCH   3  19
TORSDOF 7
