REMARK  Name = ZINC08781320
REMARK  6 active torsions:
REMARK  status: ('A' for Active; 'I' for Inactive)
REMARK    1  A    between atoms: C_1  and  C_2
REMARK    2  A    between atoms: C_4  and  C_32
REMARK    3  A    between atoms: C_7  and  N_22
REMARK    4  A    between atoms: C_9  and  N_12
REMARK    5  A    between atoms: C_13  and  C_15
REMARK    6  A    between atoms: C_23  and  C_25
REMARK                            x       y       z     vdW  Elec       q    Type
REMARK                         _______ _______ _______ _____ _____    ______ ____
ROOT
ATOM      1  C   UNL     1      -2.563   0.770   3.402  0.00  0.00    +0.040 C 
ATOM      2  C   UNL     1      -2.015   0.538   1.992  0.00  0.00    +0.146 C 
ATOM      3  C   UNL     1      -3.043  -0.239   1.165  0.00  0.00    +0.146 C 
ATOM      4  O   UNL     1      -2.571  -0.356  -0.180  0.00  0.00    -0.349 OA
ATOM      5  C   UNL     1      -2.317   0.903  -0.810  0.00  0.00    +0.254 C 
ATOM      6  C   UNL     1      -1.290   1.681   0.017  0.00  0.00    +0.254 C 
ATOM      7  O   UNL     1      -1.762   1.798   1.363  0.00  0.00    -0.349 OA
ATOM      8  C   UNL     1      -3.233  -1.635   1.763  0.00  0.00    +0.040 C 
ENDROOT
BRANCH   6   9
ATOM      9  N   UNL     1      -0.011   0.966   0.007  0.00  0.00    -0.283 N 
ATOM     10  C   UNL     1       1.147   1.655   0.000  0.00  0.00    +0.246 C 
ATOM     11  O   UNL     1       1.130   2.871   0.007  0.00  0.00    -0.270 OA
ATOM     12  H   UNL     1       0.002  -0.004   0.002  0.00  0.00    +0.152 HD
BRANCH  10  13
ATOM     13  C   UNL     1       2.437   0.934  -0.016  0.00  0.00    +0.037 A 
ATOM     14  C   UNL     1       2.459  -0.462  -0.018  0.00  0.00    +0.014 A 
ATOM     15  C   UNL     1       3.666  -1.129  -0.038  0.00  0.00    +0.016 A 
ATOM     16  C   UNL     1       4.854  -0.418  -0.046  0.00  0.00    +0.018 A 
ATOM     17  C   UNL     1       4.838   0.967  -0.038  0.00  0.00    +0.016 A 
ATOM     18  C   UNL     1       3.638   1.646  -0.024  0.00  0.00    +0.014 A 
ATOM     19 BR   UNL     1       6.504  -1.341  -0.066  0.00  0.00    -0.050 Br
ENDBRANCH  10  13
ENDBRANCH   6   9
BRANCH   5  20
ATOM     20  N   UNL     1      -1.793   0.681  -2.159  0.00  0.00    -0.283 N 
ATOM     21  C   UNL     1      -2.608   0.792  -3.227  0.00  0.00    +0.246 C 
ATOM     22  O   UNL     1      -3.780   1.076  -3.069  0.00  0.00    -0.270 OA
ATOM     23  H   UNL     1      -0.858   0.455  -2.285  0.00  0.00    +0.152 HD
BRANCH  21  24
ATOM     24  C   UNL     1      -2.079   0.567  -4.588  0.00  0.00    +0.037 A 
ATOM     25  C   UNL     1      -0.733   0.247  -4.772  0.00  0.00    +0.014 A 
ATOM     26  C   UNL     1      -0.246   0.033  -6.045  0.00  0.00    +0.016 A 
ATOM     27  C   UNL     1      -1.087   0.147  -7.139  0.00  0.00    +0.018 A 
ATOM     28  C   UNL     1      -2.422   0.470  -6.963  0.00  0.00    +0.016 A 
ATOM     29  C   UNL     1      -2.922   0.681  -5.695  0.00  0.00    +0.014 A 
ATOM     30 BR   UNL     1      -0.409  -0.141  -8.881  0.00  0.00    -0.050 Br
ENDBRANCH  21  24
ENDBRANCH   5  20
TORSDOF 4
