REMARK  Name = ZINC14643054
REMARK  11 active torsions:
REMARK  status: ('A' for Active; 'I' for Inactive)
REMARK    1  A    between atoms: C_1  and  C_2
REMARK    2  A    between atoms: C_2  and  C_3
REMARK    3  A    between atoms: N_5  and  C_6
REMARK    4  A    between atoms: C_9  and  C_12
REMARK    5  A    between atoms: N_14  and  N_15
REMARK    6  A    between atoms: C_16  and  C_18
REMARK    7  A    between atoms: C_18  and  C_20
REMARK    8  A    between atoms: C_18  and  O_21
REMARK    9  A    between atoms: O_21  and  C_22
REMARK   10  A    between atoms: C_23  and  C_30
REMARK   11  A    between atoms: C_27  and  C_28
REMARK                            x       y       z     vdW  Elec       q    Type
REMARK                         _______ _______ _______ _____ _____    ______ ____
ROOT
ATOM      1  C   UNL     1      -6.008   3.352   1.239  0.00  0.00    +0.260 C 
ATOM      2  O   UNL     1      -6.964   3.117   1.952  0.00  0.00    -0.269 OA
ATOM      3  N   UNL     1      -5.890   4.555   0.644  0.00  0.00    -0.230 N 
ATOM      4  H   UNL     1      -5.127   4.742   0.075  0.00  0.00    +0.173 HD
ENDROOT
BRANCH   1   8
ATOM      5  C   UNL     1      -3.039   0.378   0.622  0.00  0.00    +0.033 A 
ATOM      6  C   UNL     1      -2.913   1.622   0.011  0.00  0.00    +0.024 A 
ATOM      7  C   UNL     1      -3.877   2.586   0.205  0.00  0.00    +0.015 A 
ATOM      8  C   UNL     1      -4.976   2.318   1.025  0.00  0.00    +0.038 A 
ATOM      9  C   UNL     1      -5.097   1.070   1.641  0.00  0.00    +0.015 A 
ATOM     10  C   UNL     1      -4.133   0.108   1.438  0.00  0.00    +0.024 A 
BRANCH   5  13
ATOM     11  C   UNL     1      -0.770  -0.244   0.301  0.00  0.00    +0.217 C 
ATOM     12  O   UNL     1      -0.461   0.928   0.292  0.00  0.00    -0.275 OA
ATOM     13  N   UNL     1      -2.065  -0.599   0.419  0.00  0.00    -0.286 N 
ATOM     14  H   UNL     1      -2.319  -1.533   0.359  0.00  0.00    +0.155 HD
BRANCH  11  16
ATOM     15  C   UNL     1       1.666  -0.639   0.060  0.00  0.00    +0.013 C 
ATOM     16  C   UNL     1       0.294  -1.305   0.180  0.00  0.00    +0.093 C 
ENDBRANCH  11  16
ENDBRANCH   5  13
ENDBRANCH   1   8
BRANCH   3  17
ATOM     17  N   UNL     1      -6.869   5.536   0.848  0.00  0.00    -0.231 N 
ATOM     18  C   UNL     1      -6.751   6.740   0.253  0.00  0.00    +0.270 C 
ATOM     19  O   UNL     1      -5.797   6.974  -0.459  0.00  0.00    -0.270 OA
ATOM     20  H   UNL     1      -7.632   5.349   1.417  0.00  0.00    +0.173 HD
BRANCH  18  21
ATOM     21  C   UNL     1      -7.805   7.795   0.471  0.00  0.00    +0.257 C 
ATOM     22  C   UNL     1      -7.807   8.216   1.942  0.00  0.00    +0.062 C 
BRANCH  21  23
ATOM     23  O   UNL     1      -7.520   8.930  -0.349  0.00  0.00    -0.479 OA
BRANCH  23  24
ATOM     24  C   UNL     1      -8.573   9.709  -0.712  0.00  0.00    +0.127 A 
ATOM     25  C   UNL     1      -9.364   9.348  -1.792  0.00  0.00    -0.007 A 
ATOM     26  C   UNL     1     -10.437  10.138  -2.156  0.00  0.00    +0.022 A 
ATOM     27  C   UNL     1     -10.716  11.295  -1.450  0.00  0.00    +0.019 A 
ATOM     28  C   UNL     1      -9.925  11.660  -0.375  0.00  0.00    +0.022 A 
ATOM     29  C   UNL     1      -8.854  10.869  -0.005  0.00  0.00    -0.007 A 
ATOM     30  C   UNL     1      -7.992  11.267   1.165  0.00  0.00    +0.047 C 
ATOM     31 BR   UNL     1     -12.181  12.379  -1.955  0.00  0.00    -0.050 Br
ATOM     32  C   UNL     1      -9.057   8.091  -2.565  0.00  0.00    +0.047 C 
ENDBRANCH  23  24
ENDBRANCH  21  23
ENDBRANCH  18  21
ENDBRANCH   3  17
TORSDOF 7
