REMARK  Name = ZINC62038488
REMARK  9 active torsions:
REMARK  status: ('A' for Active; 'I' for Inactive)
REMARK    1  A    between atoms: C_1  and  C_2
REMARK    2  A    between atoms: C_2  and  C_3
REMARK    3  A    between atoms: C_4  and  C_26
REMARK    4  A    between atoms: C_9  and  S_13
REMARK    5  A    between atoms: S_13  and  C_14
REMARK    6  A    between atoms: C_14  and  C_15
REMARK    7  A    between atoms: N_17  and  C_18
REMARK    8  A    between atoms: C_20  and  C_25
REMARK    9  A    between atoms: C_23  and  O_24
REMARK                            x       y       z     vdW  Elec       q    Type
REMARK                         _______ _______ _______ _____ _____    ______ ____
ROOT
ATOM      1  C   UNL     1       0.717  -0.412  -1.264  0.00  0.00    +0.000 A 
ATOM      2  C   UNL     1       2.035  -0.686  -1.430  0.00  0.00    +0.013 A 
ATOM      3  C   UNL     1       2.493  -1.162  -2.732  0.00  0.00    +0.080 A 
ATOM      4  C   UNL     1       3.857  -1.528  -3.174  0.00  0.00    +0.283 A 
ATOM      5  O   UNL     1       4.798  -1.450  -2.398  0.00  0.00    -0.265 OA
ATOM      6  N   UNL     1       4.050  -1.946  -4.428  0.00  0.00    -0.185 NA
ATOM      7  C   UNL     1       3.066  -2.046  -5.296  0.00  0.00    +0.171 A 
ATOM      8  N   UNL     1       1.785  -1.726  -4.958  0.00  0.00    -0.328 N 
ATOM      9  C   UNL     1       1.496  -1.290  -3.700  0.00  0.00    +0.093 A 
ATOM     10  S   UNL     1       0.018  -0.791  -2.860  0.00  0.00    -0.075 S 
ATOM     11  H   UNL     1       1.077  -1.807  -5.616  0.00  0.00    +0.168 HD
ENDROOT
BRANCH   2  12
ATOM     12  C   UNL     1       2.989  -0.504  -0.316  0.00  0.00    +0.021 A 
ATOM     13  C   UNL     1       3.732  -1.446   0.345  0.00  0.00    +0.016 A 
ATOM     14  C   UNL     1       4.564  -1.035   1.365  0.00  0.00    +0.008 A 
ATOM     15  C   UNL     1       4.622   0.283   1.681  0.00  0.00    +0.046 A 
ATOM     16  S   UNL     1       3.478   0.999   0.513  0.00  0.00    -0.097 S 
ENDBRANCH   2  12
BRANCH   1  18
ATOM     17  C   UNL     1      -0.002   1.616  -0.031  0.00  0.00    +0.009 C 
ATOM     18  C   UNL     1       0.013   0.086  -0.029  0.00  0.00    +0.040 C 
ENDBRANCH   1  18
BRANCH   7  19
ATOM     19  S   UNL     1       3.412  -2.606  -6.931  0.00  0.00    -0.078 S 
BRANCH  19  20
ATOM     20  C   UNL     1       5.201  -2.905  -6.923  0.00  0.00    +0.173 C 
BRANCH  20  21
ATOM     21  C   UNL     1       5.634  -3.395  -8.281  0.00  0.00    +0.228 C 
ATOM     22  O   UNL     1       4.817  -3.528  -9.167  0.00  0.00    -0.275 OA
ATOM     23  N   UNL     1       6.931  -3.684  -8.511  0.00  0.00    -0.282 N 
ATOM     24  H   UNL     1       7.594  -3.517  -7.824  0.00  0.00    +0.155 HD
BRANCH  23  25
ATOM     25  C   UNL     1       7.319  -4.227  -9.743  0.00  0.00    +0.076 A 
ATOM     26  C   UNL     1       6.670  -3.844 -10.908  0.00  0.00    +0.030 A 
ATOM     27  C   UNL     1       7.056  -4.381 -12.121  0.00  0.00    -0.048 A 
ATOM     28  C   UNL     1       8.088  -5.300 -12.178  0.00  0.00    +0.007 A 
ATOM     29  C   UNL     1       8.739  -5.687 -11.022  0.00  0.00    +0.047 A 
ATOM     30  C   UNL     1       8.362  -5.149  -9.802  0.00  0.00    +0.138 A 
ATOM     31  C   UNL     1       6.350  -3.964 -13.386  0.00  0.00    +0.044 C 
BRANCH  30  32
ATOM     32  O   UNL     1       9.005  -5.524  -8.664  0.00  0.00    -0.505 OA
ATOM     33  H   UNL     1       8.614  -6.292  -8.226  0.00  0.00    +0.292 HD
ENDBRANCH  30  32
ENDBRANCH  23  25
ENDBRANCH  20  21
ENDBRANCH  19  20
ENDBRANCH   7  19
TORSDOF 7
