REMARK  Name = ZINC65330196
REMARK  5 active torsions:
REMARK  status: ('A' for Active; 'I' for Inactive)
REMARK    1  A    between atoms: C_7  and  C_10
REMARK    2  A    between atoms: C_10  and  C_11
REMARK    3  A    between atoms: C_11  and  N_12
REMARK    4  A    between atoms: C_13  and  C_15
REMARK    5  A    between atoms: C_17  and  N_22
REMARK                            x       y       z     vdW  Elec       q    Type
REMARK                         _______ _______ _______ _____ _____    ______ ____
ROOT
ATOM      1  C   UNL     1      -1.763  -6.552  -2.614  0.00  0.00    +0.187 C 
ATOM      2  C   UNL     1      -0.977  -7.822  -2.199  0.00  0.00    +0.176 C 
ATOM      3  S   UNL     1      -1.757  -9.058  -3.328  0.00  0.00    -0.041 S 
ATOM      4  N   UNL     1      -2.146  -7.915  -4.659  0.00  0.00    -0.198 NA
ATOM      5  N   UNL     1      -2.379  -6.668  -3.931  0.00  0.00    -0.232 NA
ATOM      6  H   UNL     1      -1.367  -7.821  -5.294  0.00  0.00    +0.154 HD
ATOM      7  H   UNL     1      -2.158  -5.868  -4.505  0.00  0.00    +0.142 HD
ENDROOT
BRANCH   2   8
ATOM      8  N   UNL     1      -1.212  -8.159  -0.793  0.00  0.00    -0.284 N 
ATOM      9  C   UNL     1      -1.461  -9.435  -0.439  0.00  0.00    +0.303 C 
ATOM     10  O   UNL     1      -1.570 -10.293  -1.294  0.00  0.00    -0.253 OA
ATOM     11  N   UNL     1      -1.589  -9.761   0.863  0.00  0.00    -0.286 N 
ATOM     12  C   UNL     1      -1.744 -11.163   1.272  0.00  0.00    +0.109 C 
ATOM     13  C   UNL     1      -0.677 -11.492   2.321  0.00  0.00    +0.019 C 
ATOM     14  C   UNL     1      -0.773 -10.487   3.472  0.00  0.00    +0.003 C 
ATOM     15  C   UNL     1      -0.511  -9.076   2.942  0.00  0.00    +0.019 C 
ATOM     16  C   UNL     1      -1.569  -8.720   1.900  0.00  0.00    +0.109 C 
ATOM     17  H   UNL     1      -1.189  -7.464  -0.117  0.00  0.00    +0.151 HD
ENDBRANCH   2   8
BRANCH   1  19
ATOM     18  N   UNL     1      -0.453  -4.799  -1.461  0.00  0.00    -0.314 N 
ATOM     19  C   UNL     1      -0.818  -5.378  -2.622  0.00  0.00    +0.234 C 
ATOM     20  O   UNL     1      -0.386  -4.955  -3.673  0.00  0.00    -0.274 OA
ATOM     21  H   UNL     1      -0.798  -5.138  -0.620  0.00  0.00    +0.149 HD
BRANCH  18  22
ATOM     22  C   UNL     1       0.466  -3.658  -1.469  0.00  0.00    +0.108 C 
BRANCH  22  23
ATOM     23  C   UNL     1       0.714  -3.193  -0.033  0.00  0.00    +0.052 C 
BRANCH  23  30
ATOM     24  C   UNL     1       0.022   1.343   0.016  0.00  0.00    +0.001 A 
ATOM     25  C   UNL     1       1.207   2.092  -0.001  0.00  0.00    +0.002 A 
ATOM     26  C   UNL     1       2.430   1.522  -0.028  0.00  0.00    +0.026 A 
ATOM     27  C   UNL     1       2.563   0.106  -0.041  0.00  0.00    +0.043 A 
ATOM     28  N   UNL     1       3.618  -0.671  -0.068  0.00  0.00    -0.380 N 
ATOM     29  C   UNL     1       3.170  -2.068  -0.070  0.00  0.00    +0.144 C 
ATOM     30  C   UNL     1       1.659  -2.019  -0.041  0.00  0.00    -0.040 C 
ATOM     31  C   UNL     1       1.327  -0.708  -0.024  0.00  0.00    -0.001 A 
ATOM     32  C   UNL     1       0.036  -0.010   0.006  0.00  0.00    +0.010 A 
ATOM     33  H   UNL     1       4.541  -0.373  -0.083  0.00  0.00    +0.160 HD
ENDBRANCH  23  30
ENDBRANCH  22  23
ENDBRANCH  18  22
ENDBRANCH   1  19
TORSDOF 5
