REMARK  Name = ZINC09261870
REMARK  13 active torsions:
REMARK  status: ('A' for Active; 'I' for Inactive)
REMARK    1  A    between atoms: C_1  and  C_2
REMARK    2  A    between atoms: C_2  and  N_3
REMARK    3  A    between atoms: C_4  and  C_22
REMARK    4  A    between atoms: C_7  and  S_8
REMARK    5  A    between atoms: S_8  and  C_9
REMARK    6  A    between atoms: C_9  and  C_10
REMARK    7  A    between atoms: N_12  and  C_13
REMARK    8  A    between atoms: C_18  and  C_19
REMARK    9  A    between atoms: C_19  and  C_20
REMARK   10  A    between atoms: C_19  and  C_21
REMARK   11  A    between atoms: C_22  and  C_23
REMARK   12  A    between atoms: C_23  and  N_24
REMARK   13  A    between atoms: C_25  and  C_27
REMARK                            x       y       z     vdW  Elec       q    Type
REMARK                         _______ _______ _______ _____ _____    ______ ____
ROOT
ATOM      1  N   UNL     1       1.284   1.729  -0.035  0.00  0.00    -0.306 N 
ATOM      2  C   UNL     1       2.039   0.589  -0.057  0.00  0.00    +0.136 A 
ATOM      3  N   UNL     1       1.217  -0.421  -0.053  0.00  0.00    -0.133 NA
ATOM      4  N   UNL     1       0.002  -0.002  -0.031  0.00  0.00    -0.122 NA
ATOM      5  C   UNL     1      -0.016   1.311  -0.019  0.00  0.00    +0.192 A 
ENDROOT
BRANCH   1   7
ATOM      6  C   UNL     1       1.960   3.580   1.414  0.00  0.00    +0.027 C 
ATOM      7  C   UNL     1       1.768   3.112  -0.030  0.00  0.00    +0.122 C 
ENDBRANCH   1   7
BRANCH   5   8
ATOM      8  S   UNL     1      -1.447   2.339   0.005  0.00  0.00    -0.077 S 
BRANCH   8   9
ATOM      9  C   UNL     1      -2.742   1.074   0.009  0.00  0.00    +0.173 C 
BRANCH   9  10
ATOM     10  C   UNL     1      -4.094   1.740   0.029  0.00  0.00    +0.227 C 
ATOM     11  O   UNL     1      -4.174   2.950   0.041  0.00  0.00    -0.275 OA
ATOM     12  N   UNL     1      -5.214   0.990   0.035  0.00  0.00    -0.285 N 
ATOM     13  H   UNL     1      -5.152   0.025  -0.040  0.00  0.00    +0.155 HD
BRANCH  12  14
ATOM     14  C   UNL     1      -6.466   1.604   0.150  0.00  0.00    +0.037 A 
ATOM     15  C   UNL     1      -6.689   2.845  -0.434  0.00  0.00    +0.023 A 
ATOM     16  C   UNL     1      -7.927   3.446  -0.323  0.00  0.00    +0.002 A 
ATOM     17  C   UNL     1      -8.942   2.819   0.378  0.00  0.00    +0.000 A 
ATOM     18  C   UNL     1      -8.721   1.586   0.965  0.00  0.00    +0.006 A 
ATOM     19  C   UNL     1      -7.486   0.978   0.853  0.00  0.00    -0.024 A 
BRANCH  19  20
ATOM     20  C   UNL     1      -7.247  -0.365   1.494  0.00  0.00    +0.015 C 
ATOM     21  C   UNL     1      -7.590  -0.288   2.983  0.00  0.00    +0.012 C 
ATOM     22  C   UNL     1      -8.130  -1.417   0.821  0.00  0.00    +0.012 C 
ENDBRANCH  19  20
ENDBRANCH  12  14
ENDBRANCH   9  10
ENDBRANCH   8   9
ENDBRANCH   5   8
BRANCH   2  23
ATOM     23  C   UNL     1       3.544   0.516  -0.080  0.00  0.00    +0.095 C 
BRANCH  23  24
ATOM     24  C   UNL     1       4.032   0.504  -1.530  0.00  0.00    +0.112 C 
BRANCH  24  25
ATOM     25  N   UNL     1       5.495   0.433  -1.553  0.00  0.00    -0.311 N 
ATOM     26  C   UNL     1       6.150   0.411  -2.731  0.00  0.00    +0.244 C 
ATOM     27  O   UNL     1       5.527   0.450  -3.774  0.00  0.00    -0.270 OA
ATOM     28  H   UNL     1       5.992   0.402  -0.721  0.00  0.00    +0.149 HD
BRANCH  26  29
ATOM     29  C   UNL     1       7.626   0.339  -2.754  0.00  0.00    +0.038 A 
ATOM     30  C   UNL     1       8.345   0.299  -1.557  0.00  0.00    +0.014 A 
ATOM     31  C   UNL     1       9.721   0.228  -1.585  0.00  0.00    +0.022 A 
ATOM     32  C   UNL     1      10.393   0.205  -2.796  0.00  0.00    +0.059 A 
ATOM     33  C   UNL     1       9.686   0.249  -3.987  0.00  0.00    +0.060 A 
ATOM     34  C   UNL     1       8.307   0.316  -3.972  0.00  0.00    +0.034 A 
ATOM     35 CL   UNL     1      10.536   0.220  -5.501  0.00  0.00    -0.082 Cl
ATOM     36 CL   UNL     1      12.127   0.120  -2.822  0.00  0.00    -0.082 Cl
ENDBRANCH  26  29
ENDBRANCH  24  25
ENDBRANCH  23  24
ENDBRANCH   2  23
TORSDOF 10
