REMARK  Name = ZINC12884314
REMARK  6 active torsions:
REMARK  status: ('A' for Active; 'I' for Inactive)
REMARK    1  A    between atoms: C_4  and  C_7
REMARK    2  A    between atoms: C_7  and  C_8
REMARK    3  A    between atoms: C_8  and  N_9
REMARK    4  A    between atoms: C_14  and  C_31
REMARK    5  A    between atoms: C_31  and  C_32
REMARK    6  A    between atoms: C_32  and  C_33
REMARK                            x       y       z     vdW  Elec       q    Type
REMARK                         _______ _______ _______ _____ _____    ______ ____
ROOT
ATOM      1  N   UNL     1      -0.020   1.094   2.454  0.00  0.00    -0.241 N 
ATOM      2  C   UNL     1       0.967   1.782   3.039  0.00  0.00    +0.224 C 
ATOM      3  O   UNL     1       1.382   2.860   2.672  0.00  0.00    -0.275 OA
ATOM      4  C   UNL     1       1.483   1.006   4.230  0.00  0.00    +0.073 C 
ATOM      5  C   UNL     1       2.916   0.516   3.932  0.00  0.00    -0.057 C 
ATOM      6  C   UNL     1       1.581  -1.421   3.972  0.00  0.00    +0.050 C 
ATOM      7  C   UNL     1       0.600  -0.273   4.234  0.00  0.00    +0.088 C 
ATOM      8  C   UNL     1      -0.311  -0.071   3.044  0.00  0.00    +0.225 C 
ATOM      9  O   UNL     1      -1.169  -0.846   2.680  0.00  0.00    -0.275 OA
ATOM     10  C   UNL     1       1.568  -1.842   2.529  0.00  0.00    -0.026 A 
ATOM     11  C   UNL     1       1.822  -1.183   1.347  0.00  0.00    +0.004 A 
ATOM     12  C   UNL     1       1.726  -1.858   0.143  0.00  0.00    +0.002 A 
ATOM     13  C   UNL     1       1.374  -3.195   0.129  0.00  0.00    +0.022 A 
ATOM     14  C   UNL     1       1.118  -3.860   1.312  0.00  0.00    +0.062 A 
ATOM     15  C   UNL     1       1.212  -3.187   2.529  0.00  0.00    +0.054 A 
ATOM     16  N   UNL     1       1.006  -3.633   3.837  0.00  0.00    -0.285 N 
ATOM     17  C   UNL     1       1.201  -2.656   4.743  0.00  0.00    +0.211 C 
ATOM     18  O   UNL     1       1.092  -2.752   5.947  0.00  0.00    -0.277 OA
ATOM     19 CL   UNL     1       0.677  -5.539   1.282  0.00  0.00    -0.082 Cl
ATOM     20  H   UNL     1       0.751  -4.540   4.065  0.00  0.00    +0.155 HD
ATOM     21  N   UNL     1       2.882  -0.903   4.361  0.00  0.00    +0.394 N 
ATOM     22  H   UNL     1       3.000  -0.969   5.379  0.00  0.00    -0.083 HD
ATOM     23  H   UNL     1       3.628  -1.433   3.895  0.00  0.00    -0.083 HD
ENDROOT
BRANCH   1  24
ATOM     24  C   UNL     1      -0.729   1.579   1.267  0.00  0.00    +0.121 C 
BRANCH  24  25
ATOM     25  C   UNL     1      -0.013   1.086   0.008  0.00  0.00    +0.054 C 
BRANCH  25  29
ATOM     26  C   UNL     1      -2.078   2.501  -3.453  0.00  0.00    +0.000 A 
ATOM     27  C   UNL     1      -1.066   3.259  -2.894  0.00  0.00    +0.000 A 
ATOM     28  C   UNL     1      -0.398   2.801  -1.774  0.00  0.00    +0.004 A 
ATOM     29  C   UNL     1      -0.742   1.585  -1.213  0.00  0.00    -0.046 A 
ATOM     30  C   UNL     1      -1.750   0.825  -1.775  0.00  0.00    +0.004 A 
ATOM     31  C   UNL     1      -2.422   1.285  -2.892  0.00  0.00    +0.000 A 
ENDBRANCH  25  29
ENDBRANCH  24  25
ENDBRANCH   1  24
BRANCH   5  32
ATOM     32  C   UNL     1       3.933   1.320   4.744  0.00  0.00    -0.006 C 
BRANCH  32  33
ATOM     33  C   UNL     1       5.350   0.904   4.341  0.00  0.00    +0.094 C 
BRANCH  33  34
ATOM     34  C   UNL     1       6.352   1.696   5.141  0.00  0.00    +0.210 C 
ATOM     35  O   UNL     1       5.971   2.512   5.953  0.00  0.00    -0.276 OA
ATOM     36  N   UNL     1       7.672   1.496   4.954  0.00  0.00    -0.329 N 
ATOM     37  H   UNL     1       7.976   0.843   4.305  0.00  0.00    +0.145 HD
ATOM     38  H   UNL     1       8.317   2.006   5.469  0.00  0.00    +0.145 HD
ENDBRANCH  33  34
ENDBRANCH  32  33
ENDBRANCH   5  32
TORSDOF 6
