REMARK  Name = ZINC58834866
REMARK  15 active torsions:
REMARK  status: ('A' for Active; 'I' for Inactive)
REMARK    1  A    between atoms: C_1  and  C_2
REMARK    2  A    between atoms: C_3  and  C_32
REMARK    3  A    between atoms: C_4  and  C_30
REMARK    4  A    between atoms: C_5  and  S_9
REMARK    5  A    between atoms: C_7  and  C_8
REMARK    6  A    between atoms: S_9  and  C_10
REMARK    7  A    between atoms: C_10  and  C_11
REMARK    8  A    between atoms: C_14  and  C_17
REMARK    9  A    between atoms: N_15  and  N_16
REMARK   10  A    between atoms: C_17  and  S_18
REMARK   11  A    between atoms: S_18  and  C_19
REMARK   12  A    between atoms: C_20  and  C_28
REMARK   13  A    between atoms: C_21  and  C_27
REMARK   14  A    between atoms: C_22  and  C_26
REMARK   15  A    between atoms: C_23  and  C_25
REMARK                            x       y       z     vdW  Elec       q    Type
REMARK                         _______ _______ _______ _____ _____    ______ ____
ROOT
ATOM      1  C   UNL     1       0.098  -6.346   2.162  0.00  0.00    +0.160 A 
ATOM      2  N   UNL     1      -0.942  -7.127   2.270  0.00  0.00    -0.132 NA
ATOM      3  N   UNL     1      -0.556  -8.341   2.443  0.00  0.00    -0.132 NA
ATOM      4  C   UNL     1       0.748  -8.390   2.453  0.00  0.00    +0.160 A 
ATOM      5  N   UNL     1       1.201  -7.126   2.270  0.00  0.00    -0.235 N 
ENDROOT
BRANCH   5   6
ATOM      6  N   UNL     1       2.504  -6.720   2.209  0.00  0.00    -0.295 N 
ATOM      7  H   UNL     1       2.851  -6.481   3.126  0.00  0.00    +0.163 HD
ATOM      8  H   UNL     1       3.082  -7.425   1.776  0.00  0.00    +0.163 HD
ENDBRANCH   5   6
BRANCH   1   9
ATOM      9  C   UNL     1       0.077  -4.854   1.950  0.00  0.00    +0.153 C 
BRANCH   9  10
ATOM     10  S   UNL     1       0.064  -4.496   0.172  0.00  0.00    -0.097 S 
BRANCH  10  15
ATOM     11  C   UNL     1      -0.018   1.503   0.010  0.00  0.00    +0.046 C 
ATOM     12  C   UNL     1       0.002  -0.004   0.002  0.00  0.00    -0.025 A 
ATOM     13  C   UNL     1       0.006  -0.695  -1.198  0.00  0.00    -0.026 A 
ATOM     14  C   UNL     1       0.025  -2.093  -1.160  0.00  0.00    +0.087 A 
ATOM     15  C   UNL     1       0.040  -2.736   0.091  0.00  0.00    +0.115 A 
ATOM     16  N   UNL     1       0.035  -2.026   1.209  0.00  0.00    -0.244 NA
ATOM     17  C   UNL     1       0.023  -0.707   1.193  0.00  0.00    +0.043 A 
ATOM     18  C   UNL     1       0.025   0.048   2.497  0.00  0.00    +0.066 C 
ATOM     19  C   UNL     1      -0.011   0.042  -2.512  0.00  0.00    +0.045 C 
BRANCH  14  20
ATOM     20  C   UNL     1       0.029  -2.856  -2.372  0.00  0.00    +0.102 C 
ATOM     21  N   UNL     1       0.033  -3.460  -3.333  0.00  0.00    -0.191 NA
ENDBRANCH  14  20
ENDBRANCH  10  15
ENDBRANCH   9  10
ENDBRANCH   1   9
BRANCH   4  22
ATOM     22  C   UNL     1       1.594  -9.625   2.631  0.00  0.00    +0.153 C 
BRANCH  22  23
ATOM     23  S   UNL     1       1.939 -10.360   1.009  0.00  0.00    -0.097 S 
BRANCH  23  24
ATOM     24  C   UNL     1       2.923 -11.773   1.382  0.00  0.00    +0.115 A 
ATOM     25  C   UNL     1       3.387 -12.597   0.341  0.00  0.00    +0.087 A 
ATOM     26  C   UNL     1       4.168 -13.713   0.662  0.00  0.00    -0.026 A 
ATOM     27  C   UNL     1       4.449 -13.957   1.996  0.00  0.00    -0.025 A 
ATOM     28  C   UNL     1       3.956 -13.101   2.964  0.00  0.00    +0.043 A 
ATOM     29  N   UNL     1       3.226 -12.051   2.641  0.00  0.00    -0.244 NA
ATOM     30  C   UNL     1       4.263 -13.370   4.414  0.00  0.00    +0.066 C 
ATOM     31  C   UNL     1       5.285 -15.148   2.389  0.00  0.00    +0.046 C 
ATOM     32  C   UNL     1       4.689 -14.627  -0.416  0.00  0.00    +0.045 C 
BRANCH  25  33
ATOM     33  C   UNL     1       3.067 -12.299  -1.023  0.00  0.00    +0.102 C 
ATOM     34  N   UNL     1       2.813 -12.063  -2.105  0.00  0.00    -0.191 NA
ENDBRANCH  25  33
ENDBRANCH  23  24
ENDBRANCH  22  23
ENDBRANCH   4  22
TORSDOF 9
