REMARK  Name = ZINC23247678
REMARK  9 active torsions:
REMARK  status: ('A' for Active; 'I' for Inactive)
REMARK    1  A    between atoms: C_1  and  C_2
REMARK    2  A    between atoms: C_2  and  C_3
REMARK    3  A    between atoms: C_2  and  C_4
REMARK    4  A    between atoms: C_2  and  N_5
REMARK    5  A    between atoms: C_6  and  C_8
REMARK    6  A    between atoms: C_8  and  N_9
REMARK    7  A    between atoms: N_12  and  C_15
REMARK    8  A    between atoms: C_15  and  C_16
REMARK    9  A    between atoms: C_27  and  C_29
REMARK                            x       y       z     vdW  Elec       q    Type
REMARK                         _______ _______ _______ _____ _____    ______ ____
ROOT
ATOM      1  C   UNL     1       8.982  -0.612  -4.039  0.00  0.00    +0.235 C 
ATOM      2  O   UNL     1       8.403  -1.393  -4.764  0.00  0.00    -0.274 OA
ATOM      3  N   UNL     1      10.250  -0.249  -4.316  0.00  0.00    -0.256 N 
ATOM      4  C   UNL     1      10.892  -0.686  -5.487  0.00  0.00    +0.079 A 
ATOM      5  C   UNL     1      10.348  -1.718  -6.234  0.00  0.00    +0.027 A 
ATOM      6  C   UNL     1      10.981  -2.142  -7.388  0.00  0.00    +0.002 A 
ATOM      7  C   UNL     1      12.157  -1.538  -7.795  0.00  0.00    +0.004 A 
ATOM      8  C   UNL     1      12.705  -0.509  -7.053  0.00  0.00    +0.047 A 
ATOM      9  C   UNL     1      12.077  -0.077  -5.894  0.00  0.00    +0.142 A 
ATOM     10  O   UNL     1      12.627   0.930  -5.166  0.00  0.00    -0.488 OA
ATOM     11  C   UNL     1      11.777   1.638  -4.260  0.00  0.00    +0.256 C 
ATOM     12  C   UNL     1      11.009   0.626  -3.405  0.00  0.00    +0.149 C 
ENDROOT
BRANCH  12  13
ATOM     13  C   UNL     1      11.980  -0.196  -2.598  0.00  0.00    -0.023 A 
ATOM     14  C   UNL     1      12.677  -1.228  -3.198  0.00  0.00    +0.005 A 
ATOM     15  C   UNL     1      13.568  -1.982  -2.458  0.00  0.00    +0.000 A 
ATOM     16  C   UNL     1      13.763  -1.704  -1.118  0.00  0.00    +0.000 A 
ATOM     17  C   UNL     1      13.067  -0.671  -0.518  0.00  0.00    +0.000 A 
ATOM     18  C   UNL     1      12.179   0.086  -1.260  0.00  0.00    +0.005 A 
ENDBRANCH  12  13
BRANCH   1  19
ATOM     19  C   UNL     1       8.285  -0.049  -2.828  0.00  0.00    +0.181 C 
BRANCH  19  23
ATOM     20  N   UNL     1       4.061  -0.094  -2.660  0.00  0.00    +0.387 N 
ATOM     21  C   UNL     1       4.803  -0.699  -1.546  0.00  0.00    -0.063 C 
ATOM     22  C   UNL     1       6.237  -0.166  -1.539  0.00  0.00    +0.066 C 
ATOM     23  N   UNL     1       6.885  -0.495  -2.817  0.00  0.00    -0.298 NA
ATOM     24  C   UNL     1       6.140   0.084  -3.944  0.00  0.00    +0.066 C 
ATOM     25  C   UNL     1       4.706  -0.451  -3.931  0.00  0.00    -0.063 C 
ATOM     26  H   UNL     1       4.057   0.909  -2.556  0.00  0.00    -0.081 HD
BRANCH  20  27
ATOM     27  C   UNL     1       2.679  -0.592  -2.656  0.00  0.00    +0.019 C 
BRANCH  27  29
ATOM     28  N   UNL     1       0.694  -0.459  -1.187  0.00  0.00    -0.312 N 
ATOM     29  C   UNL     1       1.980  -0.121  -1.407  0.00  0.00    +0.197 C 
ATOM     30  O   UNL     1       2.574   0.562  -0.600  0.00  0.00    -0.278 OA
ATOM     31  H   UNL     1       0.218  -1.006  -1.832  0.00  0.00    +0.149 HD
BRANCH  28  33
ATOM     32  C   UNL     1       0.005   1.528   0.061  0.00  0.00    +0.031 C 
ATOM     33  C   UNL     1       0.014  -0.001   0.027  0.00  0.00    +0.026 C 
ATOM     34  C   UNL     1       0.752  -0.534   1.257  0.00  0.00    +0.031 C 
ATOM     35  C   UNL     1      -1.426  -0.520   0.032  0.00  0.00    +0.031 C 
ENDBRANCH  28  33
ENDBRANCH  27  29
ENDBRANCH  20  27
ENDBRANCH  19  23
ENDBRANCH   1  19
TORSDOF 6
