REMARK  Name = ZINC02134734
REMARK  7 active torsions:
REMARK  status: ('A' for Active; 'I' for Inactive)
REMARK    1  A    between atoms: C_1  and  C_2
REMARK    2  A    between atoms: C_4  and  C_32
REMARK    3  A    between atoms: C_13  and  C_15
REMARK    4  A    between atoms: C_15  and  C_16
REMARK    5  A    between atoms: C_16  and  S_17
REMARK    6  A    between atoms: S_17  and  C_18
REMARK    7  A    between atoms: N_21  and  C_24
REMARK                            x       y       z     vdW  Elec       q    Type
REMARK                         _______ _______ _______ _____ _____    ______ ____
ROOT
ATOM      1  C   UNL     1       3.707  -0.732  -0.037  0.00  0.00    +0.044 C 
ATOM      2  C   UNL     1       2.398   0.015  -0.021  0.00  0.00    -0.050 A 
ATOM      3  C   UNL     1       1.203  -0.682  -0.014  0.00  0.00    +0.008 A 
ATOM      4  C   UNL     1       0.002  -0.004   0.002  0.00  0.00    -0.029 A 
ATOM      5  C   UNL     1      -0.017   1.389   0.010  0.00  0.00    +0.039 A 
ATOM      6  C   UNL     1       1.192   2.079   0.002  0.00  0.00    -0.027 A 
ATOM      7  C   UNL     1       2.388   1.398  -0.013  0.00  0.00    +0.008 A 
ATOM      8  C   UNL     1       0.831   3.538   0.012  0.00  0.00    +0.050 C 
ATOM      9  C   UNL     1       1.415   4.255   1.235  0.00  0.00    +0.088 C 
ATOM     10  C   UNL     1       1.791   5.671   0.716  0.00  0.00    +0.073 C 
ATOM     11  C   UNL     1       1.376   5.671  -0.770  0.00  0.00    -0.057 C 
ATOM     12  C   UNL     1       0.844   6.576   1.503  0.00  0.00    +0.224 C 
ATOM     13  O   UNL     1       0.794   7.783   1.409  0.00  0.00    -0.275 OA
ATOM     14  N   UNL     1       0.084   5.831   2.314  0.00  0.00    -0.239 N 
ATOM     15  C   UNL     1       0.321   4.516   2.245  0.00  0.00    +0.225 C 
ATOM     16  O   UNL     1      -0.253   3.666   2.892  0.00  0.00    -0.275 OA
ATOM     17  C   UNL     1      -0.673   3.569   0.025  0.00  0.00    +0.211 C 
ATOM     18  O   UNL     1      -1.377   4.556   0.033  0.00  0.00    -0.277 OA
ATOM     19  N   UNL     1      -1.086   2.287   0.019  0.00  0.00    -0.286 N 
ATOM     20  C   UNL     1      -1.294  -0.773   0.011  0.00  0.00    +0.045 C 
ATOM     21  H   UNL     1      -2.018   2.018   0.024  0.00  0.00    +0.155 HD
ATOM     22  N   UNL     1       1.364   4.252  -1.135  0.00  0.00    +0.394 N 
ATOM     23  H   UNL     1       0.766   4.101  -1.956  0.00  0.00    -0.083 HD
ATOM     24  H   UNL     1       2.317   3.931  -1.342  0.00  0.00    -0.083 HD
ENDROOT
BRANCH  14  25
ATOM     25  C   UNL     1      -0.925   6.409   3.205  0.00  0.00    +0.084 C 
ATOM     26  C   UNL     1      -1.953   7.216   2.386  0.00  0.00    +0.023 C 
ATOM     27  C   UNL     1      -2.284   8.433   3.287  0.00  0.00    +0.002 C 
ATOM     28  C   UNL     1      -0.911   8.774   3.919  0.00  0.00    +0.002 C 
ATOM     29  C   UNL     1      -0.263   7.398   4.179  0.00  0.00    +0.023 C 
ENDBRANCH  14  25
BRANCH  11  30
ATOM     30  C   UNL     1       2.389   6.455  -1.606  0.00  0.00    -0.004 C 
BRANCH  30  31
ATOM     31  C   UNL     1       1.894   6.549  -3.051  0.00  0.00    +0.067 C 
BRANCH  31  32
ATOM     32  S   UNL     1       3.095   7.479  -4.042  0.00  0.00    -0.164 S 
ATOM     33  C   UNL     1       2.370   7.499  -5.705  0.00  0.00    +0.084 C 
ENDBRANCH  31  32
ENDBRANCH  30  31
ENDBRANCH  11  30
TORSDOF 4
