REMARK  Name = ZINC21973699
REMARK  10 active torsions:
REMARK  status: ('A' for Active; 'I' for Inactive)
REMARK    1  A    between atoms: C_1  and  C_2
REMARK    2  A    between atoms: C_7  and  C_9
REMARK    3  A    between atoms: C_7  and  C_10
REMARK    4  A    between atoms: N_13  and  C_17
REMARK    5  A    between atoms: C_17  and  C_18
REMARK    6  A    between atoms: C_18  and  O_20
REMARK    7  A    between atoms: O_20  and  C_21
REMARK    8  A    between atoms: C_21  and  C_22
REMARK    9  A    between atoms: N_24  and  C_25
REMARK   10  A    between atoms: C_29  and  C_31
REMARK                            x       y       z     vdW  Elec       q    Type
REMARK                         _______ _______ _______ _____ _____    ______ ____
ROOT
ATOM      1  C   UNL     1      -2.026  -4.132  -3.044  0.00  0.00    +0.238 C 
ENDROOT
BRANCH   1  13
ATOM      2  C   UNL     1       0.003   1.539  -0.019  0.00  0.00    +0.007 C 
ATOM      3  C   UNL     1       0.025   0.007  -0.024  0.00  0.00    -0.011 C 
ATOM      4  C   UNL     1      -1.411  -0.518   0.007  0.00  0.00    +0.038 C 
ATOM      5  C   UNL     1      -1.402  -2.040  -0.047  0.00  0.00    +0.113 C 
ATOM      6  C   UNL     1      -0.541  -2.663   1.034  0.00  0.00    +0.041 C 
ATOM      7  C   UNL     1       0.817  -2.015   1.244  0.00  0.00    -0.032 C 
ATOM      8  C   UNL     1       0.752  -0.492   1.223  0.00  0.00    +0.009 C 
ATOM      9  C   UNL     1       1.341  -2.444   2.632  0.00  0.00    +0.011 C 
ATOM     10  C   UNL     1       1.822  -2.513   0.202  0.00  0.00    +0.011 C 
ATOM     11  C   UNL     1      -1.029  -2.527  -1.425  0.00  0.00    +0.247 C 
ATOM     12  O   UNL     1      -0.048  -2.247  -2.080  0.00  0.00    -0.273 OA
ATOM     13  N   UNL     1      -2.037  -3.339  -1.813  0.00  0.00    -0.213 N 
ATOM     14  C   UNL     1      -3.043  -3.325  -0.932  0.00  0.00    +0.310 C 
ATOM     15  O   UNL     1      -4.069  -3.964  -1.068  0.00  0.00    -0.252 OA
ATOM     16  N   UNL     1      -2.790  -2.528   0.120  0.00  0.00    -0.285 N 
ATOM     17  H   UNL     1      -3.386  -2.308   0.850  0.00  0.00    +0.151 HD
ENDBRANCH   1  13
BRANCH   1  18
ATOM     18  C   UNL     1      -1.423  -5.485  -2.765  0.00  0.00    +0.326 C 
ATOM     19  O   UNL     1      -1.041  -5.758  -1.651  0.00  0.00    -0.249 OA
BRANCH  18  20
ATOM     20  O   UNL     1      -1.309  -6.386  -3.753  0.00  0.00    -0.454 OA
BRANCH  20  21
ATOM     21  C   UNL     1      -0.728  -7.647  -3.417  0.00  0.00    +0.328 C 
BRANCH  21  22
ATOM     22  C   UNL     1      -0.683  -8.522  -4.643  0.00  0.00    +0.255 C 
ATOM     23  O   UNL     1      -1.107  -8.107  -5.700  0.00  0.00    -0.272 OA
ATOM     24  N   UNL     1      -0.172  -9.767  -4.564  0.00  0.00    -0.283 N 
ATOM     25  H   UNL     1       0.228 -10.075  -3.736  0.00  0.00    +0.155 HD
BRANCH  24  26
ATOM     26  C   UNL     1      -0.218 -10.614  -5.677  0.00  0.00    +0.035 A 
ATOM     27  C   UNL     1      -0.412 -11.979  -5.504  0.00  0.00    +0.023 A 
ATOM     28  C   UNL     1      -0.458 -12.821  -6.599  0.00  0.00    +0.003 A 
ATOM     29  C   UNL     1      -0.313 -12.310  -7.874  0.00  0.00    +0.019 A 
ATOM     30  C   UNL     1      -0.119 -10.940  -8.059  0.00  0.00    +0.054 A 
ATOM     31  C   UNL     1      -0.077 -10.091  -6.953  0.00  0.00    +0.042 A 
BRANCH  30  32
ATOM     32  C   UNL     1       0.032 -10.408  -9.380  0.00  0.00    +0.099 C 
ATOM     33  N   UNL     1       0.152  -9.986 -10.428  0.00  0.00    -0.191 NA
ENDBRANCH  30  32
ENDBRANCH  24  26
ENDBRANCH  21  22
ENDBRANCH  20  21
ENDBRANCH  18  20
ENDBRANCH   1  18
TORSDOF 7
