REMARK  Name = ZINC58988042
REMARK  8 active torsions:
REMARK  status: ('A' for Active; 'I' for Inactive)
REMARK    1  A    between atoms: C_4  and  O_27
REMARK    2  A    between atoms: C_5  and  C_7
REMARK    3  A    between atoms: N_8  and  N_9
REMARK    4  A    between atoms: C_10  and  C_12
REMARK    5  A    between atoms: C_12  and  S_13
REMARK    6  A    between atoms: S_13  and  C_14
REMARK    7  A    between atoms: C_17  and  C_20
REMARK    8  A    between atoms: N_18  and  N_19
REMARK                            x       y       z     vdW  Elec       q    Type
REMARK                         _______ _______ _______ _____ _____    ______ ____
ROOT
ATOM      1  S   UNL     1       5.340  -6.917  -0.093  0.00  0.00    -0.075 S 
ENDROOT
BRANCH   1   2
ATOM      2  C   UNL     1       5.205  -8.674  -0.102  0.00  0.00    +0.209 A 
ATOM      3  N   UNL     1       4.090  -9.370  -0.101  0.00  0.00    -0.121 NA
ATOM      4  N   UNL     1       4.355 -10.627  -0.109  0.00  0.00    -0.127 NA
ATOM      5  C   UNL     1       5.655 -10.811  -0.117  0.00  0.00    +0.182 A 
ATOM      6  N   UNL     1       6.239  -9.566  -0.118  0.00  0.00    -0.224 N 
BRANCH   5   7
ATOM      7  C   UNL     1       6.358 -12.112  -0.127  0.00  0.00    +0.021 A 
ATOM      8  C   UNL     1       7.717 -12.176   0.184  0.00  0.00    +0.013 A 
ATOM      9  C   UNL     1       8.368 -13.392   0.172  0.00  0.00    +0.016 A 
ATOM     10  C   UNL     1       7.676 -14.548  -0.148  0.00  0.00    +0.018 A 
ATOM     11  C   UNL     1       6.327 -14.490  -0.458  0.00  0.00    +0.016 A 
ATOM     12  C   UNL     1       5.664 -13.281  -0.443  0.00  0.00    +0.013 A 
ATOM     13 BR   UNL     1       8.575 -16.211  -0.162  0.00  0.00    -0.050 Br
ENDBRANCH   5   7
BRANCH   6  14
ATOM     14  N   UNL     1       7.575  -9.281  -0.131  0.00  0.00    -0.295 N 
ATOM     15  H   UNL     1       7.939  -9.211   0.808  0.00  0.00    +0.163 HD
ATOM     16  H   UNL     1       8.086  -9.966  -0.667  0.00  0.00    +0.163 HD
ENDBRANCH   6  14
ENDBRANCH   1   2
BRANCH   1  17
ATOM     17  C   UNL     1       3.619  -6.344  -0.072  0.00  0.00    +0.174 C 
BRANCH  17  19
ATOM     18  N   UNL     1       2.412  -4.186  -0.047  0.00  0.00    -0.206 N 
ATOM     19  C   UNL     1       3.591  -4.838  -0.063  0.00  0.00    +0.242 C 
ATOM     20  O   UNL     1       4.630  -4.212  -0.070  0.00  0.00    -0.273 OA
ATOM     21  H   UNL     1       1.581  -4.686  -0.041  0.00  0.00    +0.177 HD
BRANCH  18  23
ATOM     22  C   UNL     1       1.250  -2.157  -0.023  0.00  0.00    +0.142 C 
ATOM     23  N   UNL     1       2.386  -2.785  -0.038  0.00  0.00    -0.188 NA
BRANCH  22  28
ATOM     24  C   UNL     1      -0.017   1.375   0.010  0.00  0.00    +0.001 A 
ATOM     25  C   UNL     1       1.169   2.089   0.002  0.00  0.00    +0.004 A 
ATOM     26  C   UNL     1       2.383   1.428  -0.013  0.00  0.00    +0.046 A 
ATOM     27  C   UNL     1       2.420   0.044  -0.022  0.00  0.00    +0.125 A 
ATOM     28  C   UNL     1       1.222  -0.684  -0.014  0.00  0.00    +0.036 A 
ATOM     29  C   UNL     1       0.002  -0.004   0.002  0.00  0.00    +0.013 A 
BRANCH  27  30
ATOM     30  O   UNL     1       3.612  -0.607  -0.038  0.00  0.00    -0.506 OA
ATOM     31  H   UNL     1       3.967  -0.800   0.841  0.00  0.00    +0.292 HD
ENDBRANCH  27  30
ENDBRANCH  22  28
ENDBRANCH  18  23
ENDBRANCH  17  19
ENDBRANCH   1  17
TORSDOF 8
