REMARK  Name = ZINC04275287
REMARK  9 active torsions:
REMARK  status: ('A' for Active; 'I' for Inactive)
REMARK    1  A    between atoms: C_1  and  C_2
REMARK    2  A    between atoms: C_2  and  C_26
REMARK    3  A    between atoms: C_5  and  C_22
REMARK    4  A    between atoms: C_6  and  N_12
REMARK    5  A    between atoms: C_9  and  C_10
REMARK    6  A    between atoms: C_9  and  C_11
REMARK    7  A    between atoms: C_13  and  C_15
REMARK    8  A    between atoms: C_22  and  O_24
REMARK    9  A    between atoms: O_24  and  C_25
REMARK                            x       y       z     vdW  Elec       q    Type
REMARK                         _______ _______ _______ _____ _____    ______ ____
ROOT
ATOM      1  C   UNL     1      -0.013   1.086   0.008  0.00  0.00    -0.010 C 
ATOM      2  C   UNL     1      -0.729   1.579   1.268  0.00  0.00    -0.069 C 
ATOM      3  C   UNL     1      -2.138   0.980   1.314  0.00  0.00    +0.024 C 
ATOM      4  C   UNL     1      -2.977   1.646   0.233  0.00  0.00    -0.024 A 
ATOM      5  C   UNL     1      -4.122   1.048  -0.427  0.00  0.00    +0.091 A 
ATOM      6  C   UNL     1      -4.781   1.815  -1.383  0.00  0.00    +0.086 A 
ATOM      7  S   UNL     1      -3.882   3.296  -1.390  0.00  0.00    -0.079 S 
ATOM      8  C   UNL     1      -2.669   2.901  -0.163  0.00  0.00    -0.016 A 
ATOM      9  C   UNL     1      -1.544   3.746   0.340  0.00  0.00    -0.041 C 
ATOM     10  C   UNL     1      -2.146   5.004   0.999  0.00  0.00    -0.005 C 
ATOM     11  C   UNL     1      -0.672   4.202  -0.836  0.00  0.00    -0.005 C 
ATOM     12  C   UNL     1       0.048   1.047   2.488  0.00  0.00    -0.010 C 
ATOM     13  N   UNL     1      -0.719   3.061   1.375  0.00  0.00    +0.389 N 
ATOM     14  H   UNL     1       0.251   3.385   1.283  0.00  0.00    -0.084 HD
ATOM     15  H   UNL     1      -1.081   3.320   2.300  0.00  0.00    -0.084 HD
ENDROOT
BRANCH   6  16
ATOM     16  N   UNL     1      -5.886   1.474  -2.143  0.00  0.00    -0.275 N 
ATOM     17  C   UNL     1      -6.392   2.356  -3.029  0.00  0.00    +0.250 C 
ATOM     18  O   UNL     1      -5.878   3.450  -3.159  0.00  0.00    -0.270 OA
ATOM     19  H   UNL     1      -6.297   0.602  -2.039  0.00  0.00    +0.156 HD
BRANCH  17  20
ATOM     20  C   UNL     1      -7.572   1.993  -3.841  0.00  0.00    +0.055 A 
ATOM     21  C   UNL     1      -8.162   0.735  -3.697  0.00  0.00    +0.014 A 
ATOM     22  C   UNL     1      -9.265   0.404  -4.456  0.00  0.00    +0.001 A 
ATOM     23  C   UNL     1      -9.783   1.311  -5.364  0.00  0.00    +0.001 A 
ATOM     24  C   UNL     1      -9.202   2.557  -5.515  0.00  0.00    +0.021 A 
ATOM     25  C   UNL     1      -8.099   2.904  -4.759  0.00  0.00    +0.053 A 
ATOM     26 CL   UNL     1      -7.370   4.467  -4.951  0.00  0.00    -0.083 Cl
ENDBRANCH  17  20
ENDBRANCH   6  16
BRANCH   5  27
ATOM     27  C   UNL     1      -4.576  -0.306  -0.105  0.00  0.00    +0.342 C 
ATOM     28  O   UNL     1      -5.399  -0.479   0.775  0.00  0.00    -0.245 OA
BRANCH  27  29
ATOM     29  O   UNL     1      -4.083  -1.362  -0.784  0.00  0.00    -0.464 OA
ATOM     30  C   UNL     1      -4.579  -2.675  -0.412  0.00  0.00    +0.280 C 
ENDBRANCH  27  29
ENDBRANCH   5  27
TORSDOF 4
