REMARK  Name = ZINC27697258
REMARK  13 active torsions:
REMARK  status: ('A' for Active; 'I' for Inactive)
REMARK    1  A    between atoms: C_2  and  C_3
REMARK    2  A    between atoms: C_3  and  N_4
REMARK    3  A    between atoms: N_4  and  C_5
REMARK    4  A    between atoms: N_4  and  C_8
REMARK    5  A    between atoms: C_5  and  C_6
REMARK    6  A    between atoms: C_8  and  C_9
REMARK    7  A    between atoms: C_9  and  C_11
REMARK    8  A    between atoms: C_9  and  O_36
REMARK    9  A    between atoms: C_11  and  N_12
REMARK   10  A    between atoms: C_20  and  C_21
REMARK   11  A    between atoms: C_21  and  C_23
REMARK   12  A    between atoms: C_21  and  S_29
REMARK   13  A    between atoms: S_29  and  C_30
REMARK                            x       y       z     vdW  Elec       q    Type
REMARK                         _______ _______ _______ _____ _____    ______ ____
ROOT
ATOM      1  N   UNL     1      -5.936   2.114   1.370  0.00  0.00    -0.324 N 
ATOM      2  C   UNL     1      -6.942   1.173   1.269  0.00  0.00    +0.069 A 
ATOM      3  C   UNL     1      -8.200   1.038   1.841  0.00  0.00    +0.028 A 
ATOM      4  C   UNL     1      -8.979  -0.055   1.527  0.00  0.00    +0.002 A 
ATOM      5  C   UNL     1      -8.514  -1.019   0.643  0.00  0.00    +0.002 A 
ATOM      6  C   UNL     1      -7.279  -0.903   0.071  0.00  0.00    +0.030 A 
ATOM      7  C   UNL     1      -6.472   0.197   0.374  0.00  0.00    +0.089 A 
ATOM      8  N   UNL     1      -5.232   0.586  -0.020  0.00  0.00    -0.231 NA
ATOM      9  C   UNL     1      -4.921   1.709   0.560  0.00  0.00    +0.129 A 
ENDROOT
BRANCH   1  10
ATOM     10  C   UNL     1      -5.959   3.325   2.194  0.00  0.00    +0.153 C 
BRANCH  10  11
ATOM     11  C   UNL     1      -6.549   4.481   1.385  0.00  0.00    +0.118 C 
BRANCH  11  12
ATOM     12  O   UNL     1      -7.918   4.203   1.084  0.00  0.00    -0.392 OA
ATOM     13  H   UNL     1      -8.182   3.308   0.501  0.00  0.00    +0.210 HD
ENDBRANCH  11  12
BRANCH  11  14
ATOM     14  C   UNL     1      -6.458   5.772   2.201  0.00  0.00    -0.045 C 
BRANCH  14  15
ATOM     15  N   UNL     1      -6.880   6.908   1.369  0.00  0.00    +0.386 N 
ATOM     16  H   UNL     1      -6.461   6.762   0.362  0.00  0.00    -0.081 HD
BRANCH  15  17
ATOM     17  C   UNL     1      -8.343   6.957   1.247  0.00  0.00    -0.051 C 
BRANCH  17  19
ATOM     18  C   UNL     1      -9.760   8.175   2.819  0.00  0.00    +0.002 C 
ATOM     19  C   UNL     1      -8.953   7.164   2.609  0.00  0.00    -0.053 C 
ENDBRANCH  17  19
ENDBRANCH  15  17
BRANCH  15  20
ATOM     20  C   UNL     1      -6.352   8.172   1.898  0.00  0.00    -0.051 C 
BRANCH  20  21
ATOM     21  C   UNL     1      -6.468   9.245   0.845  0.00  0.00    -0.053 C 
ATOM     22  C   UNL     1      -7.099  10.361   1.114  0.00  0.00    +0.002 C 
ENDBRANCH  20  21
ENDBRANCH  15  20
ENDBRANCH  14  15
ENDBRANCH  11  14
ENDBRANCH  10  11
ENDBRANCH   1  10
BRANCH   9  23
ATOM     23  C   UNL     1      -3.623   2.449   0.367  0.00  0.00    +0.147 C 
BRANCH  23  24
ATOM     24  C   UNL     1      -3.627   3.130  -0.977  0.00  0.00    -0.027 A 
ATOM     25  C   UNL     1      -3.753   2.380  -2.132  0.00  0.00    +0.005 A 
ATOM     26  C   UNL     1      -3.762   3.005  -3.365  0.00  0.00    +0.000 A 
ATOM     27  C   UNL     1      -3.636   4.379  -3.444  0.00  0.00    +0.000 A 
ATOM     28  C   UNL     1      -3.505   5.128  -2.290  0.00  0.00    +0.000 A 
ATOM     29  C   UNL     1      -3.500   4.504  -1.057  0.00  0.00    +0.005 A 
ENDBRANCH  23  24
BRANCH  23  30
ATOM     30  S   UNL     1      -2.241   1.277   0.446  0.00  0.00    -0.109 S 
BRANCH  30  31
ATOM     31  C   UNL     1      -0.809   2.299   0.354  0.00  0.00    +0.009 A 
ATOM     32  C   UNL     1       0.458   1.728   0.388  0.00  0.00    +0.015 A 
ATOM     33  C   UNL     1       1.578   2.532   0.311  0.00  0.00    +0.001 A 
ATOM     34  C   UNL     1       1.440   3.904   0.205  0.00  0.00    +0.000 A 
ATOM     35  C   UNL     1       0.181   4.476   0.176  0.00  0.00    +0.001 A 
ATOM     36  C   UNL     1      -0.943   3.679   0.253  0.00  0.00    +0.015 A 
ENDBRANCH  30  31
ENDBRANCH  23  30
ENDBRANCH   9  23
TORSDOF 13
