REMARK  Name = ZINC59036050
REMARK  14 active torsions:
REMARK  status: ('A' for Active; 'I' for Inactive)
REMARK    1  A    between atoms: C_1  and  C_2
REMARK    2  A    between atoms: C_2  and  N_3
REMARK    3  A    between atoms: N_3  and  C_4
REMARK    4  A    between atoms: N_3  and  C_6
REMARK    5  A    between atoms: C_4  and  C_5
REMARK    6  A    between atoms: C_6  and  C_7
REMARK    7  A    between atoms: C_7  and  C_8
REMARK    8  A    between atoms: C_8  and  N_9
REMARK    9  A    between atoms: N_9  and  C_10
REMARK   10  A    between atoms: C_10  and  N_12
REMARK   11  A    between atoms: N_12  and  C_13
REMARK   12  A    between atoms: N_12  and  C_20
REMARK   13  A    between atoms: C_13  and  C_14
REMARK   14  A    between atoms: C_20  and  C_21
REMARK                            x       y       z     vdW  Elec       q    Type
REMARK                         _______ _______ _______ _____ _____    ______ ____
ROOT
ATOM      1  N   UNL     1       4.104  -5.117  -3.042  0.00  0.00    -0.304 N 
ENDROOT
BRANCH   1   2
ATOM      2  C   UNL     1       3.343  -4.688  -2.015  0.00  0.00    +0.133 C 
ATOM      3  S   UNL     1       2.701  -5.813  -0.896  0.00  0.00    -0.019 S 
BRANCH   2   4
ATOM      4  N   UNL     1       3.087  -3.373  -1.871  0.00  0.00    -0.326 N 
ATOM      5  H   UNL     1       3.450  -2.735  -2.505  0.00  0.00    +0.148 HD
BRANCH   4   6
ATOM      6  C   UNL     1       2.260  -2.906  -0.755  0.00  0.00    +0.101 C 
BRANCH   6   7
ATOM      7  C   UNL     1       2.126  -1.383  -0.822  0.00  0.00    +0.000 C 
BRANCH   7   8
ATOM      8  C   UNL     1       1.262  -0.895   0.343  0.00  0.00    -0.077 C 
BRANCH   8   9
ATOM      9  N   UNL     1       1.134   0.567   0.279  0.00  0.00    +0.379 N 
ATOM     10  H   UNL     1       2.052   0.984   0.256  0.00  0.00    -0.082 HD
BRANCH   9  12
ATOM     11  C   UNL     1       0.384   2.464  -1.076  0.00  0.00    -0.017 C 
ATOM     12  C   UNL     1       0.396   0.940  -0.935  0.00  0.00    -0.082 C 
ENDBRANCH   9  12
BRANCH   9  13
ATOM     13  C   UNL     1       0.406   1.046   1.461  0.00  0.00    -0.082 C 
ATOM     14  C   UNL     1       1.243   0.786   2.715  0.00  0.00    -0.017 C 
ENDBRANCH   9  13
ENDBRANCH   8   9
ENDBRANCH   7   8
ENDBRANCH   6   7
ENDBRANCH   4   6
ENDBRANCH   2   4
ENDBRANCH   1   2
BRANCH   1  15
ATOM     15  C   UNL     1       4.653  -4.154  -4.000  0.00  0.00    +0.142 C 
BRANCH  15  16
ATOM     16  C   UNL     1       6.022  -3.718  -3.545  0.00  0.00    -0.030 A 
ATOM     17  C   UNL     1       6.157  -2.623  -2.712  0.00  0.00    +0.005 A 
ATOM     18  C   UNL     1       7.412  -2.223  -2.294  0.00  0.00    +0.000 A 
ATOM     19  C   UNL     1       8.533  -2.917  -2.710  0.00  0.00    +0.000 A 
ATOM     20  C   UNL     1       8.398  -4.012  -3.543  0.00  0.00    +0.000 A 
ATOM     21  C   UNL     1       7.142  -4.415  -3.956  0.00  0.00    +0.005 A 
ENDBRANCH  15  16
ENDBRANCH   1  15
BRANCH   1  22
ATOM     22  C   UNL     1       4.382  -6.547  -3.199  0.00  0.00    +0.143 C 
BRANCH  22  23
ATOM     23  C   UNL     1       3.299  -7.180  -4.034  0.00  0.00    -0.012 A 
ATOM     24  C   UNL     1       2.302  -6.396  -4.583  0.00  0.00    +0.008 A 
ATOM     25  C   UNL     1       1.309  -6.976  -5.349  0.00  0.00    +0.020 A 
ATOM     26  C   UNL     1       1.312  -8.343  -5.568  0.00  0.00    +0.042 A 
ATOM     27  C   UNL     1       2.310  -9.128  -5.019  0.00  0.00    +0.040 A 
ATOM     28  C   UNL     1       3.307  -8.546  -4.257  0.00  0.00    +0.047 A 
ATOM     29 CL   UNL     1       4.563  -9.530  -3.573  0.00  0.00    -0.083 Cl
ATOM     30 CL   UNL     1       0.065  -9.071  -6.530  0.00  0.00    -0.083 Cl
ENDBRANCH  22  23
ENDBRANCH   1  22
TORSDOF 12
