REMARK  Name = ZINC38547007
REMARK  8 active torsions:
REMARK  status: ('A' for Active; 'I' for Inactive)
REMARK    1  A    between atoms: C_1  and  C_2
REMARK    2  A    between atoms: C_5  and  C_8
REMARK    3  A    between atoms: C_8  and  C_10
REMARK    4  A    between atoms: C_8  and  N_24
REMARK    5  A    between atoms: C_12  and  C_23
REMARK    6  A    between atoms: C_14  and  N_15
REMARK    7  A    between atoms: C_16  and  C_18
REMARK    8  A    between atoms: C_29  and  C_31
REMARK                            x       y       z     vdW  Elec       q    Type
REMARK                         _______ _______ _______ _____ _____    ______ ____
ROOT
ATOM      1  C   UNL     1       0.083  -4.267  -0.035  0.00  0.00    +0.135 C 
ENDROOT
BRANCH   1   2
ATOM      2  N   UNL     1       1.055  -4.652   0.992  0.00  0.00    -0.320 N 
ATOM      3  C   UNL     1       1.756  -5.846   0.873  0.00  0.00    +0.097 A 
ATOM      4  C   UNL     1       1.442  -6.730  -0.155  0.00  0.00    +0.041 A 
ATOM      5  C   UNL     1       2.147  -7.915  -0.261  0.00  0.00    +0.005 A 
ATOM      6  C   UNL     1       3.147  -8.177   0.666  0.00  0.00    +0.021 A 
ATOM      7  C   UNL     1       3.406  -7.255   1.660  0.00  0.00    +0.014 A 
ATOM      8  N   UNL     1       2.720  -6.130   1.734  0.00  0.00    -0.347 N 
ATOM      9  C   UNL     1       4.489  -7.534   2.670  0.00  0.00    +0.063 C 
ATOM     10  H   UNL     1       1.209  -4.073   1.754  0.00  0.00    +0.148 HD
ATOM     11  H   UNL     1       2.925  -5.497   2.440  0.00  0.00    +0.167 HD
ENDBRANCH   1   2
BRANCH   1  16
ATOM     12  C   UNL     1      -0.404   1.490  -0.170  0.00  0.00    +0.044 C 
ATOM     13  C   UNL     1      -0.277  -0.012  -0.135  0.00  0.00    -0.050 A 
ATOM     14  C   UNL     1      -0.137  -0.721  -1.313  0.00  0.00    +0.004 A 
ATOM     15  C   UNL     1      -0.021  -2.098  -1.280  0.00  0.00    +0.006 A 
ATOM     16  C   UNL     1      -0.043  -2.766  -0.070  0.00  0.00    -0.023 A 
ATOM     17  C   UNL     1      -0.182  -2.056   1.108  0.00  0.00    +0.006 A 
ATOM     18  C   UNL     1      -0.294  -0.679   1.076  0.00  0.00    +0.004 A 
ENDBRANCH   1  16
BRANCH   1  19
ATOM     19  C   UNL     1      -1.257  -4.876   0.289  0.00  0.00    +0.006 A 
ATOM     20  C   UNL     1      -1.591  -5.191   1.593  0.00  0.00    +0.018 A 
ATOM     21  C   UNL     1      -2.804  -5.737   1.849  0.00  0.00    -0.011 A 
ATOM     22  S   UNL     1      -3.525  -5.824   0.218  0.00  0.00    -0.078 S 
ATOM     23  C   UNL     1      -2.164  -5.122  -0.698  0.00  0.00    +0.078 A 
ATOM     24  C   UNL     1      -3.392  -6.162   3.170  0.00  0.00    +0.051 C 
BRANCH  23  25
ATOM     25  N   UNL     1      -2.055  -4.887  -2.071  0.00  0.00    -0.273 N 
ATOM     26  C   UNL     1      -3.077  -5.204  -2.891  0.00  0.00    +0.284 C 
ATOM     27  O   UNL     1      -4.093  -5.694  -2.436  0.00  0.00    -0.266 OA
ATOM     28  H   UNL     1      -1.245  -4.496  -2.433  0.00  0.00    +0.156 HD
BRANCH  26  29
ATOM     29  C   UNL     1      -2.963  -4.957  -4.332  0.00  0.00    +0.189 A 
ATOM     30  C   UNL     1      -3.920  -5.224  -5.269  0.00  0.00    +0.054 A 
ATOM     31  C   UNL     1      -3.390  -4.831  -6.509  0.00  0.00    +0.042 A 
ATOM     32  C   UNL     1      -2.150  -4.348  -6.277  0.00  0.00    +0.196 A 
ATOM     33  O   UNL     1      -1.898  -4.421  -4.963  0.00  0.00    -0.458 OA
ENDBRANCH  26  29
ENDBRANCH  23  25
ENDBRANCH   1  19
TORSDOF 5
