REMARK  Name = ZINC04729284
REMARK  10 active torsions:
REMARK  status: ('A' for Active; 'I' for Inactive)
REMARK    1  A    between atoms: C_1  and  C_2
REMARK    2  A    between atoms: C_2  and  O_3
REMARK    3  A    between atoms: O_3  and  C_4
REMARK    4  A    between atoms: C_8  and  C_11
REMARK    5  A    between atoms: C_9  and  O_10
REMARK    6  A    between atoms: C_14  and  C_25
REMARK    7  A    between atoms: C_16  and  C_18
REMARK    8  A    between atoms: C_21  and  C_24
REMARK    9  A    between atoms: C_28  and  O_31
REMARK   10  A    between atoms: O_31  and  C_32
REMARK                            x       y       z     vdW  Elec       q    Type
REMARK                         _______ _______ _______ _____ _____    ______ ____
ROOT
ATOM      1  C   UNL     1      -0.730   1.580   1.268  0.00  0.00    -0.028 C 
ATOM      2  C   UNL     1      -0.013   1.086   0.008  0.00  0.00    +0.044 C 
ATOM      3  C   UNL     1      -0.740   1.584  -1.210  0.00  0.00    +0.040 C 
ATOM      4  N   UNL     1      -1.603   2.529  -1.171  0.00  0.00    -0.299 NA
ATOM      5  C   UNL     1      -1.996   3.228   0.045  0.00  0.00    +0.081 C 
ATOM      6  N   UNL     1      -1.002   3.022   1.110  0.00  0.00    +0.401 N 
ATOM      7  H   UNL     1      -0.133   3.508   0.863  0.00  0.00    -0.081 HD
ATOM      8  H   UNL     1      -1.366   3.398   1.993  0.00  0.00    -0.081 HD
ENDROOT
BRANCH   5   9
ATOM      9  C   UNL     1      -2.108   4.703  -0.244  0.00  0.00    -0.040 A 
ATOM     10  C   UNL     1      -1.857   5.625   0.755  0.00  0.00    +0.004 A 
ATOM     11  C   UNL     1      -1.956   6.978   0.488  0.00  0.00    +0.003 A 
ATOM     12  C   UNL     1      -2.314   7.409  -0.775  0.00  0.00    -0.050 A 
ATOM     13  C   UNL     1      -2.570   6.487  -1.773  0.00  0.00    +0.003 A 
ATOM     14  C   UNL     1      -2.467   5.134  -1.508  0.00  0.00    +0.004 A 
ATOM     15  C   UNL     1      -2.426   8.883  -1.065  0.00  0.00    +0.044 C 
ENDBRANCH   5   9
BRANCH   1  20
ATOM     16  C   UNL     1       1.043  -0.090   4.166  0.00  0.00    +0.162 A 
ATOM     17  C   UNL     1       1.770   0.968   4.686  0.00  0.00    +0.049 A 
ATOM     18  C   UNL     1       1.687   2.218   4.100  0.00  0.00    +0.004 A 
ATOM     19  C   UNL     1       0.883   2.413   2.992  0.00  0.00    +0.006 A 
ATOM     20  C   UNL     1       0.150   1.362   2.472  0.00  0.00    -0.016 A 
ATOM     21  C   UNL     1       0.229   0.107   3.055  0.00  0.00    +0.160 A 
BRANCH  21  22
ATOM     22  O   UNL     1      -0.486  -0.929   2.541  0.00  0.00    -0.503 OA
ATOM     23  H   UNL     1      -0.017  -1.432   1.862  0.00  0.00    +0.292 HD
ENDBRANCH  21  22
BRANCH  16  24
ATOM     24  O   UNL     1       1.123  -1.320   4.742  0.00  0.00    -0.489 OA
BRANCH  24  26
ATOM     25  C   UNL     1       1.940  -2.892   6.386  0.00  0.00    +0.048 C 
ATOM     26  C   UNL     1       1.978  -1.449   5.880  0.00  0.00    +0.226 C 
ENDBRANCH  24  26
ENDBRANCH  16  24
ENDBRANCH   1  20
BRANCH   3  27
ATOM     27  C   UNL     1      -0.445   0.955  -2.510  0.00  0.00    -0.004 A 
ATOM     28  C   UNL     1       0.496  -0.076  -2.593  0.00  0.00    +0.013 A 
ATOM     29  C   UNL     1       0.764  -0.665  -3.809  0.00  0.00    +0.046 A 
ATOM     30  C   UNL     1       0.110  -0.228  -4.954  0.00  0.00    +0.120 A 
ATOM     31  C   UNL     1      -0.822   0.800  -4.878  0.00  0.00    +0.046 A 
ATOM     32  C   UNL     1      -1.101   1.391  -3.665  0.00  0.00    +0.013 A 
BRANCH  30  33
ATOM     33  O   UNL     1       0.382  -0.807  -6.152  0.00  0.00    -0.495 OA
ATOM     34  C   UNL     1       1.349  -1.858  -6.159  0.00  0.00    +0.277 C 
ENDBRANCH  30  33
ENDBRANCH   3  27
TORSDOF 7
