REMARK  Name = ZINC01956469
REMARK  10 active torsions:
REMARK  status: ('A' for Active; 'I' for Inactive)
REMARK    1  A    between atoms: C_1  and  C_2
REMARK    2  A    between atoms: C_4  and  O_10
REMARK    3  A    between atoms: C_6  and  C_9
REMARK    4  A    between atoms: O_10  and  C_11
REMARK    5  A    between atoms: C_11  and  C_12
REMARK    6  A    between atoms: C_12  and  C_13
REMARK    7  A    between atoms: C_13  and  C_14
REMARK    8  A    between atoms: N_16  and  C_17
REMARK    9  A    between atoms: C_18  and  C_28
REMARK   10  A    between atoms: C_23  and  C_27
REMARK                            x       y       z     vdW  Elec       q    Type
REMARK                         _______ _______ _______ _____ _____    ______ ____
ROOT
ATOM      1  C   UNL     1       0.071  -6.853  -5.055  0.00  0.00    +0.218 C 
ATOM      2  O   UNL     1       0.056  -6.110  -6.014  0.00  0.00    -0.275 OA
ATOM      3  N   UNL     1       0.089  -8.188  -5.238  0.00  0.00    -0.279 N 
ATOM      4  H   UNL     1       0.101  -8.783  -4.471  0.00  0.00    +0.155 HD
ENDROOT
BRANCH   3   5
ATOM      5  C   UNL     1       0.090  -8.713  -6.521  0.00  0.00    +0.084 A 
ATOM      6  C   UNL     1       0.101 -10.047  -6.897  0.00  0.00    +0.068 A 
ATOM      7  C   UNL     1       0.099 -10.336  -8.320  0.00  0.00    -0.023 A 
ATOM      8  C   UNL     1       0.087  -9.239  -9.107  0.00  0.00    -0.004 A 
ATOM      9  S   UNL     1       0.070  -7.877  -7.978  0.00  0.00    -0.077 S 
ATOM     10  C   UNL     1       0.084  -9.205 -10.604  0.00  0.00    +0.046 C 
ATOM     11  C   UNL     1       0.477 -10.598 -11.118  0.00  0.00    -0.009 C 
ATOM     12  C   UNL     1      -0.348 -11.652 -10.374  0.00  0.00    +0.008 C 
ATOM     13  C   UNL     1       0.108 -11.736  -8.916  0.00  0.00    +0.037 C 
ATOM     14  C   UNL     1       0.194 -10.689 -12.619  0.00  0.00    +0.008 C 
BRANCH   6  15
ATOM     15  C   UNL     1       0.114 -11.121  -5.899  0.00  0.00    +0.244 C 
ATOM     16  O   UNL     1      -0.934 -11.577  -5.481  0.00  0.00    -0.270 OA
ATOM     17  N   UNL     1       1.287 -11.604  -5.444  0.00  0.00    -0.325 N 
ATOM     18  H   UNL     1       2.123 -11.240  -5.777  0.00  0.00    +0.145 HD
ATOM     19  H   UNL     1       1.296 -12.314  -4.784  0.00  0.00    +0.145 HD
ENDBRANCH   6  15
ENDBRANCH   3   5
BRANCH   1  20
ATOM     20  C   UNL     1       0.071  -6.283  -3.660  0.00  0.00    +0.099 C 
BRANCH  20  21
ATOM     21  C   UNL     1       0.049  -4.755  -3.733  0.00  0.00    +0.050 C 
BRANCH  21  22
ATOM     22  C   UNL     1       0.049  -4.176  -2.317  0.00  0.00    +0.229 C 
BRANCH  22  23
ATOM     23  O   UNL     1       0.028  -2.749  -2.386  0.00  0.00    -0.492 OA
BRANCH  23  27
ATOM     24  C   UNL     1      -0.018   1.503   0.010  0.00  0.00    +0.045 C 
ATOM     25  C   UNL     1       0.002  -0.004   0.002  0.00  0.00    -0.028 A 
ATOM     26  C   UNL     1       0.006  -0.688  -1.198  0.00  0.00    +0.050 A 
ATOM     27  C   UNL     1       0.025  -2.075  -1.206  0.00  0.00    +0.121 A 
ATOM     28  C   UNL     1       0.041  -2.773  -0.007  0.00  0.00    +0.050 A 
ATOM     29  C   UNL     1       0.037  -2.085   1.192  0.00  0.00    -0.028 A 
ATOM     30  C   UNL     1       0.023  -0.702   1.197  0.00  0.00    +0.047 A 
ATOM     31 CL   UNL     1       0.025   0.160   2.704  0.00  0.00    -0.083 Cl
ATOM     32  C   UNL     1       0.054  -2.843   2.494  0.00  0.00    +0.045 C 
ENDBRANCH  23  27
ENDBRANCH  22  23
ENDBRANCH  21  22
ENDBRANCH  20  21
ENDBRANCH   1  20
TORSDOF 7
