REMARK  Name = ZINC39691214
REMARK  8 active torsions:
REMARK  status: ('A' for Active; 'I' for Inactive)
REMARK    1  A    between atoms: C_1  and  C_2
REMARK    2  A    between atoms: C_7  and  C_8
REMARK    3  A    between atoms: C_8  and  C_9
REMARK    4  A    between atoms: C_9  and  N_10
REMARK    5  A    between atoms: C_11  and  C_13
REMARK    6  A    between atoms: C_24  and  C_26
REMARK    7  A    between atoms: C_31  and  O_32
REMARK    8  A    between atoms: O_32  and  C_33
REMARK                            x       y       z     vdW  Elec       q    Type
REMARK                         _______ _______ _______ _____ _____    ______ ____
ROOT
ATOM      1  C   UNL     1      -2.387   2.786   6.125  0.00  0.00    +0.100 C 
ATOM      2  C   UNL     1      -2.008   1.695   7.151  0.00  0.00    +0.121 C 
ATOM      3  N   UNL     1      -2.904   1.941   8.306  0.00  0.00    -0.296 N 
ATOM      4  C   UNL     1      -4.204   2.304   7.693  0.00  0.00    +0.115 C 
ATOM      5  C   UNL     1      -3.829   3.183   6.483  0.00  0.00    -0.004 C 
ATOM      6  C   UNL     1      -3.892   4.659   6.864  0.00  0.00    -0.010 C 
ATOM      7  C   UNL     1      -5.344   5.043   7.161  0.00  0.00    -0.082 C 
ATOM      8  N   UNL     1      -6.173   4.786   5.977  0.00  0.00    +0.379 N 
ATOM      9  C   UNL     1      -6.181   3.350   5.673  0.00  0.00    -0.082 C 
ATOM     10  C   UNL     1      -4.764   2.894   5.313  0.00  0.00    -0.010 C 
ATOM     11  C   UNL     1      -2.604   1.853   9.617  0.00  0.00    +0.252 C 
ATOM     12  O   UNL     1      -3.478   1.994  10.451  0.00  0.00    -0.270 OA
ATOM     13  H   UNL     1      -7.116   5.096   6.154  0.00  0.00    -0.086 HD
ATOM     14  H   UNL     1      -5.797   5.293   5.189  0.00  0.00    -0.086 HD
ENDROOT
BRANCH  11  15
ATOM     15  C   UNL     1      -1.217   1.586  10.040  0.00  0.00    +0.099 A 
ATOM     16  C   UNL     1      -0.388   0.752   9.281  0.00  0.00    +0.020 A 
ATOM     17  C   UNL     1       0.905   0.534   9.720  0.00  0.00    +0.021 A 
ATOM     18  C   UNL     1       1.339   1.140  10.886  0.00  0.00    +0.114 A 
ATOM     19  N   UNL     1       0.541   1.922  11.587  0.00  0.00    -0.220 NA
ATOM     20  C   UNL     1      -0.702   2.168  11.208  0.00  0.00    +0.233 A 
BRANCH  20  21
ATOM     21  O   UNL     1      -1.484   2.983  11.956  0.00  0.00    -0.437 OA
BRANCH  21  22
ATOM     22  C   UNL     1      -0.982   3.450  13.129  0.00  0.00    +0.130 A 
ATOM     23  C   UNL     1      -0.087   4.510  13.129  0.00  0.00    +0.048 A 
ATOM     24  C   UNL     1       0.422   4.984  14.322  0.00  0.00    +0.023 A 
ATOM     25  C   UNL     1       0.041   4.401  15.518  0.00  0.00    +0.041 A 
ATOM     26  C   UNL     1      -0.851   3.343  15.520  0.00  0.00    +0.023 A 
ATOM     27  C   UNL     1      -1.367   2.870  14.329  0.00  0.00    +0.048 A 
ATOM     28 CL   UNL     1       0.683   4.997  17.017  0.00  0.00    -0.084 Cl
ENDBRANCH  21  22
ENDBRANCH  20  21
ENDBRANCH  11  15
BRANCH   1  30
ATOM     29  N   UNL     1      -2.090   3.055   3.684  0.00  0.00    -0.315 N 
ATOM     30  C   UNL     1      -2.328   2.232   4.724  0.00  0.00    +0.218 C 
ATOM     31  O   UNL     1      -2.495   1.046   4.534  0.00  0.00    -0.275 OA
ATOM     32  H   UNL     1      -1.957   4.003   3.836  0.00  0.00    +0.149 HD
BRANCH  29  33
ATOM     33  C   UNL     1      -2.033   2.516   2.322  0.00  0.00    +0.109 C 
BRANCH  33  34
ATOM     34  C   UNL     1      -1.751   3.651   1.336  0.00  0.00    +0.054 C 
BRANCH  34  41
ATOM     35  C   UNL     1      -4.184   3.306  -0.184  0.00  0.00    +0.044 C 
ATOM     36  C   UNL     1      -2.856   2.932  -0.791  0.00  0.00    -0.047 A 
ATOM     37  C   UNL     1      -2.801   2.429  -2.078  0.00  0.00    +0.003 A 
ATOM     38  C   UNL     1      -1.584   2.087  -2.635  0.00  0.00    +0.000 A 
ATOM     39  C   UNL     1      -0.420   2.247  -1.905  0.00  0.00    +0.000 A 
ATOM     40  C   UNL     1      -0.475   2.751  -0.620  0.00  0.00    +0.004 A 
ATOM     41  C   UNL     1      -1.692   3.098  -0.064  0.00  0.00    -0.043 A 
ENDBRANCH  34  41
ENDBRANCH  33  34
ENDBRANCH  29  33
ENDBRANCH   1  30
TORSDOF 7
