REMARK  Name = ZINC01796643
REMARK  5 active torsions:
REMARK  status: ('A' for Active; 'I' for Inactive)
REMARK    1  A    between atoms: N_9  and  N_10
REMARK    2  A    between atoms: C_11  and  C_13
REMARK    3  A    between atoms: C_13  and  C_14
REMARK    4  A    between atoms: C_14  and  C_15
REMARK    5  A    between atoms: N_17  and  N_18
REMARK                            x       y       z     vdW  Elec       q    Type
REMARK                         _______ _______ _______ _____ _____    ______ ____
ROOT
ATOM      1  C   UNL     1      -5.894   6.281   0.087  0.00  0.00    +0.107 C 
ENDROOT
BRANCH   1   3
ATOM      2  N   UNL     1      -8.199   7.179   0.113  0.00  0.00    -0.206 N 
ATOM      3  C   UNL     1      -7.390   6.101   0.100  0.00  0.00    +0.233 C 
ATOM      4  O   UNL     1      -7.867   4.986   0.100  0.00  0.00    -0.274 OA
ATOM      5  H   UNL     1      -7.817   8.071   0.113  0.00  0.00    +0.177 HD
BRANCH   2  14
ATOM      6  C   UNL     1     -14.540   8.745   0.179  0.00  0.00    +0.017 A 
ATOM      7  C   UNL     1     -13.590   9.746   0.174  0.00  0.00    +0.025 A 
ATOM      8  C   UNL     1     -12.237   9.426   0.160  0.00  0.00    +0.043 A 
ATOM      9  C   UNL     1     -11.857   8.078   0.151  0.00  0.00    +0.029 A 
ATOM     10  C   UNL     1     -12.820   7.075   0.155  0.00  0.00    +0.027 A 
ATOM     11  C   UNL     1     -14.160   7.412   0.170  0.00  0.00    +0.019 A 
ATOM     12 BR   UNL     1     -15.476   6.055   0.176  0.00  0.00    -0.050 Br
ATOM     13  C   UNL     1     -10.376   8.061   0.137  0.00  0.00    +0.153 C 
ATOM     14  N   UNL     1      -9.590   7.012   0.125  0.00  0.00    -0.175 NA
ATOM     15  C   UNL     1      -9.978   9.483   0.146  0.00  0.00    +0.269 C 
ATOM     16  O   UNL     1      -8.838   9.908   0.144  0.00  0.00    -0.268 OA
ATOM     17  N   UNL     1     -11.099  10.225   0.153  0.00  0.00    -0.280 N 
ATOM     18  H   UNL     1     -11.112  11.195   0.158  0.00  0.00    +0.155 HD
ENDBRANCH   2  14
ENDBRANCH   1   3
BRANCH   1  19
ATOM     19  C   UNL     1      -5.215   4.910   0.075  0.00  0.00    +0.107 C 
BRANCH  19  20
ATOM     20  C   UNL     1      -3.719   5.090   0.061  0.00  0.00    +0.233 C 
ATOM     21  O   UNL     1      -3.243   6.205   0.062  0.00  0.00    -0.274 OA
ATOM     22  N   UNL     1      -2.911   4.011   0.049  0.00  0.00    -0.206 N 
ATOM     23  H   UNL     1      -3.292   3.119   0.049  0.00  0.00    +0.177 HD
BRANCH  22  24
ATOM     24  N   UNL     1      -1.520   4.179   0.037  0.00  0.00    -0.175 NA
ATOM     25  C   UNL     1      -0.734   3.130   0.025  0.00  0.00    +0.153 C 
ATOM     26  C   UNL     1       0.748   3.113   0.011  0.00  0.00    +0.029 A 
ATOM     27  C   UNL     1       1.711   4.115   0.007  0.00  0.00    +0.027 A 
ATOM     28  C   UNL     1       3.050   3.778  -0.008  0.00  0.00    +0.019 A 
ATOM     29  C   UNL     1       3.430   2.446  -0.018  0.00  0.00    +0.017 A 
ATOM     30  C   UNL     1       2.480   1.444  -0.014  0.00  0.00    +0.025 A 
ATOM     31  C   UNL     1       1.127   1.765   0.001  0.00  0.00    +0.043 A 
ATOM     32  N   UNL     1      -0.011   0.966   0.007  0.00  0.00    -0.280 N 
ATOM     33  C   UNL     1      -1.132   1.708   0.016  0.00  0.00    +0.269 C 
ATOM     34  O   UNL     1      -2.272   1.283   0.019  0.00  0.00    -0.268 OA
ATOM     35 BR   UNL     1       4.367   5.136  -0.014  0.00  0.00    -0.050 Br
ATOM     36  H   UNL     1       0.002  -0.004   0.002  0.00  0.00    +0.155 HD
ENDBRANCH  22  24
ENDBRANCH  19  20
ENDBRANCH   1  19
TORSDOF 5
