REMARK  Name = ZINC09093699
REMARK  6 active torsions:
REMARK  status: ('A' for Active; 'I' for Inactive)
REMARK    1  A    between atoms: C_6  and  C_7
REMARK    2  A    between atoms: C_10  and  S_19
REMARK    3  A    between atoms: N_11  and  C_12
REMARK    4  A    between atoms: S_19  and  C_20
REMARK    5  A    between atoms: C_20  and  C_21
REMARK    6  A    between atoms: N_26  and  C_27
REMARK                            x       y       z     vdW  Elec       q    Type
REMARK                         _______ _______ _______ _____ _____    ______ ____
ROOT
ATOM      1  C   UNL     1       0.964   0.410  -4.657  0.00  0.00    +0.169 A 
ATOM      2  N   UNL     1       1.690  -0.088  -3.683  0.00  0.00    -0.128 NA
ATOM      3  N   UNL     1       1.195   0.252  -2.547  0.00  0.00    -0.122 NA
ATOM      4  C   UNL     1       0.122   0.990  -2.724  0.00  0.00    +0.197 A 
ATOM      5  N   UNL     1      -0.068   1.112  -4.073  0.00  0.00    -0.270 N 
ENDROOT
BRANCH   1  11
ATOM      6  C   UNL     1       0.548   1.067  -7.024  0.00  0.00    +0.014 A 
ATOM      7  C   UNL     1       0.780   0.911  -8.374  0.00  0.00    +0.039 A 
ATOM      8  C   UNL     1       1.654  -0.068  -8.821  0.00  0.00    +0.123 A 
ATOM      9  C   UNL     1       2.303  -0.891  -7.915  0.00  0.00    +0.039 A 
ATOM     10  C   UNL     1       2.082  -0.741  -6.562  0.00  0.00    +0.014 A 
ATOM     11  C   UNL     1       1.204   0.244  -6.106  0.00  0.00    +0.020 A 
ATOM     12  F   UNL     1       1.873  -0.220 -10.146  0.00  0.00    -0.205 F 
ENDBRANCH   1  11
BRANCH   5  13
ATOM     13  C   UNL     1      -1.096   1.808  -4.725  0.00  0.00    +0.051 A 
ATOM     14  C   UNL     1      -2.021   1.119  -5.497  0.00  0.00    +0.029 A 
ATOM     15  C   UNL     1      -3.036   1.806  -6.135  0.00  0.00    +0.040 A 
ATOM     16  C   UNL     1      -3.124   3.183  -6.013  0.00  0.00    +0.124 A 
ATOM     17  C   UNL     1      -2.199   3.873  -5.247  0.00  0.00    +0.040 A 
ATOM     18  C   UNL     1      -1.186   3.188  -4.604  0.00  0.00    +0.029 A 
ATOM     19  F   UNL     1      -4.114   3.853  -6.641  0.00  0.00    -0.205 F 
ENDBRANCH   5  13
BRANCH   4  20
ATOM     20  S   UNL     1      -0.888   1.685  -1.458  0.00  0.00    -0.076 S 
BRANCH  20  21
ATOM     21  C   UNL     1      -0.013   1.086   0.008  0.00  0.00    +0.173 C 
BRANCH  21  22
ATOM     22  C   UNL     1      -0.718   1.572   1.248  0.00  0.00    +0.231 C 
ATOM     23  O   UNL     1      -1.714   2.256   1.150  0.00  0.00    -0.274 OA
ATOM     24  N   UNL     1      -0.242   1.246   2.466  0.00  0.00    -0.239 N 
ATOM     25  C   UNL     1      -0.872   1.681   3.575  0.00  0.00    +0.306 C 
ATOM     26  O   UNL     1      -1.871   2.366   3.476  0.00  0.00    -0.252 OA
ATOM     27  N   UNL     1      -0.396   1.355   4.793  0.00  0.00    -0.296 N 
ATOM     28  H   UNL     1       0.555   0.699   2.544  0.00  0.00    +0.159 HD
ATOM     29  H   UNL     1       0.401   0.807   4.871  0.00  0.00    +0.151 HD
BRANCH  27  30
ATOM     30  C   UNL     1      -1.082   1.827   5.998  0.00  0.00    +0.074 C 
ATOM     31  C   UNL     1      -0.592   3.235   6.345  0.00  0.00    +0.022 C 
ATOM     32  C   UNL     1      -1.308   3.728   7.603  0.00  0.00    +0.002 C 
ATOM     33  C   UNL     1      -1.005   2.782   8.767  0.00  0.00    +0.000 C 
ATOM     34  C   UNL     1      -1.495   1.374   8.420  0.00  0.00    +0.002 C 
ATOM     35  C   UNL     1      -0.778   0.881   7.161  0.00  0.00    +0.022 C 
ENDBRANCH  27  30
ENDBRANCH  21  22
ENDBRANCH  20  21
ENDBRANCH   4  20
TORSDOF 6
