REMARK  Name = ZINC36093611
REMARK  6 active torsions:
REMARK  status: ('A' for Active; 'I' for Inactive)
REMARK    1  A    between atoms: C_1  and  N_2
REMARK    2  A    between atoms: C_10  and  O_33
REMARK    3  A    between atoms: C_12  and  C_15
REMARK    4  A    between atoms: C_18  and  O_21
REMARK    5  A    between atoms: O_21  and  C_22
REMARK    6  A    between atoms: C_22  and  C_24
REMARK                            x       y       z     vdW  Elec       q    Type
REMARK                         _______ _______ _______ _____ _____    ______ ____
ROOT
ATOM      1  C   UNL     1       0.613   1.485   0.421  0.00  0.00    -0.096 C 
ATOM      2  N   UNL     1       0.536   0.019   0.348  0.00  0.00    +0.381 N 
ATOM      3  C   UNL     1      -0.872  -0.395   0.306  0.00  0.00    -0.074 C 
ATOM      4  C   UNL     1      -0.976  -1.874  -0.082  0.00  0.00    +0.018 C 
ATOM      5  C   UNL     1      -0.067  -2.667   0.847  0.00  0.00    -0.027 A 
ATOM      6  C   UNL     1       0.896  -2.032   1.558  0.00  0.00    -0.021 A 
ATOM      7  S   UNL     1       1.692  -3.314   2.483  0.00  0.00    -0.080 S 
ATOM      8  C   UNL     1       0.805  -4.616   1.965  0.00  0.00    +0.080 A 
ATOM      9  C   UNL     1      -0.128  -4.099   1.058  0.00  0.00    +0.067 A 
ATOM     10  C   UNL     1      -1.061  -5.060   0.414  0.00  0.00    +0.220 C 
ATOM     11  N   UNL     1      -1.126  -6.266   0.909  0.00  0.00    -0.223 NA
ATOM     12  C   UNL     1      -0.395  -6.716   2.087  0.00  0.00    +0.224 C 
ATOM     13  N   UNL     1       0.855  -5.957   2.273  0.00  0.00    -0.313 N 
ATOM     14  C   UNL     1       1.190  -0.566   1.534  0.00  0.00    -0.036 C 
ATOM     15  H   UNL     1       1.667  -6.379   2.595  0.00  0.00    +0.149 HD
ATOM     16  H   UNL     1       1.006  -0.300  -0.486  0.00  0.00    -0.082 HD
ENDROOT
BRANCH  12  17
ATOM     17  C   UNL     1      -1.265  -6.537   3.304  0.00  0.00    -0.005 A 
ATOM     18  C   UNL     1      -0.687  -6.279   4.533  0.00  0.00    +0.011 A 
ATOM     19  C   UNL     1      -1.482  -6.114   5.651  0.00  0.00    +0.047 A 
ATOM     20  C   UNL     1      -2.862  -6.207   5.539  0.00  0.00    +0.132 A 
ATOM     21  C   UNL     1      -3.439  -6.466   4.304  0.00  0.00    +0.047 A 
ATOM     22  C   UNL     1      -2.640  -6.625   3.189  0.00  0.00    +0.011 A 
BRANCH  20  23
ATOM     23  O   UNL     1      -3.646  -6.046   6.637  0.00  0.00    -0.422 OA
BRANCH  23  24
ATOM     24  C   UNL     1      -3.726  -4.816   7.183  0.00  0.00    +0.345 C 
ATOM     25  O   UNL     1      -3.193  -3.873   6.633  0.00  0.00    -0.245 OA
BRANCH  24  26
ATOM     26  C   UNL     1      -4.460  -4.616   8.445  0.00  0.00    +0.063 A 
ATOM     27  C   UNL     1      -5.069  -5.702   9.081  0.00  0.00    +0.019 A 
ATOM     28  C   UNL     1      -5.755  -5.512  10.261  0.00  0.00    +0.050 A 
ATOM     29  C   UNL     1      -5.844  -4.245  10.823  0.00  0.00    +0.166 A 
ATOM     30  C   UNL     1      -5.238  -3.157  10.193  0.00  0.00    +0.167 A 
ATOM     31  C   UNL     1      -4.544  -3.341   9.013  0.00  0.00    +0.064 A 
ATOM     32  O   UNL     1      -5.470  -2.038  10.939  0.00  0.00    -0.453 OA
ATOM     33  C   UNL     1      -6.565  -2.378  11.810  0.00  0.00    +0.466 C 
ATOM     34  O   UNL     1      -6.452  -3.805  11.961  0.00  0.00    -0.453 OA
ENDBRANCH  24  26
ENDBRANCH  23  24
ENDBRANCH  20  23
ENDBRANCH  12  17
BRANCH  10  35
ATOM     35  O   UNL     1      -1.817  -4.697  -0.647  0.00  0.00    -0.492 OA
ATOM     36  H   UNL     1      -2.387  -5.402  -0.984  0.00  0.00    +0.294 HD
ENDBRANCH  10  35
TORSDOF 5
