REMARK  Name = ZINC20113335
REMARK  7 active torsions:
REMARK  status: ('A' for Active; 'I' for Inactive)
REMARK    1  A    between atoms: C_1  and  C_2
REMARK    2  A    between atoms: C_19  and  C_21
REMARK    3  A    between atoms: C_21  and  N_22
REMARK    4  A    between atoms: N_25  and  C_28
REMARK    5  A    between atoms: C_28  and  C_29
REMARK    6  A    between atoms: C_28  and  C_35
REMARK    7  A    between atoms: C_28  and  O_41
REMARK                            x       y       z     vdW  Elec       q    Type
REMARK                         _______ _______ _______ _____ _____    ______ ____
ROOT
ATOM      1  N   UNL     1      -5.147   4.958  -4.792  0.00  0.00    +0.382 N 
ATOM      2  C   UNL     1      -6.092   4.456  -5.799  0.00  0.00    -0.063 C 
ATOM      3  C   UNL     1      -6.484   5.597  -6.740  0.00  0.00    +0.069 C 
ATOM      4  N   UNL     1      -5.277   6.138  -7.380  0.00  0.00    -0.271 NA
ATOM      5  C   UNL     1      -4.331   6.640  -6.373  0.00  0.00    +0.069 C 
ATOM      6  C   UNL     1      -3.939   5.499  -5.431  0.00  0.00    -0.063 C 
ATOM      7  H   UNL     1      -5.638   5.777  -4.244  0.00  0.00    -0.082 HD
ENDROOT
BRANCH   1   8
ATOM      8  C   UNL     1      -4.805   3.910  -3.821  0.00  0.00    -0.064 C 
BRANCH   8  24
ATOM      9  C   UNL     1      -4.182   3.969   0.716  0.00  0.00    +0.012 C 
ATOM     10  C   UNL     1      -4.560   2.487   0.733  0.00  0.00    -0.022 C 
ATOM     11  C   UNL     1      -4.122   1.859   2.055  0.00  0.00    +0.007 C 
ATOM     12  C   UNL     1      -2.618   2.079   2.260  0.00  0.00    +0.005 C 
ATOM     13  C   UNL     1      -1.842   1.359   1.152  0.00  0.00    +0.030 C 
ATOM     14  C   UNL     1      -2.369   1.819  -0.191  0.00  0.00    -0.073 C 
ATOM     15  C   UNL     1      -1.555   2.253  -1.121  0.00  0.00    +0.008 C 
ATOM     16  C   UNL     1      -3.860   1.762  -0.427  0.00  0.00    +0.021 C 
ATOM     17  C   UNL     1      -4.214   2.488  -1.722  0.00  0.00    +0.016 C 
ATOM     18  C   UNL     1      -5.719   2.413  -1.986  0.00  0.00    +0.042 C 
ATOM     19  C   UNL     1      -6.521   2.915  -0.769  0.00  0.00    +0.181 C 
ATOM     20  C   UNL     1      -6.067   2.324   0.544  0.00  0.00    +0.052 C 
ATOM     21  O   UNL     1      -6.366   4.362  -0.832  0.00  0.00    -0.461 OA
ATOM     22  C   UNL     1      -6.467   4.717  -2.133  0.00  0.00    +0.309 C 
ATOM     23  O   UNL     1      -6.835   5.794  -2.538  0.00  0.00    -0.251 OA
ATOM     24  C   UNL     1      -6.045   3.548  -3.003  0.00  0.00    +0.088 C 
ENDBRANCH   8  24
ENDBRANCH   1   8
BRANCH   4  25
ATOM     25  C   UNL     1      -5.619   7.187  -8.350  0.00  0.00    +0.172 C 
BRANCH  25  26
ATOM     26  C   UNL     1      -4.364   7.671  -9.030  0.00  0.00    +0.003 A 
ATOM     27  C   UNL     1      -3.320   6.795  -9.259  0.00  0.00    +0.008 A 
ATOM     28  C   UNL     1      -2.171   7.238  -9.887  0.00  0.00    +0.000 A 
ATOM     29  C   UNL     1      -2.062   8.560 -10.276  0.00  0.00    +0.000 A 
ATOM     30  C   UNL     1      -3.104   9.438 -10.042  0.00  0.00    +0.000 A 
ATOM     31  C   UNL     1      -4.255   8.993  -9.418  0.00  0.00    +0.008 A 
ENDBRANCH  25  26
BRANCH  25  32
ATOM     32  C   UNL     1      -6.565   6.628  -9.381  0.00  0.00    +0.003 A 
ATOM     33  C   UNL     1      -6.459   5.306  -9.771  0.00  0.00    +0.008 A 
ATOM     34  C   UNL     1      -7.330   4.792 -10.714  0.00  0.00    +0.000 A 
ATOM     35  C   UNL     1      -8.300   5.602 -11.273  0.00  0.00    +0.000 A 
ATOM     36  C   UNL     1      -8.403   6.925 -10.886  0.00  0.00    +0.000 A 
ATOM     37  C   UNL     1      -7.535   7.438  -9.940  0.00  0.00    +0.008 A 
ENDBRANCH  25  32
BRANCH  25  38
ATOM     38  O   UNL     1      -6.244   8.277  -7.671  0.00  0.00    -0.366 OA
ATOM     39  H   UNL     1      -6.573   9.162  -8.237  0.00  0.00    +0.212 HD
ENDBRANCH  25  38
ENDBRANCH   4  25
TORSDOF 6
