REMARK  Name = ZINC14031568
REMARK  8 active torsions:
REMARK  status: ('A' for Active; 'I' for Inactive)
REMARK    1  A    between atoms: C_1  and  C_2
REMARK    2  A    between atoms: C_2  and  C_4
REMARK    3  A    between atoms: C_2  and  O_20
REMARK    4  A    between atoms: N_6  and  N_7
REMARK    5  A    between atoms: C_8  and  C_10
REMARK    6  A    between atoms: C_10  and  O_11
REMARK    7  A    between atoms: O_11  and  C_12
REMARK    8  A    between atoms: O_20  and  C_21
REMARK                            x       y       z     vdW  Elec       q    Type
REMARK                         _______ _______ _______ _____ _____    ______ ____
ROOT
ATOM      1  C   UNL     1       5.269  -4.152   0.075  0.00  0.00    +0.270 C 
ATOM      2  O   UNL     1       4.379  -4.952  -0.118  0.00  0.00    -0.270 OA
ATOM      3  N   UNL     1       4.977  -2.848   0.253  0.00  0.00    -0.231 N 
ATOM      4  H   UNL     1       5.689  -2.208   0.408  0.00  0.00    +0.173 HD
ENDROOT
BRANCH   3   5
ATOM      5  N   UNL     1       3.644  -2.418   0.216  0.00  0.00    -0.231 N 
ATOM      6  C   UNL     1       3.351  -1.115   0.394  0.00  0.00    +0.267 C 
ATOM      7  O   UNL     1       4.241  -0.314   0.587  0.00  0.00    -0.271 OA
ATOM      8  H   UNL     1       2.932  -3.059   0.061  0.00  0.00    +0.173 HD
BRANCH   6   9
ATOM      9  C   UNL     1       1.917  -0.652   0.354  0.00  0.00    +0.326 C 
BRANCH   9  10
ATOM     10  O   UNL     1       1.866   0.760   0.568  0.00  0.00    -0.482 OA
BRANCH  10  11
ATOM     11  C   UNL     1       0.637   1.341   0.562  0.00  0.00    +0.135 A 
ATOM     12  C   UNL     1      -0.495   0.568   0.354  0.00  0.00    +0.048 A 
ATOM     13  C   UNL     1      -1.743   1.161   0.342  0.00  0.00    +0.023 A 
ATOM     14  C   UNL     1      -1.865   2.524   0.548  0.00  0.00    +0.042 A 
ATOM     15  C   UNL     1      -0.736   3.297   0.756  0.00  0.00    +0.039 A 
ATOM     16  C   UNL     1       0.514   2.708   0.763  0.00  0.00    +0.061 A 
ATOM     17 BR   UNL     1       2.056   3.766   1.046  0.00  0.00    -0.046 Br
ATOM     18 CL   UNL     1      -3.434   3.265   0.540  0.00  0.00    -0.084 Cl
ENDBRANCH  10  11
ENDBRANCH   9  10
ENDBRANCH   6   9
ENDBRANCH   3   5
BRANCH   1  20
ATOM     19  C   UNL     1       7.500  -3.903  -0.981  0.00  0.00    +0.062 C 
ATOM     20  C   UNL     1       6.703  -4.614   0.115  0.00  0.00    +0.257 C 
BRANCH  20  21
ATOM     21  O   UNL     1       6.754  -6.026  -0.099  0.00  0.00    -0.480 OA
BRANCH  21  22
ATOM     22  C   UNL     1       7.832  -6.687   0.399  0.00  0.00    +0.122 A 
ATOM     23  C   UNL     1       8.877  -5.963   0.981  0.00  0.00    +0.046 A 
ATOM     24  C   UNL     1       9.969  -6.596   1.487  0.00  0.00    +0.012 A 
ATOM     25  C   UNL     1      10.053  -7.997   1.427  0.00  0.00    -0.018 A 
ATOM     26  C   UNL     1      11.167  -8.684   1.941  0.00  0.00    +0.008 A 
ATOM     27  C   UNL     1      11.215 -10.042   1.866  0.00  0.00    +0.001 A 
ATOM     28  C   UNL     1      10.175 -10.766   1.286  0.00  0.00    +0.001 A 
ATOM     29  C   UNL     1       9.081 -10.136   0.778  0.00  0.00    +0.008 A 
ATOM     30  C   UNL     1       8.995  -8.734   0.837  0.00  0.00    -0.014 A 
ATOM     31  C   UNL     1       7.879  -8.050   0.328  0.00  0.00    +0.054 A 
ENDBRANCH  21  22
ENDBRANCH  20  21
ENDBRANCH   1  20
TORSDOF 7
