REMARK  Name = ZINC04222548
REMARK  8 active torsions:
REMARK  status: ('A' for Active; 'I' for Inactive)
REMARK    1  A    between atoms: C_1  and  C_2
REMARK    2  A    between atoms: C_5  and  O_29
REMARK    3  A    between atoms: C_7  and  C_26
REMARK    4  A    between atoms: C_7  and  C_27
REMARK    5  A    between atoms: C_14  and  C_16
REMARK    6  A    between atoms: C_21  and  C_23
REMARK    7  A    between atoms: C_23  and  C_24
REMARK    8  A    between atoms: C_27  and  O_28
REMARK                            x       y       z     vdW  Elec       q    Type
REMARK                         _______ _______ _______ _____ _____    ______ ____
ROOT
ATOM      1  C   UNL     1       0.943  -0.653   1.003  0.00  0.00    +0.012 C 
ATOM      2  C   UNL     1       0.081  -0.261  -0.199  0.00  0.00    -0.019 C 
ATOM      3  C   UNL     1      -0.107   1.260  -0.222  0.00  0.00    +0.010 C 
ATOM      4  C   UNL     1       1.238   1.959  -0.406  0.00  0.00    +0.032 C 
ATOM      5  C   UNL     1       1.842   1.518  -1.743  0.00  0.00    +0.123 C 
ATOM      6  C   UNL     1       2.075   0.009  -1.702  0.00  0.00    +0.021 C 
ATOM      7  C   UNL     1       0.749  -0.729  -1.493  0.00  0.00    +0.011 C 
ATOM      8  C   UNL     1       1.079  -2.229  -1.370  0.00  0.00    +0.049 C 
ATOM      9  C   UNL     1      -0.105  -2.944  -0.821  0.00  0.00    +0.014 A 
ATOM     10  C   UNL     1      -1.202  -2.405  -0.223  0.00  0.00    +0.056 A 
ATOM     11  N   UNL     1      -2.140  -3.248   0.195  0.00  0.00    -0.243 NA
ATOM     12  C   UNL     1      -2.034  -4.558   0.046  0.00  0.00    +0.109 A 
ATOM     13  S   UNL     1      -0.447  -4.684  -0.773  0.00  0.00    -0.072 S 
ATOM     14  C   UNL     1      -1.310  -0.894  -0.062  0.00  0.00    +0.055 C 
ATOM     15  C   UNL     1       2.701  -0.438  -3.025  0.00  0.00    +0.016 C 
ENDROOT
BRANCH  12  16
ATOM     16  C   UNL     1      -2.970  -5.628   0.447  0.00  0.00    +0.014 A 
ATOM     17  C   UNL     1      -2.676  -6.966   0.194  0.00  0.00    +0.018 A 
ATOM     18  C   UNL     1      -3.557  -7.916   0.580  0.00  0.00    +0.046 A 
ATOM     19  S   UNL     1      -4.862  -6.947   1.317  0.00  0.00    -0.104 S 
ATOM     20  C   UNL     1      -4.152  -5.328   1.072  0.00  0.00    +0.055 A 
ENDBRANCH  12  16
BRANCH   5  21
ATOM     21  O   UNL     1       3.086   2.190  -1.951  0.00  0.00    -0.391 OA
ATOM     22  H   UNL     1       3.012   3.153  -1.987  0.00  0.00    +0.210 HD
ENDBRANCH   5  21
BRANCH  14  23
ATOM     23  C   UNL     1      -1.884  -0.569   1.318  0.00  0.00    +0.135 C 
BRANCH  23  24
ATOM     24  C   UNL     1      -3.323  -1.012   1.381  0.00  0.00    +0.357 C 
ATOM     25  O   UNL     1      -3.837  -1.535   0.420  0.00  0.00    -0.246 OA
ATOM     26  O   UNL     1      -4.035  -0.827   2.504  0.00  0.00    -0.246 OA
ENDBRANCH  23  24
ENDBRANCH  14  23
BRANCH   6  27
ATOM     27  C   UNL     1       3.027  -0.325  -0.553  0.00  0.00    +0.165 C 
BRANCH  27  28
ATOM     28  O   UNL     1       4.314   0.236  -0.821  0.00  0.00    -0.394 OA
ATOM     29  H   UNL     1       4.970   0.063  -0.133  0.00  0.00    +0.209 HD
ENDBRANCH  27  28
ENDBRANCH   6  27
TORSDOF 6
