REMARK  Name = ZINC35851911
REMARK  4 active torsions:
REMARK  status: ('A' for Active; 'I' for Inactive)
REMARK    1  A    between atoms: C_4  and  C_7
REMARK    2  A    between atoms: C_7  and  C_9
REMARK    3  A    between atoms: C_11  and  C_30
REMARK    4  A    between atoms: C_33  and  N_36
REMARK                            x       y       z     vdW  Elec       q    Type
REMARK                         _______ _______ _______ _____ _____    ______ ____
ROOT
ATOM      1  C   UNL     1       3.587  -1.762  -0.286  0.00  0.00    +0.103 C 
ATOM      2  C   UNL     1       3.667  -2.720  -1.495  0.00  0.00    +0.050 C 
ATOM      3  C   UNL     1       4.640  -3.826  -1.070  0.00  0.00    +0.077 C 
ATOM      4  C   UNL     1       4.030  -5.216  -1.310  0.00  0.00    +0.090 C 
ATOM      5  S   UNL     1       4.072  -5.939   0.386  0.00  0.00    -0.144 S 
ATOM      6  C   UNL     1       4.282  -4.354   1.310  0.00  0.00    +0.155 C 
ATOM      7  N   UNL     1       5.054  -3.571   0.315  0.00  0.00    -0.271 NA
ATOM      8  C   UNL     1       4.794  -2.143   0.578  0.00  0.00    +0.137 C 
ATOM      9  C   UNL     1       5.993  -1.298   0.248  0.00  0.00    +0.006 A 
ATOM     10  C   UNL     1       6.717  -1.093  -0.905  0.00  0.00    +0.046 A 
ATOM     11  C   UNL     1       7.802  -0.231  -0.898  0.00  0.00    +0.124 A 
ATOM     12  C   UNL     1       8.152   0.423   0.272  0.00  0.00    +0.040 A 
ATOM     13  C   UNL     1       7.428   0.220   1.427  0.00  0.00    +0.026 A 
ATOM     14  C   UNL     1       6.337  -0.646   1.428  0.00  0.00    +0.039 A 
ATOM     15  N   UNL     1       5.461  -1.012   2.454  0.00  0.00    -0.283 N 
ATOM     16  C   UNL     1       4.527  -1.887   2.037  0.00  0.00    +0.243 C 
ATOM     17  O   UNL     1       3.641  -2.375   2.707  0.00  0.00    -0.273 OA
ATOM     18  F   UNL     1       8.515  -0.029  -2.027  0.00  0.00    -0.205 F 
ATOM     19  H   UNL     1       5.520  -0.674   3.362  0.00  0.00    +0.155 HD
ENDROOT
BRANCH   2  20
ATOM     20  C   UNL     1       2.309  -3.303  -1.791  0.00  0.00    -0.042 A 
ATOM     21  C   UNL     1       1.854  -3.367  -3.095  0.00  0.00    +0.006 A 
ATOM     22  C   UNL     1       0.608  -3.901  -3.366  0.00  0.00    +0.033 A 
ATOM     23  C   UNL     1      -0.182  -4.371  -2.334  0.00  0.00    +0.126 A 
ATOM     24  C   UNL     1       0.273  -4.308  -1.030  0.00  0.00    +0.033 A 
ATOM     25  C   UNL     1       1.521  -3.777  -0.759  0.00  0.00    +0.006 A 
BRANCH  23  26
ATOM     26  N   UNL     1      -1.517  -4.942  -2.624  0.00  0.00    +0.056 N 
ATOM     27  O   UNL     1      -1.915  -4.998  -3.764  0.00  0.00    -0.126 OA
ATOM     28  O   UNL     1      -2.208  -5.353  -1.722  0.00  0.00    -0.126 OA
ENDBRANCH  23  26
ENDBRANCH   2  20
BRANCH   1  29
ATOM     29  C   UNL     1       3.694  -0.329  -0.741  0.00  0.00    +0.169 C 
ATOM     30  O   UNL     1       4.246  -0.065  -1.788  0.00  0.00    -0.292 OA
BRANCH  29  34
ATOM     31  C   UNL     1       2.066   2.780   1.641  0.00  0.00    +0.000 A 
ATOM     32  C   UNL     1       2.696   3.086   0.447  0.00  0.00    +0.001 A 
ATOM     33  C   UNL     1       3.227   2.081  -0.333  0.00  0.00    +0.011 A 
ATOM     34  C   UNL     1       3.130   0.750   0.085  0.00  0.00    +0.018 A 
ATOM     35  C   UNL     1       2.492   0.450   1.293  0.00  0.00    +0.011 A 
ATOM     36  C   UNL     1       1.965   1.466   2.062  0.00  0.00    +0.001 A 
ENDBRANCH  29  34
ENDBRANCH   1  29
TORSDOF 4
