REMARK  Name = ZINC58856905
REMARK  6 active torsions:
REMARK  status: ('A' for Active; 'I' for Inactive)
REMARK    1  A    between atoms: C_1  and  C_2
REMARK    2  A    between atoms: C_8  and  N_13
REMARK    3  A    between atoms: C_9  and  C_10
REMARK    4  A    between atoms: C_14  and  C_16
REMARK    5  A    between atoms: C_16  and  N_17
REMARK    6  A    between atoms: C_19  and  N_24
REMARK                            x       y       z     vdW  Elec       q    Type
REMARK                         _______ _______ _______ _____ _____    ______ ____
ROOT
ATOM      1  C   UNL     1      -0.019   1.526   0.010  0.00  0.00    +0.008 C 
ATOM      2  C   UNL     1       0.002  -0.004   0.002  0.00  0.00    -0.009 C 
ATOM      3  C   UNL     1       0.732  -0.500  -1.250  0.00  0.00    +0.008 C 
ATOM      4  C   UNL     1       0.546  -2.012  -1.396  0.00  0.00    +0.037 C 
ATOM      5  C   UNL     1       0.936  -2.680  -0.086  0.00  0.00    -0.023 A 
ATOM      6  C   UNL     1       1.013  -1.977   1.065  0.00  0.00    -0.004 A 
ATOM      7  S   UNL     1       1.494  -3.165   2.285  0.00  0.00    -0.077 S 
ATOM      8  C   UNL     1       1.591  -4.539   1.324  0.00  0.00    +0.084 A 
ATOM      9  C   UNL     1       1.254  -4.090   0.057  0.00  0.00    +0.068 A 
ATOM     10  C   UNL     1       0.745  -0.515   1.246  0.00  0.00    +0.046 C 
ENDROOT
BRANCH   9  11
ATOM     11  C   UNL     1       1.219  -5.001  -1.091  0.00  0.00    +0.244 C 
ATOM     12  O   UNL     1       2.219  -5.170  -1.764  0.00  0.00    -0.270 OA
ATOM     13  N   UNL     1       0.080  -5.651  -1.402  0.00  0.00    -0.325 N 
ATOM     14  H   UNL     1      -0.717  -5.516  -0.865  0.00  0.00    +0.145 HD
ATOM     15  H   UNL     1       0.057  -6.254  -2.161  0.00  0.00    +0.145 HD
ENDBRANCH   9  11
BRANCH   8  16
ATOM     16  N   UNL     1       1.931  -5.826   1.710  0.00  0.00    -0.278 N 
ATOM     17  C   UNL     1       2.234  -6.086   2.998  0.00  0.00    +0.237 C 
ATOM     18  O   UNL     1       2.208  -5.194   3.819  0.00  0.00    -0.273 OA
ATOM     19  H   UNL     1       1.952  -6.540   1.054  0.00  0.00    +0.155 HD
BRANCH  17  20
ATOM     20  C   UNL     1       2.604  -7.485   3.418  0.00  0.00    +0.220 C 
BRANCH  20  21
ATOM     21  N   UNL     1       2.886  -7.505   4.855  0.00  0.00    -0.304 N 
ATOM     22  C   UNL     1       4.150  -7.275   5.294  0.00  0.00    +0.122 A 
ATOM     23  C   UNL     1       4.435  -7.289   6.617  0.00  0.00    +0.142 A 
ATOM     24  C   UNL     1       3.419  -7.543   7.550  0.00  0.00    +0.039 A 
ATOM     25  C   UNL     1       2.150  -7.774   7.106  0.00  0.00    +0.072 A 
ATOM     26  C   UNL     1       1.888  -7.747   5.726  0.00  0.00    +0.252 A 
ATOM     27  O   UNL     1       0.756  -7.948   5.316  0.00  0.00    -0.268 OA
BRANCH  23  28
ATOM     28  N   UNL     1       5.818  -7.036   7.079  0.00  0.00    +0.058 N 
ATOM     29  O   UNL     1       6.694  -6.818   6.275  0.00  0.00    -0.126 OA
ATOM     30  O   UNL     1       6.073  -7.049   8.261  0.00  0.00    -0.126 OA
ENDBRANCH  23  28
ENDBRANCH  20  21
ENDBRANCH  17  20
ENDBRANCH   8  16
TORSDOF 5
