REMARK  Name = ZINC03640443
REMARK  8 active torsions:
REMARK  status: ('A' for Active; 'I' for Inactive)
REMARK    1  A    between atoms: C_1  and  N_2
REMARK    2  A    between atoms: N_2  and  C_3
REMARK    3  A    between atoms: N_2  and  C_4
REMARK    4  A    between atoms: C_4  and  C_5
REMARK    5  A    between atoms: C_6  and  C_16
REMARK    6  A    between atoms: N_18  and  N_19
REMARK    7  A    between atoms: C_20  and  C_21
REMARK    8  A    between atoms: C_26  and  O_27
REMARK                            x       y       z     vdW  Elec       q    Type
REMARK                         _______ _______ _______ _____ _____    ______ ____
ROOT
ATOM      1  C   UNL     1       1.080   2.284   0.004  0.00  0.00    +0.063 A 
ATOM      2  C   UNL     1      -0.018   1.471   0.010  0.00  0.00    +0.170 A 
ATOM      3  N   UNL     1      -1.119   2.241   0.019  0.00  0.00    -0.124 NA
ATOM      4  N   UNL     1      -0.777   3.483   0.028  0.00  0.00    -0.058 NA
ATOM      5  N   UNL     1       0.623   3.556   0.015  0.00  0.00    -0.194 N 
ATOM      6  C   UNL     1       1.397   4.721   0.014  0.00  0.00    +0.240 A 
ATOM      7  C   UNL     1       0.883   6.094   0.026  0.00  0.00    +0.206 A 
ATOM      8  N   UNL     1       1.899   6.913   0.021  0.00  0.00    -0.032 NA
ATOM      9  O   UNL     1       3.083   6.135   0.006  0.00  0.00    -0.239 OA
ATOM     10  N   UNL     1       2.699   4.771   0.008  0.00  0.00    -0.027 NA
ATOM     11  N   UNL     1      -0.458   6.460   0.041  0.00  0.00    -0.337 N 
ATOM     12  H   UNL     1      -0.738   7.524   0.049  0.00  0.00    +0.144 HD
ATOM     13  H   UNL     1      -1.240   5.686   0.044  0.00  0.00    +0.144 HD
ENDROOT
BRANCH   2  14
ATOM     14  C   UNL     1       0.002  -0.004   0.002  0.00  0.00    +0.285 C 
ATOM     15  O   UNL     1       1.064  -0.598  -0.011  0.00  0.00    -0.267 OA
ATOM     16  N   UNL     1      -1.156  -0.694   0.009  0.00  0.00    -0.202 N 
ATOM     17  H   UNL     1      -2.116  -0.157   0.021  0.00  0.00    +0.178 HD
BRANCH  16  18
ATOM     18  N   UNL     1      -1.137  -2.095   0.002  0.00  0.00    -0.187 NA
ATOM     19  C   UNL     1      -2.252  -2.759   0.009  0.00  0.00    +0.142 C 
BRANCH  19  20
ATOM     20  C   UNL     1      -2.232  -4.232   0.001  0.00  0.00    +0.037 A 
ATOM     21  C   UNL     1      -3.430  -4.951   0.008  0.00  0.00    +0.028 A 
ATOM     22  C   UNL     1      -3.404  -6.331   0.000  0.00  0.00    +0.019 A 
ATOM     23  C   UNL     1      -2.195  -7.006  -0.016  0.00  0.00    +0.019 A 
ATOM     24  C   UNL     1      -1.003  -6.306  -0.023  0.00  0.00    +0.047 A 
ATOM     25  C   UNL     1      -1.011  -4.920  -0.021  0.00  0.00    +0.126 A 
ATOM     26 BR   UNL     1      -5.026  -7.303   0.011  0.00  0.00    -0.050 Br
BRANCH  25  27
ATOM     27  O   UNL     1       0.159  -4.232  -0.034  0.00  0.00    -0.506 OA
ATOM     28  H   UNL     1       1.116  -4.774  -0.050  0.00  0.00    +0.292 HD
ENDBRANCH  25  27
ENDBRANCH  19  20
ENDBRANCH  16  18
ENDBRANCH   2  14
BRANCH   1  29
ATOM     29  C   UNL     1       2.522   1.847  -0.012  0.00  0.00    -0.021 C 
BRANCH  29  31
ATOM     30  C   UNL     1       4.322   1.050   1.398  0.00  0.00    -0.096 C 
ATOM     31  N   UNL     1       3.004   1.698   1.368  0.00  0.00    +0.380 N 
ATOM     32  C   UNL     1       3.039   2.996   2.056  0.00  0.00    -0.096 C 
ATOM     33  H   UNL     1       2.296   1.050   1.905  0.00  0.00    -0.082 HD
ENDBRANCH  29  31
ENDBRANCH   1  29
TORSDOF 6
