REMARK  Name = ZINC38576415
REMARK  7 active torsions:
REMARK  status: ('A' for Active; 'I' for Inactive)
REMARK    1  A    between atoms: C_1  and  C_2
REMARK    2  A    between atoms: C_4  and  S_9
REMARK    3  A    between atoms: C_5  and  C_8
REMARK    4  A    between atoms: S_9  and  N_12
REMARK    5  A    between atoms: N_12  and  C_13
REMARK    6  A    between atoms: C_16  and  C_27
REMARK    7  A    between atoms: N_18  and  C_19
REMARK                            x       y       z     vdW  Elec       q    Type
REMARK                         _______ _______ _______ _____ _____    ______ ____
ROOT
ATOM      1  C   UNL     1       2.297   2.079  -4.085  0.00  0.00    +0.188 C 
ATOM      2  C   UNL     1       3.328   2.522  -5.101  0.00  0.00    +0.035 C 
ATOM      3  C   UNL     1       3.813   3.685  -4.671  0.00  0.00    +0.048 C 
ATOM      4  N   UNL     1       3.217   4.070  -3.479  0.00  0.00    -0.275 N 
ATOM      5  N   UNL     1       2.296   3.147  -3.068  0.00  0.00    -0.202 NA
ATOM      6  H   UNL     1       3.428   4.886  -2.998  0.00  0.00    +0.167 HD
ENDROOT
BRANCH   5   7
ATOM      7  C   UNL     1       0.963   3.753  -2.942  0.00  0.00    +0.100 C 
ATOM      8  C   UNL     1       0.712   4.705  -4.123  0.00  0.00    +0.045 C 
ATOM      9  C   UNL     1      -0.533   5.581  -3.839  0.00  0.00    +0.167 C 
ATOM     10  S   UNL     1      -0.551   5.673  -2.002  0.00  0.00    -0.029 S 
ATOM     11  O   UNL     1      -0.239   7.000  -1.603  0.00  0.00    -0.174 OA
ATOM     12  O   UNL     1      -1.739   5.059  -1.521  0.00  0.00    -0.174 OA
ATOM     13  C   UNL     1       0.884   4.581  -1.627  0.00  0.00    +0.186 C 
ENDBRANCH   5   7
BRANCH   3  14
ATOM     14  C   UNL     1       4.853   4.469  -5.377  0.00  0.00    -0.003 A 
ATOM     15  C   UNL     1       5.388   4.001  -6.577  0.00  0.00    +0.010 A 
ATOM     16  C   UNL     1       6.356   4.736  -7.230  0.00  0.00    +0.001 A 
ATOM     17  C   UNL     1       6.796   5.934  -6.697  0.00  0.00    +0.000 A 
ATOM     18  C   UNL     1       6.270   6.403  -5.507  0.00  0.00    +0.001 A 
ATOM     19  C   UNL     1       5.297   5.680  -4.848  0.00  0.00    +0.010 A 
ENDBRANCH   3  14
BRANCH   1  20
ATOM     20  N   UNL     1       0.978   1.967  -4.712  0.00  0.00    -0.168 NA
ATOM     21  H   UNL     1       0.321   2.670  -4.587  0.00  0.00    +0.150 HD
BRANCH  20  22
ATOM     22  S   UNL     1       0.608   0.641  -5.633  0.00  0.00    +0.060 S 
ATOM     23  O   UNL     1       1.688   0.461  -6.538  0.00  0.00    -0.153 OA
ATOM     24  O   UNL     1      -0.733   0.813  -6.072  0.00  0.00    -0.153 OA
BRANCH  22  27
ATOM     25  C   UNL     1      -0.578  -0.072  -2.460  0.00  0.00    +0.041 C 
ATOM     26  C   UNL     1      -0.438  -1.151  -3.535  0.00  0.00    +0.176 C 
ATOM     27  C   UNL     1       0.611  -0.756  -4.560  0.00  0.00    +0.131 C 
ATOM     28  C   UNL     1       1.536  -1.713  -4.459  0.00  0.00    +0.084 C 
ATOM     29  N   UNL     1       1.187  -2.621  -3.521  0.00  0.00    -0.157 NA
ATOM     30  N   UNL     1       0.108  -2.392  -2.959  0.00  0.00    -0.178 NA
ATOM     31  C   UNL     1       2.798  -1.773  -5.280  0.00  0.00    +0.069 C 
ENDBRANCH  22  27
ENDBRANCH  20  22
ENDBRANCH   1  20
TORSDOF 5
