REMARK  Name = ZINC09541804
REMARK  9 active torsions:
REMARK  status: ('A' for Active; 'I' for Inactive)
REMARK    1  A    between atoms: C_1  and  C_2
REMARK    2  A    between atoms: C_4  and  C_33
REMARK    3  A    between atoms: C_5  and  N_9
REMARK    4  A    between atoms: C_10  and  C_12
REMARK    5  A    between atoms: C_12  and  S_13
REMARK    6  A    between atoms: S_13  and  C_14
REMARK    7  A    between atoms: C_17  and  C_20
REMARK    8  A    between atoms: N_18  and  N_19
REMARK    9  A    between atoms: C_22  and  C_26
REMARK                            x       y       z     vdW  Elec       q    Type
REMARK                         _______ _______ _______ _____ _____    ______ ____
ROOT
ATOM      1  C   UNL     1       1.242  -8.707   2.445  0.00  0.00    +0.209 A 
ATOM      2  N   UNL     1       1.036  -9.347   1.315  0.00  0.00    -0.120 NA
ATOM      3  N   UNL     1       1.222 -10.607   1.480  0.00  0.00    -0.125 NA
ATOM      4  C   UNL     1       1.558 -10.852   2.727  0.00  0.00    +0.199 A 
ATOM      5  N   UNL     1       1.586  -9.640   3.382  0.00  0.00    -0.223 N 
ENDROOT
BRANCH   4   6
ATOM      6  C   UNL     1       1.853 -12.171   3.312  0.00  0.00    +0.105 A 
ATOM      7  C   UNL     1       2.138 -13.317   2.622  0.00  0.00    +0.061 A 
ATOM      8  C   UNL     1       2.356 -14.339   3.560  0.00  0.00    +0.093 A 
ATOM      9  N   UNL     1       2.210 -13.833   4.767  0.00  0.00    -0.173 NA
ATOM     10  N   UNL     1       1.900 -12.473   4.643  0.00  0.00    -0.273 N 
ATOM     11  H   UNL     1       1.743 -11.854   5.374  0.00  0.00    +0.189 HD
BRANCH   8  12
ATOM     12  C   UNL     1       2.693 -15.749   3.244  0.00  0.00    +0.002 A 
ATOM     13  C   UNL     1       2.825 -16.157   1.918  0.00  0.00    +0.011 A 
ATOM     14  C   UNL     1       3.138 -17.469   1.630  0.00  0.00    +0.020 A 
ATOM     15  C   UNL     1       3.323 -18.381   2.655  0.00  0.00    +0.041 A 
ATOM     16  C   UNL     1       3.193 -17.981   3.974  0.00  0.00    +0.020 A 
ATOM     17  C   UNL     1       2.885 -16.669   4.273  0.00  0.00    +0.011 A 
ATOM     18 CL   UNL     1       3.717 -20.031   2.286  0.00  0.00    -0.084 Cl
ENDBRANCH   8  12
ENDBRANCH   4   6
BRANCH   5  19
ATOM     19  N   UNL     1       1.893  -9.419   4.694  0.00  0.00    -0.295 N 
ATOM     20  H   UNL     1       1.058  -9.390   5.261  0.00  0.00    +0.163 HD
ATOM     21  H   UNL     1       2.539 -10.114   5.037  0.00  0.00    +0.163 HD
ENDBRANCH   5  19
BRANCH   1  22
ATOM     22  S   UNL     1       1.106  -6.970   2.703  0.00  0.00    -0.075 S 
BRANCH  22  23
ATOM     23  C   UNL     1       0.621  -6.322   1.079  0.00  0.00    +0.173 C 
BRANCH  23  25
ATOM     24  N   UNL     1       0.111  -4.124   0.067  0.00  0.00    -0.283 N 
ATOM     25  C   UNL     1       0.468  -4.825   1.160  0.00  0.00    +0.228 C 
ATOM     26  O   UNL     1       0.667  -4.251   2.210  0.00  0.00    -0.275 OA
ATOM     27  H   UNL     1      -0.098  -4.587  -0.760  0.00  0.00    +0.155 HD
BRANCH  24  32
ATOM     28  C   UNL     1      -0.175   1.539   0.296  0.00  0.00    +0.044 C 
ATOM     29  C   UNL     1      -0.098   0.035   0.235  0.00  0.00    -0.049 A 
ATOM     30  C   UNL     1      -1.084  -0.680  -0.420  0.00  0.00    +0.008 A 
ATOM     31  C   UNL     1      -1.017  -2.058  -0.478  0.00  0.00    -0.028 A 
ATOM     32  C   UNL     1       0.041  -2.727   0.123  0.00  0.00    +0.055 A 
ATOM     33  C   UNL     1       1.030  -2.006   0.780  0.00  0.00    +0.063 A 
ATOM     34  C   UNL     1       0.961  -0.626   0.829  0.00  0.00    +0.025 A 
ATOM     35 CL   UNL     1       2.356  -2.837   1.533  0.00  0.00    -0.082 Cl
ATOM     36  C   UNL     1      -2.093  -2.836  -1.192  0.00  0.00    +0.046 C 
ENDBRANCH  24  32
ENDBRANCH  23  25
ENDBRANCH  22  23
ENDBRANCH   1  22
TORSDOF 7
