REMARK  Name = ZINC40573903
REMARK  5 active torsions:
REMARK  status: ('A' for Active; 'I' for Inactive)
REMARK    1  A    between atoms: C_1  and  N_2
REMARK    2  A    between atoms: N_2  and  C_3
REMARK    3  A    between atoms: C_3  and  C_4
REMARK    4  A    between atoms: N_9  and  C_10
REMARK    5  A    between atoms: C_15  and  C_16
REMARK                            x       y       z     vdW  Elec       q    Type
REMARK                         _______ _______ _______ _____ _____    ______ ____
ROOT
ATOM      1  C   UNL     1      -0.067   1.473   0.002  0.00  0.00    +0.134 C 
ATOM      2  N   UNL     1      -0.029   0.008  -0.002  0.00  0.00    -0.280 N 
ATOM      3  C   UNL     1      -0.014  -0.662  -1.171  0.00  0.00    +0.307 C 
ATOM      4  O   UNL     1       0.018  -1.877  -1.175  0.00  0.00    -0.252 OA
ATOM      5  N   UNL     1      -0.033   0.015  -2.337  0.00  0.00    -0.268 N 
ATOM      6  H   UNL     1      -0.122   0.980  -2.335  0.00  0.00    +0.156 HD
ENDROOT
BRANCH   5   7
ATOM      7  C   UNL     1       0.076  -0.672  -3.542  0.00  0.00    +0.050 A 
ATOM      8  C   UNL     1      -0.498  -1.928  -3.684  0.00  0.00    +0.039 A 
ATOM      9  C   UNL     1      -0.388  -2.608  -4.881  0.00  0.00    +0.020 A 
ATOM     10  C   UNL     1       0.295  -2.045  -5.949  0.00  0.00    +0.016 A 
ATOM     11  C   UNL     1       0.871  -0.800  -5.828  0.00  0.00    +0.018 A 
ATOM     12  C   UNL     1       0.764  -0.096  -4.623  0.00  0.00    +0.084 A 
ATOM     13 BR   UNL     1      -1.174  -4.318  -5.065  0.00  0.00    -0.050 Br
BRANCH  12  14
ATOM     14  C   UNL     1       1.371   1.236  -4.489  0.00  0.00    +0.388 C 
ATOM     15  O   UNL     1       1.883   1.776  -5.460  0.00  0.00    -0.241 OA
ATOM     16  O   UNL     1       1.365   1.805  -3.405  0.00  0.00    -0.241 OA
ENDBRANCH  12  14
ENDBRANCH   5   7
BRANCH   2  17
ATOM     17  C   UNL     1      -0.009  -0.727   1.264  0.00  0.00    +0.204 C 
BRANCH  17  18
ATOM     18  C   UNL     1      -1.422  -1.016   1.701  0.00  0.00    +0.228 C 
ATOM     19  O   UNL     1      -2.355  -0.644   1.020  0.00  0.00    -0.274 OA
ATOM     20  N   UNL     1      -1.650  -1.688   2.847  0.00  0.00    -0.328 N 
ATOM     21  H   UNL     1      -0.904  -1.985   3.391  0.00  0.00    +0.145 HD
ATOM     22  H   UNL     1      -2.559  -1.873   3.127  0.00  0.00    +0.145 HD
ENDBRANCH  17  18
ENDBRANCH   2  17
TORSDOF 4
