REMARK  Name = ZINC58915014
REMARK  13 active torsions:
REMARK  status: ('A' for Active; 'I' for Inactive)
REMARK    1  A    between atoms: C_1  and  C_2
REMARK    2  A    between atoms: C_7  and  N_8
REMARK    3  A    between atoms: C_9  and  C_38
REMARK    4  A    between atoms: C_11  and  C_14
REMARK    5  A    between atoms: C_12  and  C_13
REMARK    6  A    between atoms: N_15  and  N_16
REMARK    7  A    between atoms: C_17  and  C_19
REMARK    8  A    between atoms: C_19  and  N_20
REMARK    9  A    between atoms: N_20  and  C_21
REMARK   10  A    between atoms: N_20  and  S_29
REMARK   11  A    between atoms: C_23  and  C_28
REMARK   12  A    between atoms: C_25  and  C_27
REMARK   13  A    between atoms: S_29  and  C_32
REMARK                            x       y       z     vdW  Elec       q    Type
REMARK                         _______ _______ _______ _____ _____    ______ ____
ROOT
ATOM      1  N   UNL     1       5.602  -0.108   4.625  0.00  0.00    -0.206 N 
ATOM      2  C   UNL     1       6.543   0.693   5.162  0.00  0.00    +0.251 C 
ATOM      3  O   UNL     1       7.708   0.548   4.858  0.00  0.00    -0.272 OA
ATOM      4  H   UNL     1       4.670   0.007   4.868  0.00  0.00    +0.177 HD
ENDROOT
BRANCH   1   6
ATOM      5  C   UNL     1       5.063  -1.879   3.196  0.00  0.00    +0.140 C 
ATOM      6  N   UNL     1       5.970  -1.108   3.714  0.00  0.00    -0.188 NA
BRANCH   5  10
ATOM      7  N   UNL     1       6.634  -4.254   0.924  0.00  0.00    -0.317 N 
ATOM      8  C   UNL     1       5.335  -4.652   0.785  0.00  0.00    +0.022 A 
ATOM      9  C   UNL     1       4.557  -3.880   1.566  0.00  0.00    +0.032 A 
ATOM     10  C   UNL     1       5.450  -2.931   2.238  0.00  0.00    +0.016 A 
ATOM     11  C   UNL     1       6.712  -3.218   1.803  0.00  0.00    +0.030 A 
ATOM     12  C   UNL     1       7.974  -2.509   2.222  0.00  0.00    +0.064 C 
ATOM     13  C   UNL     1       4.851  -5.773  -0.098  0.00  0.00    +0.064 C 
BRANCH   7  20
ATOM     14  C   UNL     1       7.398  -3.183  -1.600  0.00  0.00    +0.046 C 
ATOM     15  C   UNL     1       8.132  -4.339  -0.971  0.00  0.00    -0.027 A 
ATOM     16  C   UNL     1       9.212  -4.906  -1.618  0.00  0.00    +0.005 A 
ATOM     17  C   UNL     1       9.886  -5.967  -1.042  0.00  0.00    +0.000 A 
ATOM     18  C   UNL     1       9.481  -6.463   0.184  0.00  0.00    +0.002 A 
ATOM     19  C   UNL     1       8.402  -5.900   0.836  0.00  0.00    +0.026 A 
ATOM     20  C   UNL     1       7.726  -4.831   0.262  0.00  0.00    +0.049 A 
ENDBRANCH   7  20
ENDBRANCH   5  10
ENDBRANCH   1   6
BRANCH   2  21
ATOM     21  C   UNL     1       6.147   1.767   6.142  0.00  0.00    +0.228 C 
BRANCH  21  22
ATOM     22  N   UNL     1       7.342   2.495   6.577  0.00  0.00    -0.194 N 
BRANCH  22  23
ATOM     23  C   UNL     1       7.830   3.558   5.813  0.00  0.00    +0.052 A 
ATOM     24  C   UNL     1       9.051   3.443   5.160  0.00  0.00    +0.028 A 
ATOM     25  C   UNL     1       9.530   4.496   4.405  0.00  0.00    -0.048 A 
ATOM     26  C   UNL     1       8.796   5.663   4.299  0.00  0.00    +0.006 A 
ATOM     27  C   UNL     1       7.580   5.780   4.947  0.00  0.00    -0.048 A 
ATOM     28  C   UNL     1       7.092   4.729   5.699  0.00  0.00    +0.028 A 
ATOM     29  C   UNL     1       6.783   7.054   4.828  0.00  0.00    +0.044 C 
ATOM     30  C   UNL     1      10.854   4.373   3.697  0.00  0.00    +0.044 C 
ENDBRANCH  22  23
BRANCH  22  31
ATOM     31  S   UNL     1       8.115   2.057   7.975  0.00  0.00    +0.075 S 
ATOM     32  O   UNL     1       8.937   3.155   8.345  0.00  0.00    -0.150 OA
ATOM     33  O   UNL     1       7.120   1.525   8.839  0.00  0.00    -0.150 OA
BRANCH  31  34
ATOM     34  C   UNL     1       9.200   0.728   7.576  0.00  0.00    +0.109 A 
ATOM     35  C   UNL     1       8.716  -0.566   7.519  0.00  0.00    +0.029 A 
ATOM     36  C   UNL     1       9.567  -1.609   7.206  0.00  0.00    +0.002 A 
ATOM     37  C   UNL     1      10.902  -1.359   6.950  0.00  0.00    +0.000 A 
ATOM     38  C   UNL     1      11.386  -0.066   7.007  0.00  0.00    +0.002 A 
ATOM     39  C   UNL     1      10.534   0.978   7.315  0.00  0.00    +0.029 A 
ENDBRANCH  31  34
ENDBRANCH  22  31
ENDBRANCH  21  22
ENDBRANCH   2  21
TORSDOF 8
