REMARK  Name = ZINC12551938
REMARK  8 active torsions:
REMARK  status: ('A' for Active; 'I' for Inactive)
REMARK    1  A    between atoms: C_1  and  C_2
REMARK    2  A    between atoms: C_2  and  C_4
REMARK    3  A    between atoms: C_2  and  N_20
REMARK    4  A    between atoms: N_6  and  C_7
REMARK    5  A    between atoms: C_7  and  C_8
REMARK    6  A    between atoms: C_8  and  C_10
REMARK    7  A    between atoms: C_8  and  N_68
REMARK    8  A    between atoms: C_21  and  C_23
REMARK                            x       y       z     vdW  Elec       q    Type
REMARK                         _______ _______ _______ _____ _____    ______ ____
ROOT
ATOM      1  C   UNL     1      -2.399   7.757  -2.372  0.00  0.00    +0.233 C 
ATOM      2  O   UNL     1      -2.522   6.979  -3.295  0.00  0.00    -0.274 OA
ATOM      3  N   UNL     1      -2.387   9.084  -2.606  0.00  0.00    -0.315 N 
ATOM      4  H   UNL     1      -2.289   9.706  -1.868  0.00  0.00    +0.149 HD
ENDROOT
BRANCH   1   6
ATOM      5  C   UNL     1      -3.407   7.775  -0.106  0.00  0.00    +0.038 C 
ATOM      6  C   UNL     1      -2.259   7.239  -0.964  0.00  0.00    +0.156 C 
BRANCH   6   7
ATOM      7  N   UNL     1      -2.301   5.774  -0.975  0.00  0.00    -0.304 N 
ATOM      8  C   UNL     1      -1.716   5.075   0.017  0.00  0.00    +0.220 C 
ATOM      9  O   UNL     1      -1.154   5.658   0.920  0.00  0.00    -0.275 OA
ATOM     10  H   UNL     1      -2.751   5.308  -1.698  0.00  0.00    +0.149 HD
BRANCH   8  11
ATOM     11  C   UNL     1      -1.759   3.569   0.005  0.00  0.00    +0.048 C 
ATOM     12  C   UNL     1      -1.080   3.049  -1.264  0.00  0.00    +0.019 C 
ATOM     13  C   UNL     1      -1.124   1.520  -1.276  0.00  0.00    -0.009 C 
ATOM     14  C   UNL     1      -0.391   0.979  -0.047  0.00  0.00    +0.007 C 
ATOM     15  C   UNL     1      -1.070   1.498   1.221  0.00  0.00    -0.009 C 
ATOM     16  C   UNL     1      -1.026   3.027   1.234  0.00  0.00    +0.019 C 
ATOM     17  C   UNL     1      -2.527   1.030   1.249  0.00  0.00    +0.007 C 
ATOM     18  C   UNL     1      -3.260   1.571   0.020  0.00  0.00    -0.009 C 
ATOM     19  C   UNL     1      -2.580   1.052  -1.249  0.00  0.00    +0.007 C 
ATOM     20  C   UNL     1      -3.216   3.100   0.032  0.00  0.00    +0.019 C 
ENDBRANCH   8  11
ENDBRANCH   6   7
ENDBRANCH   1   6
BRANCH   3  21
ATOM     21  C   UNL     1      -2.523   9.588  -3.975  0.00  0.00    +0.093 C 
BRANCH  21  22
ATOM     22  C   UNL     1      -2.479  11.117  -3.962  0.00  0.00    -0.020 C 
BRANCH  22  23
ATOM     23  C   UNL     1      -2.495  11.631  -5.379  0.00  0.00    -0.059 A 
ATOM     24  C   UNL     1      -3.203  12.777  -5.690  0.00  0.00    +0.002 A 
ATOM     25  C   UNL     1      -3.215  13.251  -6.988  0.00  0.00    +0.000 A 
ATOM     26  C   UNL     1      -2.525  12.575  -7.977  0.00  0.00    +0.000 A 
ATOM     27  C   UNL     1      -1.821  11.427  -7.667  0.00  0.00    +0.000 A 
ATOM     28  C   UNL     1      -1.806  10.955  -6.368  0.00  0.00    +0.002 A 
ENDBRANCH  22  23
BRANCH  22  33
ATOM     29  C   UNL     1      -0.050  11.216  -4.092  0.00  0.00    -0.078 C 
ATOM     30  C   UNL     1       1.032  12.182  -3.548  0.00  0.00    -0.020 C 
ATOM     31  C   UNL     1       0.238  13.484  -3.295  0.00  0.00    -0.020 C 
ATOM     32  C   UNL     1      -1.230  13.039  -3.156  0.00  0.00    -0.078 C 
ATOM     33  N   UNL     1      -1.228  11.581  -3.290  0.00  0.00    +0.385 N 
ATOM     34  H   UNL     1      -1.164  11.148  -2.362  0.00  0.00    -0.081 HD
ENDBRANCH  22  33
ENDBRANCH  21  22
ENDBRANCH   3  21
TORSDOF 7
