REMARK  Name = ZINC08636640
REMARK  6 active torsions:
REMARK  status: ('A' for Active; 'I' for Inactive)
REMARK    1  A    between atoms: C_4  and  C_7
REMARK    2  A    between atoms: C_9  and  C_29
REMARK    3  A    between atoms: C_13  and  N_28
REMARK    4  A    between atoms: C_14  and  C_16
REMARK    5  A    between atoms: N_18  and  N_19
REMARK    6  A    between atoms: C_20  and  C_21
REMARK                            x       y       z     vdW  Elec       q    Type
REMARK                         _______ _______ _______ _____ _____    ______ ____
ROOT
ATOM      1  C   UNL     1       0.002  -0.004   0.002  0.00  0.00    -0.002 A 
ATOM      2  C   UNL     1       0.770  -0.707  -0.923  0.00  0.00    +0.037 A 
ATOM      3  C   UNL     1       0.758  -2.101  -0.893  0.00  0.00    +0.075 A 
ATOM      4  N   UNL     1       0.034  -2.768  -0.005  0.00  0.00    -0.212 NA
ATOM      5  C   UNL     1      -0.714  -2.151   0.897  0.00  0.00    +0.231 A 
ATOM      6  C   UNL     1      -0.750  -0.746   0.933  0.00  0.00    +0.069 A 
ATOM      7  C   UNL     1      -1.659  -0.390   2.024  0.00  0.00    +0.086 A 
ATOM      8  C   UNL     1      -2.088  -1.589   2.559  0.00  0.00    +0.215 A 
ATOM      9  O   UNL     1      -1.518  -2.610   1.878  0.00  0.00    -0.430 OA
ENDROOT
BRANCH   1  13
ATOM     10  C   UNL     1      -0.056   4.246   0.024  0.00  0.00    +0.000 A 
ATOM     11  C   UNL     1       1.153   3.573   0.010  0.00  0.00    +0.001 A 
ATOM     12  C   UNL     1       1.178   2.194   0.003  0.00  0.00    +0.008 A 
ATOM     13  C   UNL     1      -0.018   1.477   0.010  0.00  0.00    -0.017 A 
ATOM     14  C   UNL     1      -1.234   2.161   0.020  0.00  0.00    +0.008 A 
ATOM     15  C   UNL     1      -1.246   3.541   0.033  0.00  0.00    +0.001 A 
ENDBRANCH   1  13
BRANCH   3  16
ATOM     16  C   UNL     1       1.573  -2.854  -1.876  0.00  0.00    +0.000 A 
ATOM     17  C   UNL     1       2.337  -2.170  -2.821  0.00  0.00    +0.010 A 
ATOM     18  C   UNL     1       3.098  -2.877  -3.730  0.00  0.00    +0.001 A 
ATOM     19  C   UNL     1       3.096  -4.260  -3.712  0.00  0.00    +0.000 A 
ATOM     20  C   UNL     1       2.336  -4.943  -2.779  0.00  0.00    +0.001 A 
ATOM     21  C   UNL     1       1.575  -4.248  -1.862  0.00  0.00    +0.010 A 
ENDBRANCH   3  16
BRANCH   8  22
ATOM     22  C   UNL     1      -2.983  -1.728   3.646  0.00  0.00    +0.300 C 
ATOM     23  O   UNL     1      -3.440  -0.738   4.189  0.00  0.00    -0.265 OA
ATOM     24  N   UNL     1      -3.329  -2.956   4.081  0.00  0.00    -0.200 N 
ATOM     25  H   UNL     1      -2.965  -3.744   3.648  0.00  0.00    +0.178 HD
BRANCH  24  26
ATOM     26  N   UNL     1      -4.215  -3.094   5.157  0.00  0.00    -0.187 NA
ATOM     27  C   UNL     1      -4.549  -4.276   5.576  0.00  0.00    +0.138 C 
BRANCH  27  28
ATOM     28  C   UNL     1      -5.481  -4.421   6.709  0.00  0.00    -0.005 A 
ATOM     29  C   UNL     1      -6.003  -3.288   7.338  0.00  0.00    +0.011 A 
ATOM     30  C   UNL     1      -6.879  -3.430   8.393  0.00  0.00    +0.020 A 
ATOM     31  C   UNL     1      -7.233  -4.694   8.837  0.00  0.00    +0.041 A 
ATOM     32  C   UNL     1      -6.715  -5.821   8.222  0.00  0.00    +0.020 A 
ATOM     33  C   UNL     1      -5.842  -5.692   7.162  0.00  0.00    +0.011 A 
ATOM     34 CL   UNL     1      -8.330  -4.864  10.171  0.00  0.00    -0.084 Cl
ENDBRANCH  27  28
ENDBRANCH  24  26
ENDBRANCH   8  22
BRANCH   7  35
ATOM     35  N   UNL     1      -2.012   0.885   2.438  0.00  0.00    -0.354 N 
ATOM     36  H   UNL     1      -2.624   1.002   3.181  0.00  0.00    +0.142 HD
ATOM     37  H   UNL     1      -1.645   1.661   1.985  0.00  0.00    +0.142 HD
ENDBRANCH   7  35
TORSDOF 6
