REMARK  Name = ZINC36205724
REMARK  11 active torsions:
REMARK  status: ('A' for Active; 'I' for Inactive)
REMARK    1  A    between atoms: C_1  and  C_2
REMARK    2  A    between atoms: C_7  and  C_8
REMARK    3  A    between atoms: C_17  and  C_19
REMARK    4  A    between atoms: C_19  and  N_20
REMARK    5  A    between atoms: N_20  and  C_21
REMARK    6  A    between atoms: N_20  and  C_28
REMARK    7  A    between atoms: C_21  and  C_22
REMARK    8  A    between atoms: C_28  and  C_29
REMARK    9  A    between atoms: C_29  and  C_30
REMARK   10  A    between atoms: C_29  and  C_31
REMARK   11  A    between atoms: C_29  and  O_33
REMARK                            x       y       z     vdW  Elec       q    Type
REMARK                         _______ _______ _______ _____ _____    ______ ____
ROOT
ATOM      1  C   UNL     1      -4.539   8.860   2.676  0.00  0.00    +0.004 A 
ATOM      2  C   UNL     1      -3.947   9.826   3.419  0.00  0.00    +0.056 A 
ATOM      3  S   UNL     1      -3.305   8.934   4.822  0.00  0.00    -0.076 S 
ATOM      4  C   UNL     1      -3.841   7.300   4.383  0.00  0.00    +0.116 A 
ATOM      5  C   UNL     1      -4.510   7.486   3.162  0.00  0.00    +0.080 A 
ATOM      6  C   UNL     1      -5.061   6.304   2.571  0.00  0.00    +0.260 A 
ATOM      7  O   UNL     1      -5.655   6.363   1.509  0.00  0.00    -0.267 OA
ATOM      8  N   UNL     1      -4.911   5.127   3.206  0.00  0.00    -0.312 N 
ATOM      9  H   UNL     1      -5.282   4.323   2.810  0.00  0.00    +0.170 HD
ATOM     10  C   UNL     1      -4.251   5.042   4.389  0.00  0.00    +0.094 A 
ATOM     11  N   UNL     1      -3.730   6.101   4.949  0.00  0.00    -0.229 NA
ENDROOT
BRANCH   1  18
ATOM     12  C   UNL     1      -7.400   8.516   2.424  0.00  0.00    +0.044 C 
ATOM     13  C   UNL     1      -6.587   9.033   1.265  0.00  0.00    -0.043 A 
ATOM     14  C   UNL     1      -7.206   9.351   0.074  0.00  0.00    +0.004 A 
ATOM     15  C   UNL     1      -6.461   9.825  -0.991  0.00  0.00    +0.000 A 
ATOM     16  C   UNL     1      -5.092   9.983  -0.868  0.00  0.00    +0.001 A 
ATOM     17  C   UNL     1      -4.462   9.668   0.318  0.00  0.00    +0.009 A 
ATOM     18  C   UNL     1      -5.209   9.195   1.397  0.00  0.00    -0.014 A 
ENDBRANCH   1  18
BRANCH  10  19
ATOM     19  C   UNL     1      -4.108   3.702   5.063  0.00  0.00    -0.003 C 
BRANCH  19  20
ATOM     20  N   UNL     1      -3.484   3.881   6.381  0.00  0.00    +0.389 N 
ATOM     21  H   UNL     1      -2.613   4.380   6.276  0.00  0.00    -0.081 HD
BRANCH  20  22
ATOM     22  C   UNL     1      -4.386   4.648   7.250  0.00  0.00    -0.042 C 
BRANCH  22  23
ATOM     23  C   UNL     1      -3.697   4.937   8.559  0.00  0.00    -0.064 A 
ATOM     24  C   UNL     1      -3.809   4.047   9.610  0.00  0.00    +0.002 A 
ATOM     25  C   UNL     1      -3.177   4.312  10.811  0.00  0.00    +0.000 A 
ATOM     26  C   UNL     1      -2.433   5.468  10.960  0.00  0.00    +0.000 A 
ATOM     27  C   UNL     1      -2.321   6.358   9.908  0.00  0.00    +0.000 A 
ATOM     28  C   UNL     1      -2.950   6.091   8.706  0.00  0.00    +0.002 A 
ENDBRANCH  22  23
ENDBRANCH  20  22
BRANCH  20  29
ATOM     29  C   UNL     1      -3.225   2.566   6.983  0.00  0.00    -0.039 C 
BRANCH  29  30
ATOM     30  C   UNL     1      -2.154   1.835   6.171  0.00  0.00    +0.067 C 
ATOM     31  C   UNL     1      -0.939   2.748   5.991  0.00  0.00    +0.044 C 
BRANCH  30  32
ATOM     32  C   UNL     1      -1.738   0.584   6.899  0.00  0.00    -0.003 C 
ATOM     33  C   UNL     1      -1.891  -0.587   6.331  0.00  0.00    +0.006 C 
ENDBRANCH  30  32
BRANCH  30  34
ATOM     34  O   UNL     1      -2.682   1.488   4.889  0.00  0.00    -0.387 OA
ATOM     35  H   UNL     1      -3.503   0.979   4.927  0.00  0.00    +0.210 HD
ENDBRANCH  30  34
ENDBRANCH  29  30
ENDBRANCH  20  29
ENDBRANCH  19  20
ENDBRANCH  10  19
TORSDOF 9
