REMARK  Name = ZINC22289196
REMARK  13 active torsions:
REMARK  status: ('A' for Active; 'I' for Inactive)
REMARK    1  A    between atoms: C_1  and  C_2
REMARK    2  A    between atoms: C_2  and  C_3
REMARK    3  A    between atoms: C_2  and  C_4
REMARK    4  A    between atoms: C_4  and  C_6
REMARK    5  A    between atoms: C_4  and  N_21
REMARK    6  A    between atoms: C_6  and  N_8
REMARK    7  A    between atoms: C_11  and  C_14
REMARK    8  A    between atoms: C_14  and  N_15
REMARK    9  A    between atoms: C_22  and  C_24
REMARK   10  A    between atoms: C_26  and  O_32
REMARK   11  A    between atoms: C_28  and  O_30
REMARK   12  A    between atoms: O_30  and  C_31
REMARK   13  A    between atoms: O_32  and  C_33
REMARK                            x       y       z     vdW  Elec       q    Type
REMARK                         _______ _______ _______ _____ _____    ______ ____
ROOT
ATOM      1  C   UNL     1      -1.433  -0.534   0.013  0.00  0.00    +0.164 C 
ENDROOT
BRANCH   1   2
ATOM      2  N   UNL     1      -1.413  -1.998   0.005  0.00  0.00    -0.300 N 
ATOM      3  C   UNL     1      -1.292  -2.677   1.163  0.00  0.00    +0.245 C 
ATOM      4  O   UNL     1      -1.198  -2.074   2.214  0.00  0.00    -0.270 OA
ATOM      5  H   UNL     1      -1.488  -2.480  -0.834  0.00  0.00    +0.150 HD
BRANCH   3   6
ATOM      6  C   UNL     1      -1.271  -4.156   1.155  0.00  0.00    +0.044 A 
ATOM      7  C   UNL     1      -1.373  -4.850  -0.051  0.00  0.00    +0.059 A 
ATOM      8  C   UNL     1      -1.353  -6.235  -0.054  0.00  0.00    +0.124 A 
ATOM      9  C   UNL     1      -1.233  -6.932   1.139  0.00  0.00    +0.091 A 
ATOM     10  C   UNL     1      -1.132  -6.245   2.341  0.00  0.00    +0.124 A 
ATOM     11  C   UNL     1      -1.145  -4.860   2.352  0.00  0.00    +0.059 A 
BRANCH  10  12
ATOM     12  O   UNL     1      -1.015  -6.933   3.507  0.00  0.00    -0.495 OA
ATOM     13  C   UNL     1      -1.003  -8.359   3.421  0.00  0.00    +0.277 C 
ENDBRANCH  10  12
BRANCH   8  14
ATOM     14  O   UNL     1      -1.452  -6.912  -1.228  0.00  0.00    -0.495 OA
ATOM     15  C   UNL     1      -1.425  -8.339  -1.158  0.00  0.00    +0.277 C 
ENDBRANCH   8  14
ENDBRANCH   3   6
ENDBRANCH   1   2
BRANCH   1  17
ATOM     16  C   UNL     1      -0.019   1.526   0.010  0.00  0.00    +0.009 C 
ATOM     17  C   UNL     1       0.002  -0.004   0.002  0.00  0.00    +0.012 C 
ATOM     18  C   UNL     1       0.742  -0.511   1.242  0.00  0.00    +0.009 C 
ENDBRANCH   1  17
BRANCH   1  19
ATOM     19  C   UNL     1      -2.162  -0.034  -1.208  0.00  0.00    +0.259 C 
ATOM     20  O   UNL     1      -2.621  -0.827  -2.009  0.00  0.00    -0.272 OA
BRANCH  19  21
ATOM     21  N   UNL     1      -2.303   1.269  -1.410  0.00  0.00    -0.155 NA
ATOM     22  C   UNL     1      -2.949   1.712  -2.491  0.00  0.00    +0.163 A 
ATOM     23  N   UNL     1      -3.186   2.997  -2.867  0.00  0.00    -0.341 N 
ATOM     24  C   UNL     1      -3.870   3.228  -4.019  0.00  0.00    +0.008 A 
ATOM     25  C   UNL     1      -4.272   2.161  -4.719  0.00  0.00    +0.067 A 
ATOM     26  S   UNL     1      -3.660   0.814  -3.723  0.00  0.00    -0.061 S 
ATOM     27  H   UNL     1      -2.872   3.736  -2.322  0.00  0.00    +0.167 HD
BRANCH  24  28
ATOM     28  C   UNL     1      -4.164   4.629  -4.489  0.00  0.00    -0.024 C 
BRANCH  28  29
ATOM     29  N   UNL     1      -5.065   5.287  -3.532  0.00  0.00    +0.383 N 
ATOM     30  C   UNL     1      -6.358   4.592  -3.523  0.00  0.00    -0.078 C 
ATOM     31  C   UNL     1      -7.272   5.223  -2.470  0.00  0.00    -0.019 C 
ATOM     32  C   UNL     1      -7.487   6.701  -2.809  0.00  0.00    -0.004 C 
ATOM     33  C   UNL     1      -6.127   7.400  -2.889  0.00  0.00    -0.019 C 
ATOM     34  C   UNL     1      -5.255   6.688  -3.926  0.00  0.00    -0.078 C 
ATOM     35  H   UNL     1      -4.659   5.250  -2.610  0.00  0.00    -0.081 HD
ENDBRANCH  28  29
ENDBRANCH  24  28
ENDBRANCH  19  21
ENDBRANCH   1  19
TORSDOF 9
