REMARK  Name = ZINC41584919
REMARK  6 active torsions:
REMARK  status: ('A' for Active; 'I' for Inactive)
REMARK    1  A    between atoms: C_4  and  C_7
REMARK    2  A    between atoms: C_7  and  N_8
REMARK    3  A    between atoms: N_11  and  C_14
REMARK    4  A    between atoms: C_14  and  C_15
REMARK    5  A    between atoms: C_16  and  O_37
REMARK    6  A    between atoms: C_23  and  C_24
REMARK                            x       y       z     vdW  Elec       q    Type
REMARK                         _______ _______ _______ _____ _____    ______ ____
ROOT
ATOM      1  C   UNL     1       6.838  -3.778   3.745  0.00  0.00    +0.051 A 
ATOM      2  C   UNL     1       6.804  -5.148   3.544  0.00  0.00    +0.125 A 
ATOM      3  C   UNL     1       7.969  -5.905   3.627  0.00  0.00    +0.046 A 
ATOM      4  C   UNL     1       9.162  -5.301   3.908  0.00  0.00    +0.019 A 
ATOM      5  C   UNL     1       9.211  -3.922   4.113  0.00  0.00    +0.068 A 
ATOM      6  C   UNL     1       8.043  -3.147   4.027  0.00  0.00    +0.147 A 
ATOM      7  O   UNL     1       8.340  -1.849   4.256  0.00  0.00    -0.451 OA
ATOM      8  C   UNL     1       9.661  -1.669   4.494  0.00  0.00    +0.176 C 
ATOM      9  C   UNL     1      10.275  -0.487   4.758  0.00  0.00    +0.061 C 
ATOM     10  C   UNL     1      10.308  -2.988   4.426  0.00  0.00    +0.231 C 
ATOM     11  O   UNL     1      11.488  -3.248   4.583  0.00  0.00    -0.283 OA
ENDROOT
BRANCH   9  12
ATOM     12  C   UNL     1       9.512   0.765   4.697  0.00  0.00    +0.022 A 
ATOM     13  C   UNL     1       8.113   0.739   4.730  0.00  0.00    +0.031 A 
ATOM     14  C   UNL     1       7.404   1.920   4.671  0.00  0.00    +0.042 A 
ATOM     15  C   UNL     1       8.072   3.132   4.578  0.00  0.00    +0.029 A 
ATOM     16  C   UNL     1       9.453   3.172   4.544  0.00  0.00    +0.022 A 
ATOM     17  C   UNL     1      10.182   1.997   4.612  0.00  0.00    +0.136 A 
ATOM     18  O   UNL     1      11.540   2.023   4.596  0.00  0.00    -0.465 OA
ATOM     19  C   UNL     1      12.158   3.234   4.151  0.00  0.00    +0.395 C 
ATOM     20  O   UNL     1      11.532   4.338   4.815  0.00  0.00    -0.339 OA
ATOM     21  C   UNL     1      10.157   4.502   4.438  0.00  0.00    +0.202 C 
ATOM     22 CL   UNL     1       5.669   1.890   4.714  0.00  0.00    -0.084 Cl
ENDBRANCH   9  12
BRANCH   2  23
ATOM     23  O   UNL     1       5.624  -5.758   3.264  0.00  0.00    -0.506 OA
ATOM     24  H   UNL     1       5.423  -5.811   2.319  0.00  0.00    +0.292 HD
ENDBRANCH   2  23
BRANCH   1  25
ATOM     25  C   UNL     1       5.569  -2.971   3.653  0.00  0.00    +0.126 C 
BRANCH  25  29
ATOM     26  N   UNL     1       4.889  -0.562   0.246  0.00  0.00    +0.384 N 
ATOM     27  C   UNL     1       3.855  -1.536   0.621  0.00  0.00    -0.063 C 
ATOM     28  C   UNL     1       4.038  -1.936   2.086  0.00  0.00    +0.066 C 
ATOM     29  N   UNL     1       5.375  -2.520   2.268  0.00  0.00    -0.301 NA
ATOM     30  C   UNL     1       6.420  -1.565   1.873  0.00  0.00    +0.066 C 
ATOM     31  C   UNL     1       6.217  -1.167   0.410  0.00  0.00    -0.063 C 
ATOM     32  H   UNL     1       4.815   0.251   0.840  0.00  0.00    -0.081 HD
BRANCH  26  33
ATOM     33  C   UNL     1       4.702  -0.163  -1.155  0.00  0.00    -0.043 C 
BRANCH  33  37
ATOM     34  C   UNL     1       0.989   1.910  -1.565  0.00  0.00    +0.000 A 
ATOM     35  C   UNL     1       2.145   2.612  -1.277  0.00  0.00    +0.000 A 
ATOM     36  C   UNL     1       3.346   1.941  -1.144  0.00  0.00    +0.002 A 
ATOM     37  C   UNL     1       3.392   0.568  -1.299  0.00  0.00    -0.064 A 
ATOM     38  C   UNL     1       2.236  -0.134  -1.586  0.00  0.00    +0.002 A 
ATOM     39  C   UNL     1       1.035   0.537  -1.720  0.00  0.00    +0.000 A 
ENDBRANCH  33  37
ENDBRANCH  26  33
ENDBRANCH  25  29
ENDBRANCH   1  25
TORSDOF 6
