REMARK  Name = ZINC16011443
REMARK  5 active torsions:
REMARK  status: ('A' for Active; 'I' for Inactive)
REMARK    1  A    between atoms: C_1  and  C_2
REMARK    2  A    between atoms: C_5  and  N_9
REMARK    3  A    between atoms: C_29  and  C_31
REMARK    4  A    between atoms: C_31  and  C_32
REMARK    5  A    between atoms: C_31  and  C_33
REMARK                            x       y       z     vdW  Elec       q    Type
REMARK                         _______ _______ _______ _____ _____    ______ ____
ROOT
ATOM      1  N   UNL     1       0.058  -4.173  -0.023  0.00  0.00    -0.209 N 
ATOM      2  C   UNL     1      -1.053  -4.912   0.071  0.00  0.00    +0.232 C 
ATOM      3  O   UNL     1      -2.179  -4.474   0.170  0.00  0.00    -0.274 OA
ATOM      4  C   UNL     1      -0.687  -6.379   0.033  0.00  0.00    +0.107 C 
ATOM      5  C   UNL     1       0.861  -6.357  -0.108  0.00  0.00    +0.123 C 
ATOM      6  C   UNL     1       1.188  -4.881  -0.131  0.00  0.00    +0.233 C 
ATOM      7  O   UNL     1       2.302  -4.412  -0.229  0.00  0.00    -0.274 OA
ATOM      8  C   UNL     1       1.377  -7.002   1.184  0.00  0.00    +0.136 C 
ATOM      9  C   UNL     1       1.805  -5.967   2.185  0.00  0.00    +0.003 A 
ATOM     10  C   UNL     1       1.155  -4.927   2.810  0.00  0.00    +0.008 A 
ATOM     11  C   UNL     1       1.835  -4.125   3.709  0.00  0.00    +0.000 A 
ATOM     12  C   UNL     1       3.169  -4.371   3.978  0.00  0.00    +0.002 A 
ATOM     13  C   UNL     1       3.825  -5.412   3.354  0.00  0.00    +0.023 A 
ATOM     14  C   UNL     1       3.147  -6.224   2.448  0.00  0.00    +0.039 A 
ATOM     15  N   UNL     1       3.584  -7.320   1.700  0.00  0.00    -0.283 N 
ATOM     16  C   UNL     1       2.605  -7.834   0.931  0.00  0.00    +0.243 C 
ATOM     17  O   UNL     1       2.695  -8.783   0.181  0.00  0.00    -0.273 OA
ATOM     18  N   UNL     1       0.266  -7.825   1.697  0.00  0.00    -0.295 NA
ATOM     19  C   UNL     1      -0.964  -7.005   1.417  0.00  0.00    +0.070 C 
ATOM     20  H   UNL     1       4.488  -7.670   1.731  0.00  0.00    +0.155 HD
ATOM     21  H   UNL     1       0.226  -8.715   1.223  0.00  0.00    +0.124 HD
ENDROOT
BRANCH   1  26
ATOM     22  C   UNL     1      -0.015   1.503   0.012  0.00  0.00    +0.044 C 
ATOM     23  C   UNL     1       0.004  -0.004   0.002  0.00  0.00    -0.049 A 
ATOM     24  C   UNL     1       0.013  -0.702   1.196  0.00  0.00    +0.005 A 
ATOM     25  C   UNL     1       0.031  -2.083   1.191  0.00  0.00    +0.025 A 
ATOM     26  C   UNL     1       0.040  -2.771  -0.014  0.00  0.00    +0.058 A 
ATOM     27  C   UNL     1       0.030  -2.068  -1.212  0.00  0.00    +0.040 A 
ATOM     28  C   UNL     1       0.007  -0.686  -1.200  0.00  0.00    +0.020 A 
ATOM     29 BR   UNL     1       0.043  -3.001  -2.857  0.00  0.00    -0.048 Br
ENDBRANCH   1  26
BRANCH  19  30
ATOM     30  C   UNL     1      -2.201  -7.904   1.355  0.00  0.00    +0.001 C 
ATOM     31  C   UNL     1      -2.457  -8.514   2.735  0.00  0.00    +0.009 C 
ATOM     32  C   UNL     1      -3.414  -7.074   0.931  0.00  0.00    +0.009 C 
ENDBRANCH  19  30
TORSDOF 2
