REMARK  Name = ZINC59227731
REMARK  11 active torsions:
REMARK  status: ('A' for Active; 'I' for Inactive)
REMARK    1  A    between atoms: C_1  and  C_2
REMARK    2  A    between atoms: C_2  and  O_3
REMARK    3  A    between atoms: O_3  and  C_4
REMARK    4  A    between atoms: C_6  and  C_19
REMARK    5  A    between atoms: C_9  and  O_10
REMARK    6  A    between atoms: O_10  and  C_11
REMARK    7  A    between atoms: C_11  and  C_12
REMARK    8  A    between atoms: C_21  and  C_28
REMARK    9  A    between atoms: C_22  and  C_27
REMARK   10  A    between atoms: N_30  and  C_31
REMARK   11  A    between atoms: C_31  and  C_32
REMARK                            x       y       z     vdW  Elec       q    Type
REMARK                         _______ _______ _______ _____ _____    ______ ____
ROOT
ATOM      1  C   UNL     1       0.045  -4.888  -1.110  0.00  0.00    +0.139 C 
ATOM      2  C   UNL     1      -1.082  -5.644  -0.436  0.00  0.00    +0.055 C 
ATOM      3  C   UNL     1      -0.938  -6.977  -0.280  0.00  0.00    +0.017 C 
ATOM      4  N   UNL     1       0.185  -7.621  -0.715  0.00  0.00    -0.300 N 
ATOM      5  C   UNL     1       1.209  -7.003  -1.316  0.00  0.00    +0.135 C 
ATOM      6  S   UNL     1       2.560  -7.931  -1.813  0.00  0.00    -0.019 S 
ATOM      7  N   UNL     1       1.212  -5.675  -1.541  0.00  0.00    -0.315 N 
ATOM      8  C   UNL     1      -2.035  -7.768   0.386  0.00  0.00    +0.061 C 
ATOM      9  H   UNL     1       0.244  -8.580  -0.581  0.00  0.00    +0.154 HD
ATOM     10  H   UNL     1       1.965  -5.248  -1.978  0.00  0.00    +0.149 HD
ENDROOT
BRANCH   1  13
ATOM     11  C   UNL     1       0.511  -1.551   0.599  0.00  0.00    +0.162 A 
ATOM     12  C   UNL     1       0.068  -2.528  -0.278  0.00  0.00    +0.055 A 
ATOM     13  C   UNL     1       0.528  -3.826  -0.155  0.00  0.00    -0.019 A 
ATOM     14  C   UNL     1       1.429  -4.152   0.841  0.00  0.00    +0.009 A 
ATOM     15  C   UNL     1       1.874  -3.182   1.719  0.00  0.00    +0.050 A 
ATOM     16  C   UNL     1       1.422  -1.878   1.599  0.00  0.00    +0.162 A 
BRANCH  11  17
ATOM     17  O   UNL     1       0.060  -0.273   0.480  0.00  0.00    -0.489 OA
BRANCH  17  19
ATOM     18  C   UNL     1      -1.259   1.467  -0.555  0.00  0.00    +0.048 C 
ATOM     19  C   UNL     1      -0.946  -0.030  -0.505  0.00  0.00    +0.226 C 
ENDBRANCH  17  19
ENDBRANCH  11  17
BRANCH  16  20
ATOM     20  O   UNL     1       1.864  -0.921   2.458  0.00  0.00    -0.484 OA
BRANCH  20  21
ATOM     21  C   UNL     1       2.799  -1.330   3.458  0.00  0.00    +0.264 C 
BRANCH  21  22
ATOM     22  C   UNL     1       3.172  -0.144   4.311  0.00  0.00    -0.010 A 
ATOM     23  C   UNL     1       4.244   0.652   3.956  0.00  0.00    +0.008 A 
ATOM     24  C   UNL     1       4.587   1.740   4.737  0.00  0.00    +0.020 A 
ATOM     25  C   UNL     1       3.857   2.030   5.876  0.00  0.00    +0.041 A 
ATOM     26  C   UNL     1       2.784   1.232   6.231  0.00  0.00    +0.020 A 
ATOM     27  C   UNL     1       2.438   0.149   5.446  0.00  0.00    +0.008 A 
ATOM     28 CL   UNL     1       4.287   3.395   6.858  0.00  0.00    -0.084 Cl
ENDBRANCH  21  22
ENDBRANCH  20  21
ENDBRANCH  16  20
ENDBRANCH   1  13
BRANCH   2  29
ATOM     29  C   UNL     1      -2.246  -4.976   0.015  0.00  0.00    +0.244 C 
ATOM     30  O   UNL     1      -3.125  -4.683  -0.775  0.00  0.00    -0.270 OA
ATOM     31  N   UNL     1      -2.381  -4.663   1.319  0.00  0.00    -0.307 N 
ATOM     32  H   UNL     1      -1.653  -4.835   1.937  0.00  0.00    +0.149 HD
BRANCH  31  33
ATOM     33  C   UNL     1      -3.628  -4.065   1.804  0.00  0.00    +0.139 C 
BRANCH  33  34
ATOM     34  C   UNL     1      -3.479  -3.704   3.260  0.00  0.00    -0.030 A 
ATOM     35  C   UNL     1      -3.709  -4.657   4.234  0.00  0.00    +0.005 A 
ATOM     36  C   UNL     1      -3.573  -4.326   5.570  0.00  0.00    +0.000 A 
ATOM     37  C   UNL     1      -3.206  -3.043   5.930  0.00  0.00    +0.000 A 
ATOM     38  C   UNL     1      -2.975  -2.091   4.955  0.00  0.00    +0.000 A 
ATOM     39  C   UNL     1      -3.107  -2.422   3.620  0.00  0.00    +0.005 A 
ENDBRANCH  33  34
ENDBRANCH  31  33
ENDBRANCH   2  29
TORSDOF 9
