REMARK  Name = ZINC16041245
REMARK  7 active torsions:
REMARK  status: ('A' for Active; 'I' for Inactive)
REMARK    1  A    between atoms: C_3  and  N_29
REMARK    2  A    between atoms: C_6  and  C_7
REMARK    3  A    between atoms: N_9  and  C_10
REMARK    4  A    between atoms: C_10  and  C_12
REMARK    5  A    between atoms: C_10  and  O_16
REMARK    6  A    between atoms: O_16  and  C_17
REMARK    7  A    between atoms: C_17  and  C_18
REMARK                            x       y       z     vdW  Elec       q    Type
REMARK                         _______ _______ _______ _____ _____    ______ ____
ROOT
ATOM      1  C   UNL     1       5.578   2.207   2.439  0.00  0.00    +0.257 C 
ENDROOT
BRANCH   1   4
ATOM      2  C   UNL     1       6.697   2.005   0.284  0.00  0.00    +0.246 C 
ATOM      3  O   UNL     1       6.290   3.115   0.002  0.00  0.00    -0.270 OA
ATOM      4  N   UNL     1       6.395   1.461   1.480  0.00  0.00    -0.283 N 
ATOM      5  H   UNL     1       6.720   0.575   1.705  0.00  0.00    +0.152 HD
BRANCH   2  11
ATOM      6  C   UNL     1       7.995  -0.021  -0.361  0.00  0.00    +0.015 A 
ATOM      7  C   UNL     1       8.759  -0.721  -1.271  0.00  0.00    +0.033 A 
ATOM      8  C   UNL     1       9.067  -0.160  -2.498  0.00  0.00    +0.126 A 
ATOM      9  C   UNL     1       8.606   1.104  -2.822  0.00  0.00    +0.033 A 
ATOM     10  C   UNL     1       7.835   1.812  -1.923  0.00  0.00    +0.015 A 
ATOM     11  C   UNL     1       7.522   1.251  -0.684  0.00  0.00    +0.037 A 
BRANCH   8  12
ATOM     12  N   UNL     1       9.893  -0.914  -3.467  0.00  0.00    +0.056 N 
ATOM     13  O   UNL     1      10.165  -0.422  -4.548  0.00  0.00    -0.126 OA
ATOM     14  O   UNL     1      10.300  -2.027  -3.184  0.00  0.00    -0.126 OA
ENDBRANCH   8  12
ENDBRANCH   2  11
ENDBRANCH   1   4
BRANCH   1  15
ATOM     15  C   UNL     1       6.131   2.000   3.851  0.00  0.00    +0.233 C 
ATOM     16 CL   UNL     1       6.087   0.245   4.262  0.00  0.00    -0.079 Cl
ATOM     17 CL   UNL     1       7.832   2.592   3.922  0.00  0.00    -0.079 Cl
ATOM     18 CL   UNL     1       5.125   2.919   5.032  0.00  0.00    -0.079 Cl
ENDBRANCH   1  15
BRANCH   1  19
ATOM     19  O   UNL     1       4.229   1.738   2.383  0.00  0.00    -0.354 OA
BRANCH  19  20
ATOM     20  C   UNL     1       3.542   2.087   1.179  0.00  0.00    +0.164 C 
BRANCH  20  21
ATOM     21  C   UNL     1       2.116   1.536   1.228  0.00  0.00    +0.001 C 
ATOM     22  C   UNL     1       2.161   0.008   1.240  0.00  0.00    +0.002 C 
ATOM     23  C   UNL     1       0.725  -0.526   1.243  0.00  0.00    -0.018 C 
ATOM     24  C   UNL     1       0.002  -0.004   0.002  0.00  0.00    -0.078 C 
ATOM     25  C   UNL     1       1.339   2.024   0.000  0.00  0.00    -0.063 C 
ATOM     26  C   UNL     1       1.280   3.554   0.052  0.00  0.00    -0.015 C 
ATOM     27  C   UNL     1       0.472   4.083  -1.134  0.00  0.00    -0.003 C 
ATOM     28  C   UNL     1      -0.932   3.471  -1.084  0.00  0.00    -0.019 C 
ATOM     29  C   UNL     1      -0.808   1.949  -1.134  0.00  0.00    -0.078 C 
ATOM     30  N   UNL     1      -0.038   1.470   0.027  0.00  0.00    +0.382 N 
ATOM     31  H   UNL     1      -0.503   1.779   0.889  0.00  0.00    -0.081 HD
ENDBRANCH  20  21
ENDBRANCH  19  20
ENDBRANCH   1  19
TORSDOF 7
