REMARK  Name = ZINC10732848
REMARK  10 active torsions:
REMARK  status: ('A' for Active; 'I' for Inactive)
REMARK    1  A    between atoms: C_1  and  C_2
REMARK    2  A    between atoms: C_4  and  C_18
REMARK    3  A    between atoms: C_5  and  C_17
REMARK    4  A    between atoms: N_6  and  C_7
REMARK    5  A    between atoms: C_10  and  S_13
REMARK    6  A    between atoms: S_13  and  N_16
REMARK    7  A    between atoms: C_18  and  C_20
REMARK    8  A    between atoms: C_20  and  O_21
REMARK    9  A    between atoms: O_21  and  C_22
REMARK   10  A    between atoms: C_22  and  C_24
REMARK                            x       y       z     vdW  Elec       q    Type
REMARK                         _______ _______ _______ _____ _____    ______ ____
ROOT
ATOM      1  C   UNL     1      -5.369   3.060   3.694  0.00  0.00    +0.064 C 
ATOM      2  C   UNL     1      -4.431   3.232   4.860  0.00  0.00    +0.022 A 
ATOM      3  C   UNL     1      -4.791   3.592   6.103  0.00  0.00    +0.034 A 
ATOM      4  C   UNL     1      -3.555   3.637   6.897  0.00  0.00    +0.042 A 
ATOM      5  C   UNL     1      -2.536   3.284   6.032  0.00  0.00    +0.032 A 
ATOM      6  N   UNL     1      -3.077   3.043   4.822  0.00  0.00    -0.317 N 
ATOM      7  C   UNL     1      -1.073   3.186   6.382  0.00  0.00    +0.064 C 
ENDROOT
BRANCH   6   8
ATOM      8  C   UNL     1      -2.354   2.659   3.685  0.00  0.00    +0.047 A 
ATOM      9  C   UNL     1      -2.560   1.407   3.120  0.00  0.00    +0.028 A 
ATOM     10  C   UNL     1      -1.846   1.032   1.999  0.00  0.00    +0.030 A 
ATOM     11  C   UNL     1      -0.927   1.900   1.439  0.00  0.00    +0.105 A 
ATOM     12  C   UNL     1      -0.716   3.145   2.003  0.00  0.00    +0.030 A 
ATOM     13  C   UNL     1      -1.431   3.529   3.121  0.00  0.00    +0.028 A 
BRANCH  11  14
ATOM     14  S   UNL     1      -0.017   1.417   0.010  0.00  0.00    +0.056 S 
ATOM     15  O   UNL     1       0.002  -0.004   0.002  0.00  0.00    -0.153 OA
ATOM     16  O   UNL     1       1.172   2.195   0.003  0.00  0.00    -0.153 OA
BRANCH  14  17
ATOM     17  N   UNL     1      -0.897   1.885  -1.312  0.00  0.00    -0.204 NA
ATOM     18  H   UNL     1      -1.201   1.223  -1.952  0.00  0.00    +0.144 HD
ATOM     19  H   UNL     1      -1.110   2.822  -1.446  0.00  0.00    +0.144 HD
ENDBRANCH  14  17
ENDBRANCH  11  14
ENDBRANCH   6   8
BRANCH   4  20
ATOM     20  C   UNL     1      -3.429   3.984   8.314  0.00  0.00    +0.202 C 
ATOM     21  O   UNL     1      -2.338   3.980   8.845  0.00  0.00    -0.288 OA
BRANCH  20  22
ATOM     22  C   UNL     1      -4.654   4.346   9.113  0.00  0.00    +0.311 C 
BRANCH  22  23
ATOM     23  O   UNL     1      -4.269   4.647  10.480  0.00  0.00    -0.453 OA
BRANCH  23  24
ATOM     24  C   UNL     1      -5.255   4.992  11.331  0.00  0.00    +0.340 C 
ATOM     25  O   UNL     1      -6.405   5.040  10.942  0.00  0.00    -0.245 OA
BRANCH  24  26
ATOM     26  C   UNL     1      -4.938   5.312  12.738  0.00  0.00    +0.060 A 
ATOM     27  C   UNL     1      -3.605   5.249  13.184  0.00  0.00    +0.015 A 
ATOM     28  C   UNL     1      -3.288   5.543  14.471  0.00  0.00    +0.009 A 
ATOM     29  C   UNL     1      -4.299   5.907  15.380  0.00  0.00    -0.018 A 
ATOM     30  C   UNL     1      -3.995   6.209  16.717  0.00  0.00    +0.008 A 
ATOM     31  C   UNL     1      -4.994   6.557  17.574  0.00  0.00    +0.001 A 
ATOM     32  C   UNL     1      -6.319   6.618  17.146  0.00  0.00    +0.001 A 
ATOM     33  C   UNL     1      -6.652   6.331  15.858  0.00  0.00    +0.008 A 
ATOM     34  C   UNL     1      -5.646   5.968  14.943  0.00  0.00    -0.017 A 
ATOM     35  C   UNL     1      -5.955   5.666  13.609  0.00  0.00    +0.023 A 
ENDBRANCH  24  26
ENDBRANCH  23  24
ENDBRANCH  22  23
ENDBRANCH  20  22
ENDBRANCH   4  20
TORSDOF 8
