REMARK  Name = ZINC34791552
REMARK  11 active torsions:
REMARK  status: ('A' for Active; 'I' for Inactive)
REMARK    1  A    between atoms: C_1  and  C_2
REMARK    2  A    between atoms: C_8  and  C_10
REMARK    3  A    between atoms: C_10  and  C_12
REMARK    4  A    between atoms: C_10  and  N_16
REMARK    5  A    between atoms: C_12  and  C_13
REMARK    6  A    between atoms: C_13  and  C_14
REMARK    7  A    between atoms: C_13  and  C_15
REMARK    8  A    between atoms: C_22  and  C_31
REMARK    9  A    between atoms: N_27  and  C_28
REMARK   10  A    between atoms: C_28  and  C_29
REMARK   11  A    between atoms: C_36  and  C_37
REMARK                            x       y       z     vdW  Elec       q    Type
REMARK                         _______ _______ _______ _____ _____    ______ ____
ROOT
ATOM      1  N   UNL     1      -1.016  -3.895   4.346  0.00  0.00    -0.281 N 
ATOM      2  C   UNL     1      -0.353  -5.164   4.008  0.00  0.00    +0.160 C 
ATOM      3  C   UNL     1      -1.197  -6.231   4.670  0.00  0.00    +0.043 C 
ATOM      4  C   UNL     1      -2.204  -5.586   5.293  0.00  0.00    +0.058 C 
ATOM      5  C   UNL     1      -2.088  -4.194   5.102  0.00  0.00    +0.247 C 
ATOM      6  O   UNL     1      -2.860  -3.370   5.558  0.00  0.00    -0.270 OA
ATOM      7  C   UNL     1      -3.216  -6.424   6.048  0.00  0.00    +0.142 C 
ATOM      8  N   UNL     1      -3.015  -7.883   6.038  0.00  0.00    -0.288 N 
ATOM      9  C   UNL     1      -1.957  -8.380   5.367  0.00  0.00    +0.307 C 
ATOM     10  O   UNL     1      -1.783  -9.583   5.352  0.00  0.00    -0.252 OA
ATOM     11  N   UNL     1      -1.092  -7.592   4.716  0.00  0.00    -0.253 N 
ATOM     12  H   UNL     1      -3.629  -8.472   6.503  0.00  0.00    +0.151 HD
ENDROOT
BRANCH   7  13
ATOM     13  C   UNL     1      -4.578  -6.139   5.470  0.00  0.00    -0.011 A 
ATOM     14  C   UNL     1      -4.897  -6.585   4.201  0.00  0.00    +0.006 A 
ATOM     15  C   UNL     1      -6.146  -6.324   3.670  0.00  0.00    +0.000 A 
ATOM     16  C   UNL     1      -7.077  -5.617   4.409  0.00  0.00    +0.001 A 
ATOM     17  C   UNL     1      -6.759  -5.173   5.679  0.00  0.00    +0.013 A 
ATOM     18  C   UNL     1      -5.511  -5.438   6.211  0.00  0.00    +0.060 A 
BRANCH  18  19
ATOM     19  C   UNL     1      -5.165  -4.958   7.597  0.00  0.00    +0.418 C 
ATOM     20  F   UNL     1      -6.248  -4.248   8.128  0.00  0.00    -0.166 F 
ATOM     21  F   UNL     1      -4.882  -6.058   8.414  0.00  0.00    -0.166 F 
ATOM     22  F   UNL     1      -4.045  -4.122   7.535  0.00  0.00    -0.166 F 
ENDBRANCH  18  19
ENDBRANCH   7  13
BRANCH   1  23
ATOM     23  C   UNL     1      -0.585  -2.555   3.941  0.00  0.00    +0.163 C 
BRANCH  23  31
ATOM     24  C   UNL     1      -0.025   0.344  -1.549  0.00  0.00    +0.007 C 
ATOM     25  C   UNL     1      -0.534   0.349  -0.106  0.00  0.00    -0.011 C 
ATOM     26  C   UNL     1       0.475  -0.369   0.793  0.00  0.00    +0.022 C 
ATOM     27  C   UNL     1      -0.022  -0.332   2.242  0.00  0.00    +0.108 C 
ATOM     28  N   UNL     1      -1.379  -0.892   2.291  0.00  0.00    -0.300 N 
ATOM     29  C   UNL     1      -2.406  -0.334   1.401  0.00  0.00    +0.108 C 
ATOM     30  C   UNL     1      -1.883  -0.371  -0.039  0.00  0.00    +0.022 C 
ATOM     31  C   UNL     1      -1.677  -1.898   3.137  0.00  0.00    +0.236 C 
ATOM     32  O   UNL     1      -2.825  -2.274   3.252  0.00  0.00    -0.274 OA
ENDBRANCH  23  31
BRANCH  23  33
ATOM     33  C   UNL     1      -0.291  -1.715   5.185  0.00  0.00    +0.035 C 
BRANCH  33  34
ATOM     34  C   UNL     1       0.912  -2.304   5.925  0.00  0.00    -0.015 C 
ATOM     35  C   UNL     1       2.160  -2.179   5.050  0.00  0.00    +0.007 C 
ATOM     36  C   UNL     1       1.129  -1.541   7.234  0.00  0.00    +0.007 C 
ENDBRANCH  33  34
ENDBRANCH  23  33
ENDBRANCH   1  23
BRANCH  11  37
ATOM     37  C   UNL     1       0.028  -8.224   4.014  0.00  0.00    +0.141 C 
BRANCH  37  38
ATOM     38  C   UNL     1       1.205  -8.340   4.948  0.00  0.00    -0.015 C 
ATOM     39  C   UNL     1       1.764  -9.506   5.155  0.00  0.00    +0.005 C 
ENDBRANCH  37  38
ENDBRANCH  11  37
TORSDOF 8
