REMARK  Name = ZINC38700637
REMARK  11 active torsions:
REMARK  status: ('A' for Active; 'I' for Inactive)
REMARK    1  A    between atoms: C_1  and  C_2
REMARK    2  A    between atoms: C_2  and  C_3
REMARK    3  A    between atoms: C_3  and  O_4
REMARK    4  A    between atoms: O_4  and  C_5
REMARK    5  A    between atoms: C_10  and  C_11
REMARK    6  A    between atoms: C_16  and  O_25
REMARK    7  A    between atoms: C_20  and  N_24
REMARK    8  A    between atoms: C_21  and  C_22
REMARK    9  A    between atoms: O_25  and  C_26
REMARK   10  A    between atoms: C_26  and  C_28
REMARK   11  A    between atoms: C_29  and  C_37
REMARK                            x       y       z     vdW  Elec       q    Type
REMARK                         _______ _______ _______ _____ _____    ______ ____
ROOT
ATOM      1  C   UNL     1       0.831  -4.792  -1.321  0.00  0.00    +0.101 C 
ATOM      2  C   UNL     1      -0.260  -5.654  -1.899  0.00  0.00    +0.008 A 
ATOM      3  C   UNL     1      -1.514  -5.111  -2.117  0.00  0.00    +0.012 A 
ATOM      4  C   UNL     1      -2.527  -5.886  -2.645  0.00  0.00    +0.047 A 
ATOM      5  C   UNL     1      -2.289  -7.217  -2.961  0.00  0.00    +0.136 A 
ATOM      6  C   UNL     1      -1.034  -7.764  -2.745  0.00  0.00    +0.093 A 
ATOM      7  C   UNL     1      -0.017  -6.982  -2.213  0.00  0.00    +0.138 A 
ATOM      8  O   UNL     1       1.205  -7.533  -2.007  0.00  0.00    -0.441 OA
ATOM      9  C   UNL     1       2.070  -6.948  -1.162  0.00  0.00    +0.199 C 
ATOM     10  C   UNL     1       1.946  -5.653  -0.799  0.00  0.00    +0.098 C 
ENDROOT
BRANCH   1  16
ATOM     11  C   UNL     1       1.287  -2.502  -2.236  0.00  0.00    +0.125 A 
ATOM     12  C   UNL     1       1.785  -1.663  -3.222  0.00  0.00    +0.046 A 
ATOM     13  C   UNL     1       2.353  -2.200  -4.361  0.00  0.00    +0.004 A 
ATOM     14  C   UNL     1       2.425  -3.572  -4.519  0.00  0.00    +0.001 A 
ATOM     15  C   UNL     1       1.929  -4.410  -3.537  0.00  0.00    +0.008 A 
ATOM     16  C   UNL     1       1.365  -3.878  -2.393  0.00  0.00    +0.007 A 
BRANCH  11  17
ATOM     17  O   UNL     1       0.728  -1.977  -1.114  0.00  0.00    -0.492 OA
BRANCH  17  18
ATOM     18  C   UNL     1       0.680  -0.552  -1.019  0.00  0.00    +0.229 C 
BRANCH  18  20
ATOM     19  C   UNL     1      -0.029   1.375   0.404  0.00  0.00    +0.007 C 
ATOM     20  C   UNL     1       0.022  -0.150   0.303  0.00  0.00    +0.038 C 
ENDBRANCH  18  20
ENDBRANCH  17  18
ENDBRANCH  11  17
ENDBRANCH   1  16
BRANCH   9  21
ATOM     21  N   UNL     1       3.108  -7.688  -0.653  0.00  0.00    -0.328 N 
ATOM     22  H   UNL     1       3.209  -8.620  -0.905  0.00  0.00    +0.145 HD
ATOM     23  H   UNL     1       3.740  -7.280  -0.041  0.00  0.00    +0.145 HD
ENDBRANCH   9  21
BRANCH  10  24
ATOM     24  C   UNL     1       2.903  -5.089   0.106  0.00  0.00    +0.101 C 
ATOM     25  N   UNL     1       3.661  -4.641   0.824  0.00  0.00    -0.191 NA
ENDBRANCH  10  24
BRANCH   5  26
ATOM     26  O   UNL     1      -3.285  -7.982  -3.481  0.00  0.00    -0.420 OA
BRANCH  26  27
ATOM     27  C   UNL     1      -3.794  -8.966  -2.712  0.00  0.00    +0.380 C 
ATOM     28  O   UNL     1      -3.436  -9.081  -1.556  0.00  0.00    -0.241 OA
BRANCH  27  29
ATOM     29  C   UNL     1      -4.780  -9.898  -3.271  0.00  0.00    +0.216 A 
ATOM     30  C   UNL     1      -5.363 -10.921  -2.592  0.00  0.00    +0.010 A 
ATOM     31  C   UNL     1      -6.267 -11.572  -3.539  0.00  0.00    +0.024 A 
ATOM     32  C   UNL     1      -7.138 -12.662  -3.461  0.00  0.00    +0.012 A 
ATOM     33  C   UNL     1      -7.864 -13.028  -4.559  0.00  0.00    +0.001 A 
ATOM     34  C   UNL     1      -7.742 -12.325  -5.750  0.00  0.00    +0.004 A 
ATOM     35  C   UNL     1      -6.889 -11.247  -5.847  0.00  0.00    +0.047 A 
ATOM     36  C   UNL     1      -6.140 -10.855  -4.743  0.00  0.00    +0.136 A 
ATOM     37  O   UNL     1      -5.250  -9.866  -4.536  0.00  0.00    -0.448 OA
ATOM     38  C   UNL     1      -5.126 -11.305  -1.154  0.00  0.00    +0.048 C 
ENDBRANCH  27  29
ENDBRANCH  26  27
ENDBRANCH   5  26
TORSDOF 9
