REMARK  Name = ZINC14472520
REMARK  5 active torsions:
REMARK  status: ('A' for Active; 'I' for Inactive)
REMARK    1  A    between atoms: C_4  and  C_10
REMARK    2  A    between atoms: C_6  and  N_7
REMARK    3  A    between atoms: C_21  and  S_26
REMARK    4  A    between atoms: S_26  and  N_29
REMARK    5  A    between atoms: N_29  and  C_30
REMARK                            x       y       z     vdW  Elec       q    Type
REMARK                         _______ _______ _______ _____ _____    ______ ____
ROOT
ATOM      1  C   UNL     1      -3.650   1.700  -0.393  0.00  0.00    +0.106 C 
ATOM      2  C   UNL     1      -3.676   3.035   0.356  0.00  0.00    +0.029 C 
ATOM      3  C   UNL     1      -4.730   3.940  -0.348  0.00  0.00    +0.033 C 
ATOM      4  C   UNL     1      -3.967   4.514  -1.526  0.00  0.00    -0.030 C 
ATOM      5  C   UNL     1      -2.676   4.460  -1.308  0.00  0.00    -0.023 C 
ATOM      6  C   UNL     1      -2.400   3.839   0.041  0.00  0.00    +0.049 C 
ATOM      7  C   UNL     1      -1.169   2.990   0.009  0.00  0.00    -0.018 A 
ATOM      8  C   UNL     1       0.071   3.615  -0.009  0.00  0.00    +0.034 A 
ATOM      9  C   UNL     1       1.232   2.869  -0.039  0.00  0.00    +0.106 A 
ATOM     10  C   UNL     1       1.174   1.488  -0.050  0.00  0.00    +0.030 A 
ATOM     11  C   UNL     1      -0.053   0.855  -0.031  0.00  0.00    +0.025 A 
ATOM     12  C   UNL     1      -1.222   1.605  -0.008  0.00  0.00    +0.031 A 
ATOM     13  N   UNL     1      -2.458   0.950   0.015  0.00  0.00    -0.336 N 
ATOM     14  H   UNL     1      -2.524   0.021   0.289  0.00  0.00    +0.147 HD
ENDROOT
BRANCH   1  18
ATOM     15  C   UNL     1      -3.518   2.422  -4.601  0.00  0.00    +0.034 A 
ATOM     16  C   UNL     1      -4.736   2.339  -3.953  0.00  0.00    +0.022 A 
ATOM     17  C   UNL     1      -4.780   2.105  -2.591  0.00  0.00    +0.046 A 
ATOM     18  C   UNL     1      -3.604   1.954  -1.877  0.00  0.00    -0.007 A 
ATOM     19  C   UNL     1      -2.386   2.043  -2.525  0.00  0.00    +0.039 A 
ATOM     20  C   UNL     1      -2.344   2.271  -3.888  0.00  0.00    +0.127 A 
ATOM     21 CL   UNL     1      -6.309   2.001  -1.776  0.00  0.00    -0.083 Cl
BRANCH  20  22
ATOM     22  N   UNL     1      -1.040   2.360  -4.583  0.00  0.00    +0.056 N 
ATOM     23  O   UNL     1      -1.001   2.566  -5.782  0.00  0.00    -0.126 OA
ATOM     24  O   UNL     1      -0.005   2.227  -3.954  0.00  0.00    -0.126 OA
ENDBRANCH  20  22
ENDBRANCH   1  18
BRANCH   9  25
ATOM     25  S   UNL     1       2.796   3.682  -0.062  0.00  0.00    +0.059 S 
ATOM     26  O   UNL     1       2.593   4.969   0.504  0.00  0.00    -0.153 OA
ATOM     27  O   UNL     1       3.740   2.759   0.463  0.00  0.00    -0.153 OA
BRANCH  25  28
ATOM     28  N   UNL     1       3.200   3.921  -1.650  0.00  0.00    -0.187 NA
ATOM     29  H   UNL     1       3.971   3.471  -2.027  0.00  0.00    +0.148 HD
BRANCH  28  30
ATOM     30  C   UNL     1       2.391   4.813  -2.485  0.00  0.00    +0.077 C 
ATOM     31  C   UNL     1       1.353   3.991  -3.252  0.00  0.00    +0.020 C 
ATOM     32  C   UNL     1       0.509   4.923  -4.124  0.00  0.00    +0.002 C 
ATOM     33  C   UNL     1       1.416   5.654  -5.116  0.00  0.00    +0.000 C 
ATOM     34  C   UNL     1       2.454   6.475  -4.349  0.00  0.00    +0.002 C 
ATOM     35  C   UNL     1       3.298   5.544  -3.477  0.00  0.00    +0.020 C 
ENDBRANCH  28  30
ENDBRANCH  25  28
ENDBRANCH   9  25
TORSDOF 5
