REMARK  Name = ZINC39933601
REMARK  9 active torsions:
REMARK  status: ('A' for Active; 'I' for Inactive)
REMARK    1  A    between atoms: C_1  and  C_2
REMARK    2  A    between atoms: C_2  and  C_4
REMARK    3  A    between atoms: C_2  and  S_17
REMARK    4  A    between atoms: N_6  and  C_7
REMARK    5  A    between atoms: C_10  and  S_13
REMARK    6  A    between atoms: S_13  and  N_16
REMARK    7  A    between atoms: S_17  and  C_18
REMARK    8  A    between atoms: C_22  and  C_30
REMARK    9  A    between atoms: N_23  and  C_24
REMARK                            x       y       z     vdW  Elec       q    Type
REMARK                         _______ _______ _______ _____ _____    ______ ____
ROOT
ATOM      1  C   UNL     1      -1.833  -0.279  -1.421  0.00  0.00    +0.242 C 
ATOM      2  N   UNL     1      -1.980   1.186  -1.415  0.00  0.00    -0.237 N 
ATOM      3  N   UNL     1      -1.677   1.621  -2.711  0.00  0.00    -0.169 NA
ATOM      4  C   UNL     1      -1.369   0.617  -3.489  0.00  0.00    +0.151 C 
ATOM      5  N   UNL     1      -1.434  -0.601  -2.801  0.00  0.00    -0.254 N 
ATOM      6  H   UNL     1      -2.236   1.741  -0.662  0.00  0.00    +0.171 HD
ENDROOT
BRANCH   4   7
ATOM      7  C   UNL     1      -1.020   0.743  -4.842  0.00  0.00    +0.022 C 
ATOM      8  C   UNL     1      -0.865   1.925  -5.567  0.00  0.00    +0.006 A 
ATOM      9  C   UNL     1      -0.998   3.284  -5.213  0.00  0.00    +0.010 A 
ATOM     10  C   UNL     1      -0.782   4.247  -6.146  0.00  0.00    +0.001 A 
ATOM     11  C   UNL     1      -0.430   3.928  -7.459  0.00  0.00    +0.002 A 
ATOM     12  C   UNL     1      -0.286   2.644  -7.869  0.00  0.00    +0.026 A 
ATOM     13  C   UNL     1      -0.494   1.583  -6.950  0.00  0.00    +0.043 A 
ATOM     14  N   UNL     1      -0.417   0.274  -7.096  0.00  0.00    -0.380 N 
ATOM     15  C   UNL     1      -0.726  -0.375  -5.819  0.00  0.00    +0.152 C 
ATOM     16  H   UNL     1      -0.189  -0.186  -7.919  0.00  0.00    +0.160 HD
ENDBRANCH   4   7
BRANCH   5  17
ATOM     17  C   UNL     1      -1.171  -1.871  -3.319  0.00  0.00    +0.038 A 
ATOM     18  C   UNL     1       0.141  -2.291  -3.501  0.00  0.00    +0.023 A 
ATOM     19  C   UNL     1       0.397  -3.548  -4.013  0.00  0.00    +0.002 A 
ATOM     20  C   UNL     1      -0.650  -4.388  -4.344  0.00  0.00    +0.000 A 
ATOM     21  C   UNL     1      -1.957  -3.973  -4.164  0.00  0.00    +0.002 A 
ATOM     22  C   UNL     1      -2.221  -2.720  -3.647  0.00  0.00    +0.023 A 
ENDBRANCH   5  17
BRANCH   1  23
ATOM     23  S   UNL     1      -0.545  -0.791  -0.251  0.00  0.00    -0.105 S 
BRANCH  23  25
ATOM     24  C   UNL     1       0.704   1.614  -0.618  0.00  0.00    +0.029 C 
ATOM     25  C   UNL     1       0.930   0.112  -0.799  0.00  0.00    +0.133 C 
BRANCH  25  26
ATOM     26  C   UNL     1       2.118  -0.320   0.021  0.00  0.00    +0.230 C 
ATOM     27  O   UNL     1       1.949  -0.856   1.096  0.00  0.00    -0.274 OA
ATOM     28  N   UNL     1       3.367  -0.111  -0.439  0.00  0.00    -0.285 N 
ATOM     29  H   UNL     1       3.502   0.255  -1.327  0.00  0.00    +0.155 HD
BRANCH  28  30
ATOM     30  C   UNL     1       4.470  -0.423   0.364  0.00  0.00    +0.034 A 
ATOM     31  C   UNL     1       5.608   0.371   0.321  0.00  0.00    +0.025 A 
ATOM     32  C   UNL     1       6.695   0.061   1.115  0.00  0.00    +0.030 A 
ATOM     33  C   UNL     1       6.651  -1.039   1.951  0.00  0.00    +0.105 A 
ATOM     34  C   UNL     1       5.519  -1.832   1.996  0.00  0.00    +0.030 A 
ATOM     35  C   UNL     1       4.426  -1.524   1.210  0.00  0.00    +0.025 A 
BRANCH  33  36
ATOM     36  S   UNL     1       8.039  -1.432   2.962  0.00  0.00    +0.056 S 
ATOM     37  O   UNL     1       7.952  -2.821   3.251  0.00  0.00    -0.153 OA
ATOM     38  O   UNL     1       9.175  -0.854   2.334  0.00  0.00    -0.153 OA
BRANCH  36  39
ATOM     39  N   UNL     1       7.838  -0.636   4.401  0.00  0.00    -0.204 NA
ATOM     40  H   UNL     1       7.055  -0.083   4.543  0.00  0.00    +0.144 HD
ATOM     41  H   UNL     1       8.504  -0.724   5.101  0.00  0.00    +0.144 HD
ENDBRANCH  36  39
ENDBRANCH  33  36
ENDBRANCH  28  30
ENDBRANCH  25  26
ENDBRANCH  23  25
ENDBRANCH   1  23
TORSDOF 8
