REMARK  Name = ZINC40372206
REMARK  4 active torsions:
REMARK  status: ('A' for Active; 'I' for Inactive)
REMARK    1  A    between atoms: C_8  and  C_11
REMARK    2  A    between atoms: N_13  and  C_14
REMARK    3  A    between atoms: C_14  and  C_19
REMARK    4  A    between atoms: N_20  and  O_21
REMARK                            x       y       z     vdW  Elec       q    Type
REMARK                         _______ _______ _______ _____ _____    ______ ____
ROOT
ATOM      1  C   UNL     1       3.151  -2.309  -1.938  0.00  0.00    +0.255 C 
ATOM      2  O   UNL     1       3.650  -1.382  -2.541  0.00  0.00    -0.272 OA
ATOM      3  N   UNL     1       2.747  -3.408  -2.605  0.00  0.00    -0.300 N 
ATOM      4  H   UNL     1       2.416  -4.178  -2.116  0.00  0.00    +0.150 HD
ENDROOT
BRANCH   1  12
ATOM      5  C   UNL     1       0.023   1.346   0.098  0.00  0.00    +0.000 A 
ATOM      6  C   UNL     1       1.233   2.014   0.141  0.00  0.00    +0.004 A 
ATOM      7  C   UNL     1       2.419   1.309   0.129  0.00  0.00    +0.046 A 
ATOM      8  C   UNL     1       2.406  -0.083   0.072  0.00  0.00    +0.125 A 
ATOM      9  C   UNL     1       1.185  -0.742   0.021  0.00  0.00    -0.002 A 
ATOM     10  C   UNL     1       0.002  -0.036   0.039  0.00  0.00    +0.007 A 
ATOM     11  C   UNL     1       1.483  -2.226  -0.059  0.00  0.00    +0.093 C 
ATOM     12  C   UNL     1       2.982  -2.231  -0.442  0.00  0.00    +0.263 C 
ATOM     13  O   UNL     1       3.443  -0.965   0.061  0.00  0.00    -0.479 OA
ENDBRANCH   1  12
BRANCH   3  14
ATOM     14  C   UNL     1       2.809  -3.440  -4.068  0.00  0.00    +0.093 C 
ATOM     15  C   UNL     1       1.945  -2.306  -4.673  0.00  0.00    +0.033 C 
ATOM     16  C   UNL     1       0.514  -2.897  -4.612  0.00  0.00    +0.003 C 
ATOM     17  C   UNL     1       0.706  -4.389  -4.953  0.00  0.00    +0.003 C 
ATOM     18  C   UNL     1       2.166  -4.735  -4.607  0.00  0.00    +0.033 C 
BRANCH  14  19
ATOM     19  C   UNL     1       4.237  -3.326  -4.537  0.00  0.00    +0.155 C 
ATOM     20  N   UNL     1       4.497  -3.245  -5.800  0.00  0.00    -0.075 NA
ATOM     21  N   UNL     1       5.263  -3.309  -3.619  0.00  0.00    -0.342 N 
ATOM     22  H   UNL     1       5.076  -3.453  -2.679  0.00  0.00    +0.144 HD
ATOM     23  H   UNL     1       6.174  -3.152  -3.914  0.00  0.00    +0.144 HD
BRANCH  20  24
ATOM     24  O   UNL     1       3.456  -3.387  -6.748  0.00  0.00    -0.408 OA
ATOM     25  H   UNL     1       3.747  -3.311  -7.667  0.00  0.00    +0.328 HD
ENDBRANCH  20  24
ENDBRANCH  14  19
ENDBRANCH   3  14
TORSDOF 4
