REMARK  Name = ZINC04554264
REMARK  8 active torsions:
REMARK  status: ('A' for Active; 'I' for Inactive)
REMARK    1  A    between atoms: C_1  and  C_2
REMARK    2  A    between atoms: C_5  and  N_9
REMARK    3  A    between atoms: C_6  and  C_8
REMARK    4  A    between atoms: C_10  and  C_12
REMARK    5  A    between atoms: C_16  and  N_17
REMARK    6  A    between atoms: C_18  and  C_20
REMARK    7  A    between atoms: C_20  and  N_21
REMARK    8  A    between atoms: C_25  and  C_28
REMARK                            x       y       z     vdW  Elec       q    Type
REMARK                         _______ _______ _______ _____ _____    ______ ____
ROOT
ATOM      1  C   UNL     1      -0.132  -6.301  -1.187  0.00  0.00    +0.069 A 
ATOM      2  C   UNL     1      -1.424  -6.983  -1.132  0.00  0.00    -0.023 A 
ATOM      3  C   UNL     1      -1.336  -8.325  -1.139  0.00  0.00    -0.004 A 
ATOM      4  S   UNL     1       0.405  -8.660  -1.219  0.00  0.00    -0.077 S 
ATOM      5  C   UNL     1       1.001  -7.093  -1.245  0.00  0.00    +0.084 A 
ATOM      6  C   UNL     1      -2.691  -8.976  -1.077  0.00  0.00    +0.043 C 
ATOM      7  C   UNL     1      -3.640  -7.856  -0.597  0.00  0.00    +0.010 C 
ATOM      8  C   UNL     1      -2.898  -6.590  -1.069  0.00  0.00    +0.037 C 
ENDROOT
BRANCH   1  10
ATOM      9  N   UNL     1       0.058  -4.169  -0.021  0.00  0.00    -0.281 N 
ATOM     10  C   UNL     1      -0.041  -4.838  -1.187  0.00  0.00    +0.251 C 
ATOM     11  O   UNL     1      -0.054  -4.227  -2.240  0.00  0.00    -0.270 OA
ATOM     12  H   UNL     1       0.135  -4.658   0.814  0.00  0.00    +0.155 HD
BRANCH   9  17
ATOM     13  C   UNL     1       0.024   1.503   0.006  0.00  0.00    +0.044 C 
ATOM     14  C   UNL     1       0.033  -0.004  -0.001  0.00  0.00    -0.050 A 
ATOM     15  C   UNL     1       0.631  -0.685  -1.046  0.00  0.00    +0.005 A 
ATOM     16  C   UNL     1       0.641  -2.066  -1.055  0.00  0.00    +0.024 A 
ATOM     17  C   UNL     1       0.050  -2.771  -0.014  0.00  0.00    +0.037 A 
ATOM     18  C   UNL     1      -0.550  -2.083   1.033  0.00  0.00    -0.029 A 
ATOM     19  C   UNL     1      -0.551  -0.702   1.039  0.00  0.00    +0.008 A 
ATOM     20  C   UNL     1      -1.193  -2.844   2.164  0.00  0.00    +0.045 C 
ENDBRANCH   9  17
ENDBRANCH   1  10
BRANCH   5  21
ATOM     21  N   UNL     1       2.324  -6.684  -1.308  0.00  0.00    -0.281 N 
ATOM     22  C   UNL     1       3.311  -7.601  -1.360  0.00  0.00    +0.201 C 
ATOM     23  O   UNL     1       3.041  -8.784  -1.351  0.00  0.00    -0.278 OA
ATOM     24  H   UNL     1       2.540  -5.739  -1.316  0.00  0.00    +0.155 HD
BRANCH  22  25
ATOM     25  C   UNL     1       4.749  -7.157  -1.429  0.00  0.00    +0.019 C 
BRANCH  25  26
ATOM     26  N   UNL     1       5.624  -8.337  -1.476  0.00  0.00    +0.386 N 
ATOM     27  C   UNL     1       5.500  -9.086  -0.220  0.00  0.00    -0.078 C 
ATOM     28  C   UNL     1       6.346 -10.359  -0.295  0.00  0.00    -0.018 C 
ATOM     29  C   UNL     1       7.812  -9.977  -0.521  0.00  0.00    -0.001 C 
ATOM     30  C   UNL     1       7.920  -9.132  -1.794  0.00  0.00    -0.031 C 
ATOM     31  C   UNL     1       7.014  -7.906  -1.663  0.00  0.00    -0.075 C 
ATOM     32  C   UNL     1       9.369  -8.681  -1.987  0.00  0.00    +0.005 C 
ATOM     33  H   UNL     1       5.349  -8.927  -2.246  0.00  0.00    -0.081 HD
ENDBRANCH  25  26
ENDBRANCH  22  25
ENDBRANCH   5  21
TORSDOF 5
