REMARK  Name = ZINC36610333
REMARK  10 active torsions:
REMARK  status: ('A' for Active; 'I' for Inactive)
REMARK    1  A    between atoms: C_1  and  C_2
REMARK    2  A    between atoms: C_2  and  C_4
REMARK    3  A    between atoms: C_2  and  C_10
REMARK    4  A    between atoms: C_10  and  C_12
REMARK    5  A    between atoms: C_10  and  N_21
REMARK    6  A    between atoms: N_14  and  C_15
REMARK    7  A    between atoms: N_21  and  C_22
REMARK    8  A    between atoms: C_28  and  C_30
REMARK    9  A    between atoms: C_34  and  O_37
REMARK   10  A    between atoms: C_35  and  O_36
REMARK                            x       y       z     vdW  Elec       q    Type
REMARK                         _______ _______ _______ _____ _____    ______ ____
ROOT
ATOM      1  C   UNL     1      -1.816  -0.637  -0.240  0.00  0.00    +0.174 C 
ENDROOT
BRANCH   1   2
ATOM      2  C   UNL     1      -2.656  -0.408  -1.471  0.00  0.00    +0.235 C 
ATOM      3  O   UNL     1      -3.037  -1.353  -2.129  0.00  0.00    -0.274 OA
ATOM      4  N   UNL     1      -2.983   0.846  -1.840  0.00  0.00    -0.311 N 
ATOM      5  H   UNL     1      -2.633   1.604  -1.346  0.00  0.00    +0.149 HD
BRANCH   4   6
ATOM      6  C   UNL     1      -3.867   1.064  -2.988  0.00  0.00    +0.073 C 
ATOM      7  C   UNL     1      -3.041   1.058  -4.276  0.00  0.00    +0.022 C 
ATOM      8  C   UNL     1      -3.963   1.286  -5.475  0.00  0.00    +0.002 C 
ATOM      9  C   UNL     1      -4.667   2.636  -5.327  0.00  0.00    +0.000 C 
ATOM     10  C   UNL     1      -5.493   2.643  -4.039  0.00  0.00    +0.002 C 
ATOM     11  C   UNL     1      -4.570   2.415  -2.840  0.00  0.00    +0.022 C 
ENDBRANCH   4   6
ENDBRANCH   1   2
BRANCH   1  12
ATOM     12  N   UNL     1      -1.890  -2.048   0.146  0.00  0.00    -0.255 N 
ATOM     13  C   UNL     1      -2.296  -2.387   1.386  0.00  0.00    +0.255 C 
ATOM     14  O   UNL     1      -2.587  -1.521   2.188  0.00  0.00    -0.269 OA
BRANCH  12  15
ATOM     15  C   UNL     1      -1.538  -3.043  -0.771  0.00  0.00    +0.037 A 
ATOM     16  C   UNL     1      -2.480  -3.980  -1.176  0.00  0.00    +0.023 A 
ATOM     17  C   UNL     1      -2.130  -4.962  -2.082  0.00  0.00    +0.002 A 
ATOM     18  C   UNL     1      -0.844  -5.013  -2.586  0.00  0.00    +0.000 A 
ATOM     19  C   UNL     1       0.097  -4.082  -2.184  0.00  0.00    +0.002 A 
ATOM     20  C   UNL     1      -0.248  -3.094  -1.283  0.00  0.00    +0.023 A 
ENDBRANCH  12  15
BRANCH  13  21
ATOM     21  C   UNL     1      -2.386  -3.808   1.769  0.00  0.00    +0.082 A 
ATOM     22  C   UNL     1      -1.546  -4.752   1.172  0.00  0.00    +0.017 A 
ATOM     23  C   UNL     1      -1.634  -6.079   1.532  0.00  0.00    +0.005 A 
ATOM     24  C   UNL     1      -2.552  -6.485   2.486  0.00  0.00    +0.049 A 
ATOM     25  C   UNL     1      -3.391  -5.563   3.087  0.00  0.00    +0.159 A 
ATOM     26  C   UNL     1      -3.311  -4.218   2.738  0.00  0.00    +0.171 A 
BRANCH  26  27
ATOM     27  O   UNL     1      -4.127  -3.309   3.329  0.00  0.00    -0.503 OA
ATOM     28  H   UNL     1      -4.968  -3.178   2.869  0.00  0.00    +0.292 HD
ENDBRANCH  26  27
BRANCH  25  29
ATOM     29  O   UNL     1      -4.290  -5.969   4.023  0.00  0.00    -0.503 OA
ATOM     30  H   UNL     1      -3.950  -5.955   4.928  0.00  0.00    +0.292 HD
ENDBRANCH  25  29
ENDBRANCH  13  21
ENDBRANCH   1  12
BRANCH   1  32
ATOM     31  C   UNL     1       0.506  -0.581   0.681  0.00  0.00    +0.015 C 
ATOM     32  C   UNL     1      -0.362  -0.265  -0.539  0.00  0.00    +0.046 C 
BRANCH  32  33
ATOM     33  C   UNL     1      -0.274   1.207  -0.850  0.00  0.00    -0.042 A 
ATOM     34  C   UNL     1      -0.578   2.139   0.125  0.00  0.00    +0.004 A 
ATOM     35  C   UNL     1      -0.497   3.489  -0.160  0.00  0.00    +0.000 A 
ATOM     36  C   UNL     1      -0.112   3.908  -1.420  0.00  0.00    +0.000 A 
ATOM     37  C   UNL     1       0.193   2.976  -2.394  0.00  0.00    +0.000 A 
ATOM     38  C   UNL     1       0.117   1.626  -2.108  0.00  0.00    +0.004 A 
ENDBRANCH  32  33
ENDBRANCH   1  32
TORSDOF 9
