REMARK  Name = ZINC12619124
REMARK  5 active torsions:
REMARK  status: ('A' for Active; 'I' for Inactive)
REMARK    1  A    between atoms: C_1  and  C_2
REMARK    2  A    between atoms: C_3  and  C_17
REMARK    3  A    between atoms: C_4  and  C_10
REMARK    4  A    between atoms: N_19  and  C_20
REMARK    5  A    between atoms: C_24  and  N_26
REMARK                            x       y       z     vdW  Elec       q    Type
REMARK                         _______ _______ _______ _____ _____    ______ ____
ROOT
ATOM      1  C   UNL     1      -2.145   1.409   2.395  0.00  0.00    +0.061 C 
ATOM      2  C   UNL     1      -1.177   1.597   1.256  0.00  0.00    +0.019 C 
ATOM      3  C   UNL     1      -1.516   2.393   0.221  0.00  0.00    +0.056 C 
ATOM      4  C   UNL     1      -0.516   2.550  -0.906  0.00  0.00    +0.142 C 
ATOM      5  N   UNL     1       0.756   1.819  -0.776  0.00  0.00    -0.288 N 
ATOM      6  C   UNL     1       0.952   1.063   0.323  0.00  0.00    +0.304 C 
ATOM      7  O   UNL     1       1.999   0.456   0.439  0.00  0.00    -0.252 OA
ATOM      8  N   UNL     1       0.032   0.961   1.290  0.00  0.00    -0.273 N 
ATOM      9  H   UNL     1       1.436   1.879  -1.466  0.00  0.00    +0.151 HD
ATOM     10  H   UNL     1       0.234   0.402   2.056  0.00  0.00    +0.156 HD
ENDROOT
BRANCH   4  11
ATOM     11  C   UNL     1      -0.196   4.016  -1.044  0.00  0.00    -0.022 A 
ATOM     12  C   UNL     1       0.724   4.605  -0.197  0.00  0.00    +0.007 A 
ATOM     13  C   UNL     1       1.021   5.949  -0.326  0.00  0.00    +0.015 A 
ATOM     14  C   UNL     1       0.389   6.707  -1.296  0.00  0.00    +0.018 A 
ATOM     15  C   UNL     1      -0.536   6.118  -2.139  0.00  0.00    +0.015 A 
ATOM     16  C   UNL     1      -0.828   4.773  -2.013  0.00  0.00    +0.007 A 
ATOM     17 BR   UNL     1       0.789   8.547  -1.467  0.00  0.00    -0.050 Br
ENDBRANCH   4  11
BRANCH   3  18
ATOM     18  C   UNL     1      -2.767   3.057   0.187  0.00  0.00    +0.248 C 
ATOM     19  O   UNL     1      -3.459   3.002  -0.814  0.00  0.00    -0.270 OA
ATOM     20  N   UNL     1      -3.191   3.751   1.262  0.00  0.00    -0.282 N 
ATOM     21  H   UNL     1      -2.597   3.887   2.017  0.00  0.00    +0.155 HD
BRANCH  20  22
ATOM     22  C   UNL     1      -4.488   4.273   1.290  0.00  0.00    +0.036 A 
ATOM     23  C   UNL     1      -5.098   4.685   0.111  0.00  0.00    +0.023 A 
ATOM     24  C   UNL     1      -6.378   5.201   0.142  0.00  0.00    +0.004 A 
ATOM     25  C   UNL     1      -7.054   5.308   1.344  0.00  0.00    +0.033 A 
ATOM     26  C   UNL     1      -6.450   4.899   2.519  0.00  0.00    +0.128 A 
ATOM     27  C   UNL     1      -5.171   4.377   2.494  0.00  0.00    +0.056 A 
BRANCH  26  28
ATOM     28  N   UNL     1      -7.176   5.015   3.803  0.00  0.00    +0.056 N 
ATOM     29  O   UNL     1      -8.306   5.470   3.825  0.00  0.00    -0.126 OA
ATOM     30  O   UNL     1      -6.645   4.655   4.838  0.00  0.00    -0.126 OA
ENDBRANCH  26  28
ENDBRANCH  20  22
ENDBRANCH   3  18
TORSDOF 4
