REMARK  Name = ZINC32697279
REMARK  8 active torsions:
REMARK  status: ('A' for Active; 'I' for Inactive)
REMARK    1  A    between atoms: C_4  and  C_7
REMARK    2  A    between atoms: C_8  and  C_30
REMARK    3  A    between atoms: C_9  and  N_18
REMARK    4  A    between atoms: C_11  and  C_12
REMARK    5  A    between atoms: C_19  and  C_21
REMARK    6  A    between atoms: C_21  and  S_22
REMARK    7  A    between atoms: S_22  and  C_23
REMARK    8  A    between atoms: C_28  and  N_29
REMARK                            x       y       z     vdW  Elec       q    Type
REMARK                         _______ _______ _______ _____ _____    ______ ____
ROOT
ATOM      1  C   UNL     1       1.142   2.334  -0.047  0.00  0.00    +0.047 A 
ATOM      2  C   UNL     1      -0.013   1.432   0.116  0.00  0.00    +0.121 A 
ATOM      3  C   UNL     1      -1.127   2.256   0.130  0.00  0.00    +0.211 A 
ATOM      4  O   UNL     1      -0.720   3.525   0.000  0.00  0.00    -0.439 OA
ATOM      5  C   UNL     1       0.620   3.597  -0.110  0.00  0.00    +0.146 A 
ENDROOT
BRANCH   1   9
ATOM      6  C   UNL     1       5.241   1.238  -0.276  0.00  0.00    +0.000 A 
ATOM      7  C   UNL     1       4.372   0.866  -1.286  0.00  0.00    +0.001 A 
ATOM      8  C   UNL     1       3.039   1.219  -1.217  0.00  0.00    +0.008 A 
ATOM      9  C   UNL     1       2.570   1.952  -0.127  0.00  0.00    -0.013 A 
ATOM     10  C   UNL     1       3.454   2.329   0.885  0.00  0.00    +0.008 A 
ATOM     11  C   UNL     1       4.782   1.965   0.808  0.00  0.00    +0.001 A 
ENDBRANCH   1   9
BRANCH   5  12
ATOM     12  C   UNL     1       1.400   4.839  -0.272  0.00  0.00    +0.018 A 
ATOM     13  C   UNL     1       1.141   5.942   0.546  0.00  0.00    +0.011 A 
ATOM     14  C   UNL     1       1.878   7.098   0.392  0.00  0.00    +0.001 A 
ATOM     15  C   UNL     1       2.864   7.170  -0.576  0.00  0.00    +0.000 A 
ATOM     16  C   UNL     1       3.122   6.083  -1.393  0.00  0.00    +0.001 A 
ATOM     17  C   UNL     1       2.397   4.919  -1.247  0.00  0.00    +0.011 A 
ENDBRANCH   5  12
BRANCH   3  18
ATOM     18  N   UNL     1      -2.439   1.837   0.259  0.00  0.00    -0.255 N 
ATOM     19  C   UNL     1      -3.438   2.742   0.257  0.00  0.00    +0.230 C 
ATOM     20  O   UNL     1      -3.186   3.923   0.143  0.00  0.00    -0.274 OA
ATOM     21  H   UNL     1      -2.667   0.766   0.362  0.00  0.00    +0.158 HD
BRANCH  19  22
ATOM     22  C   UNL     1      -4.867   2.286   0.398  0.00  0.00    +0.170 C 
BRANCH  22  23
ATOM     23  S   UNL     1      -5.968   3.728   0.360  0.00  0.00    -0.114 S 
BRANCH  23  24
ATOM     24  C   UNL     1      -7.580   3.038   0.533  0.00  0.00    +0.029 A 
ATOM     25  C   UNL     1      -7.740   1.665   0.650  0.00  0.00    +0.016 A 
ATOM     26  C   UNL     1      -9.006   1.126   0.791  0.00  0.00    +0.001 A 
ATOM     27  C   UNL     1     -10.115   1.952   0.804  0.00  0.00    +0.002 A 
ATOM     28  C   UNL     1      -9.965   3.321   0.682  0.00  0.00    +0.024 A 
ATOM     29  C   UNL     1      -8.700   3.870   0.546  0.00  0.00    +0.038 A 
BRANCH  29  30
ATOM     30  N   UNL     1      -8.546   5.256   0.422  0.00  0.00    -0.357 N 
ATOM     31  H   UNL     1      -9.430   5.911   0.433  0.00  0.00    +0.142 HD
ATOM     32  H   UNL     1      -7.541   5.691   0.314  0.00  0.00    +0.142 HD
ENDBRANCH  29  30
ENDBRANCH  23  24
ENDBRANCH  22  23
ENDBRANCH  19  22
ENDBRANCH   3  18
BRANCH   2  33
ATOM     33  C   UNL     1       0.011   0.005   0.230  0.00  0.00    +0.105 C 
ATOM     34  N   UNL     1       0.030  -1.128   0.321  0.00  0.00    -0.191 NA
ENDBRANCH   2  33
TORSDOF 8
