REMARK  Name = ZINC26637567
REMARK  13 active torsions:
REMARK  status: ('A' for Active; 'I' for Inactive)
REMARK    1  A    between atoms: C_1  and  C_2
REMARK    2  A    between atoms: C_5  and  N_8
REMARK    3  A    between atoms: N_8  and  S_9
REMARK    4  A    between atoms: S_9  and  C_12
REMARK    5  A    between atoms: C_15  and  C_18
REMARK    6  A    between atoms: N_20  and  C_21
REMARK    7  A    between atoms: C_21  and  C_22
REMARK    8  A    between atoms: C_22  and  C_24
REMARK    9  A    between atoms: C_22  and  N_32
REMARK   10  A    between atoms: C_27  and  O_30
REMARK   11  A    between atoms: O_30  and  C_31
REMARK   12  A    between atoms: N_32  and  C_33
REMARK   13  A    between atoms: N_32  and  C_34
REMARK                            x       y       z     vdW  Elec       q    Type
REMARK                         _______ _______ _______ _____ _____    ______ ____
ROOT
ATOM      1  C   UNL     1       1.522   2.055   1.913  0.00  0.00    +0.109 A 
ATOM      2  C   UNL     1       2.396   2.691   2.777  0.00  0.00    +0.029 A 
ATOM      3  C   UNL     1       3.629   3.116   2.327  0.00  0.00    +0.015 A 
ATOM      4  C   UNL     1       3.990   2.912   0.995  0.00  0.00    +0.037 A 
ATOM      5  C   UNL     1       3.102   2.274   0.127  0.00  0.00    +0.015 A 
ATOM      6  C   UNL     1       1.874   1.849   0.591  0.00  0.00    +0.029 A 
ENDROOT
BRANCH   4   7
ATOM      7  C   UNL     1       5.308   3.369   0.504  0.00  0.00    +0.244 C 
ATOM      8  O   UNL     1       5.620   3.189  -0.657  0.00  0.00    -0.270 OA
ATOM      9  N   UNL     1       6.163   3.984   1.345  0.00  0.00    -0.313 N 
ATOM     10  H   UNL     1       5.881   4.147   2.395  0.00  0.00    +0.149 HD
BRANCH   9  11
ATOM     11  C   UNL     1       7.469   4.437   0.859  0.00  0.00    +0.094 C 
BRANCH  11  12
ATOM     12  C   UNL     1       8.238   5.098   2.004  0.00  0.00    -0.021 C 
BRANCH  12  13
ATOM     13  C   UNL     1       9.528   5.673   1.477  0.00  0.00    -0.059 A 
ATOM     14  C   UNL     1       9.528   6.408   0.307  0.00  0.00    +0.005 A 
ATOM     15  C   UNL     1      10.709   6.941  -0.175  0.00  0.00    +0.046 A 
ATOM     16  C   UNL     1      11.896   6.727   0.510  0.00  0.00    +0.120 A 
ATOM     17  C   UNL     1      11.893   5.984   1.682  0.00  0.00    +0.046 A 
ATOM     18  C   UNL     1      10.710   5.458   2.163  0.00  0.00    +0.005 A 
BRANCH  16  19
ATOM     19  O   UNL     1      13.059   7.244   0.035  0.00  0.00    -0.495 OA
ATOM     20  C   UNL     1      12.986   7.999  -1.177  0.00  0.00    +0.277 C 
ENDBRANCH  16  19
ENDBRANCH  12  13
BRANCH  12  21
ATOM     21  N   UNL     1       7.424   6.174   2.584  0.00  0.00    +0.382 N 
ATOM     22  C   UNL     1       7.948   6.584   3.894  0.00  0.00    -0.096 C 
ATOM     23  C   UNL     1       7.337   7.321   1.670  0.00  0.00    -0.096 C 
ATOM     24  H   UNL     1       6.406   5.784   2.735  0.00  0.00    -0.082 HD
ENDBRANCH  12  21
ENDBRANCH  11  12
ENDBRANCH   9  11
ENDBRANCH   4   7
BRANCH   1  25
ATOM     25  S   UNL     1      -0.048   1.510   2.498  0.00  0.00    +0.072 S 
ATOM     26  O   UNL     1      -0.882   1.373   1.355  0.00  0.00    -0.150 OA
ATOM     27  O   UNL     1      -0.388   2.350   3.592  0.00  0.00    -0.150 OA
BRANCH  25  28
ATOM     28  N   UNL     1       0.161  -0.012   3.117  0.00  0.00    -0.216 N 
ATOM     29  H   UNL     1      -0.316  -0.874   2.629  0.00  0.00    +0.174 HD
BRANCH  28  34
ATOM     30  C   UNL     1       3.335  -0.777   7.753  0.00  0.00    +0.044 C 
ATOM     31  C   UNL     1       2.492  -0.574   6.521  0.00  0.00    -0.050 A 
ATOM     32  C   UNL     1       1.226  -0.028   6.634  0.00  0.00    +0.005 A 
ATOM     33  C   UNL     1       0.451   0.160   5.507  0.00  0.00    +0.025 A 
ATOM     34  C   UNL     1       0.943  -0.200   4.259  0.00  0.00    +0.048 A 
ATOM     35  C   UNL     1       2.212  -0.753   4.149  0.00  0.00    +0.025 A 
ATOM     36  C   UNL     1       2.985  -0.934   5.280  0.00  0.00    +0.005 A 
ENDBRANCH  28  34
ENDBRANCH  25  28
ENDBRANCH   1  25
TORSDOF 9
