REMARK  Name = ZINC38738943
REMARK  6 active torsions:
REMARK  status: ('A' for Active; 'I' for Inactive)
REMARK    1  A    between atoms: C_1  and  N_2
REMARK    2  A    between atoms: C_5  and  N_9
REMARK    3  A    between atoms: N_12  and  C_15
REMARK    4  A    between atoms: C_15  and  N_16
REMARK    5  A    between atoms: C_20  and  C_22
REMARK    6  A    between atoms: C_23  and  C_24
REMARK                            x       y       z     vdW  Elec       q    Type
REMARK                         _______ _______ _______ _____ _____    ______ ____
ROOT
ATOM      1  N   UNL     1      -1.424  -4.452  -0.016  0.00  0.00    -0.312 N 
ATOM      2  C   UNL     1      -0.023  -4.884  -0.130  0.00  0.00    +0.122 C 
ATOM      3  C   UNL     1       0.272  -5.881   0.995  0.00  0.00    +0.105 C 
ATOM      4  N   UNL     1      -0.718  -6.966   0.955  0.00  0.00    -0.281 NA
ATOM      5  C   UNL     1      -2.074  -6.460   1.204  0.00  0.00    +0.105 C 
ATOM      6  C   UNL     1      -2.464  -5.486   0.093  0.00  0.00    +0.122 C 
ENDROOT
BRANCH   1  11
ATOM      7  C   UNL     1      -0.073   1.451  -0.536  0.00  0.00    +0.151 C 
ATOM      8  N   UNL     1      -0.047  -0.013  -0.479  0.00  0.00    -0.255 N 
ATOM      9  C   UNL     1      -1.154  -0.797  -0.225  0.00  0.00    +0.121 A 
ATOM     10  C   UNL     1      -0.792  -2.140  -0.241  0.00  0.00    +0.047 A 
ATOM     11  C   UNL     1      -1.755  -3.106  -0.007  0.00  0.00    +0.131 A 
ATOM     12  N   UNL     1      -3.009  -2.715   0.228  0.00  0.00    -0.222 NA
ATOM     13  C   UNL     1      -3.321  -1.435   0.237  0.00  0.00    +0.199 A 
ATOM     14  N   UNL     1      -2.430  -0.490   0.018  0.00  0.00    -0.333 N 
ATOM     15  C   UNL     1       0.686  -2.182  -0.535  0.00  0.00    +0.144 C 
ATOM     16  N   UNL     1       1.073  -0.764  -0.677  0.00  0.00    -0.235 NA
ATOM     17  H   UNL     1       1.472  -0.586  -1.587  0.00  0.00    +0.145 HD
ATOM     18  H   UNL     1      -2.704   0.440   0.034  0.00  0.00    +0.168 HD
ENDBRANCH   1  11
BRANCH   4  19
ATOM     19  C   UNL     1      -0.370  -8.031   1.906  0.00  0.00    +0.233 C 
BRANCH  19  20
ATOM     20  N   UNL     1      -0.961  -9.296   1.460  0.00  0.00    -0.226 N 
ATOM     21  C   UNL     1      -2.043  -9.900   1.991  0.00  0.00    +0.177 A 
ATOM     22  S   UNL     1      -2.975  -9.328   3.307  0.00  0.00    -0.011 S 
ATOM     23  N   UNL     1      -2.259 -11.037   1.298  0.00  0.00    -0.318 N 
ATOM     24  C   UNL     1      -1.289 -11.137   0.317  0.00  0.00    +0.153 A 
ATOM     25  N   UNL     1      -0.506 -10.093   0.401  0.00  0.00    -0.150 NA
ATOM     26  H   UNL     1      -2.972 -11.674   1.460  0.00  0.00    +0.169 HD
BRANCH  24  27
ATOM     27  C   UNL     1      -1.164 -12.228  -0.657  0.00  0.00    +0.048 C 
ATOM     28  C   UNL     1      -0.171 -12.208  -1.565  0.00  0.00    +0.011 C 
BRANCH  28  29
ATOM     29  C   UNL     1      -0.045 -13.302  -2.543  0.00  0.00    -0.025 A 
ATOM     30  C   UNL     1      -0.959 -14.360  -2.534  0.00  0.00    +0.011 A 
ATOM     31  C   UNL     1      -0.836 -15.381  -3.452  0.00  0.00    +0.039 A 
ATOM     32  C   UNL     1       0.192 -15.361  -4.382  0.00  0.00    +0.123 A 
ATOM     33  C   UNL     1       1.101 -14.315  -4.396  0.00  0.00    +0.039 A 
ATOM     34  C   UNL     1       0.986 -13.285  -3.487  0.00  0.00    +0.011 A 
ATOM     35  F   UNL     1       0.307 -16.365  -5.279  0.00  0.00    -0.205 F 
ENDBRANCH  28  29
ENDBRANCH  24  27
ENDBRANCH  19  20
ENDBRANCH   4  19
TORSDOF 5
