REMARK  Name = ZINC35744367
REMARK  9 active torsions:
REMARK  status: ('A' for Active; 'I' for Inactive)
REMARK    1  A    between atoms: C_4  and  C_7
REMARK    2  A    between atoms: C_7  and  C_8
REMARK    3  A    between atoms: C_8  and  C_10
REMARK    4  A    between atoms: C_8  and  O_34
REMARK    5  A    between atoms: C_10  and  N_11
REMARK    6  A    between atoms: N_11  and  C_12
REMARK    7  A    between atoms: N_11  and  C_19
REMARK    8  A    between atoms: C_12  and  C_13
REMARK    9  A    between atoms: C_19  and  C_20
REMARK                            x       y       z     vdW  Elec       q    Type
REMARK                         _______ _______ _______ _____ _____    ______ ____
ROOT
ATOM      1  N   UNL     1       5.669  -1.897   2.727  0.00  0.00    +0.389 N 
ATOM      2  H   UNL     1       4.930  -2.425   3.167  0.00  0.00    -0.081 HD
ENDROOT
BRANCH   1   3
ATOM      3  C   UNL     1       5.258  -1.520   1.367  0.00  0.00    -0.046 C 
BRANCH   3   4
ATOM      4  C   UNL     1       3.822  -0.995   1.396  0.00  0.00    +0.102 C 
BRANCH   4   5
ATOM      5  O   UNL     1       3.781   0.243   2.108  0.00  0.00    -0.393 OA
ATOM      6  H   UNL     1       4.232   0.971   1.657  0.00  0.00    +0.210 HD
ENDBRANCH   4   5
BRANCH   4   7
ATOM      7  C   UNL     1       3.331  -0.776  -0.037  0.00  0.00    +0.064 C 
BRANCH   7  11
ATOM      8  C   UNL     1      -0.788   0.356   0.025  0.00  0.00    +0.000 A 
ATOM      9  C   UNL     1       0.196   1.325   0.083  0.00  0.00    +0.000 A 
ATOM     10  C   UNL     1       1.529   0.959   0.064  0.00  0.00    +0.004 A 
ATOM     11  C   UNL     1       1.878  -0.377  -0.014  0.00  0.00    -0.045 A 
ATOM     12  C   UNL     1       0.893  -1.346  -0.071  0.00  0.00    +0.004 A 
ATOM     13  C   UNL     1      -0.439  -0.979  -0.053  0.00  0.00    +0.000 A 
ENDBRANCH   7  11
ENDBRANCH   4   7
ENDBRANCH   3   4
ENDBRANCH   1   3
BRANCH   1  14
ATOM     14  C   UNL     1       5.937  -0.684   3.511  0.00  0.00    -0.042 C 
BRANCH  14  15
ATOM     15  C   UNL     1       7.127   0.036   2.930  0.00  0.00    -0.064 A 
ATOM     16  C   UNL     1       8.399  -0.245   3.393  0.00  0.00    +0.002 A 
ATOM     17  C   UNL     1       9.490   0.415   2.861  0.00  0.00    +0.000 A 
ATOM     18  C   UNL     1       9.310   1.357   1.865  0.00  0.00    +0.000 A 
ATOM     19  C   UNL     1       8.038   1.638   1.402  0.00  0.00    +0.000 A 
ATOM     20  C   UNL     1       6.947   0.974   1.931  0.00  0.00    +0.002 A 
ENDBRANCH  14  15
ENDBRANCH   1  14
BRANCH   1  21
ATOM     21  C   UNL     1       6.886  -2.717   2.661  0.00  0.00    -0.003 C 
BRANCH  21  22
ATOM     22  C   UNL     1       7.237  -3.206   4.043  0.00  0.00    +0.094 A 
ATOM     23  N   UNL     1       8.338  -3.982   4.215  0.00  0.00    -0.312 N 
ATOM     24  H   UNL     1       8.883  -4.211   3.446  0.00  0.00    +0.170 HD
ATOM     25  C   UNL     1       8.688  -4.440   5.432  0.00  0.00    +0.260 A 
ATOM     26  O   UNL     1       9.679  -5.136   5.572  0.00  0.00    -0.267 OA
ATOM     27  C   UNL     1       7.875  -4.094   6.559  0.00  0.00    +0.075 A 
ATOM     28  C   UNL     1       8.065  -4.477   7.966  0.00  0.00    -0.023 A 
ATOM     29  C   UNL     1       7.157  -4.023   8.847  0.00  0.00    -0.004 A 
ATOM     30  S   UNL     1       6.012  -3.070   7.877  0.00  0.00    -0.073 S 
ATOM     31  C   UNL     1       6.761  -3.289   6.285  0.00  0.00    +0.116 A 
ATOM     32  N   UNL     1       6.481  -2.870   5.053  0.00  0.00    -0.229 NA
ATOM     33  C   UNL     1       7.448  -4.481  10.251  0.00  0.00    +0.043 C 
ATOM     34  C   UNL     1       8.438  -5.654  10.078  0.00  0.00    +0.010 C 
ATOM     35  C   UNL     1       9.099  -5.310   8.729  0.00  0.00    +0.037 C 
ENDBRANCH  21  22
ENDBRANCH   1  21
TORSDOF 9
