REMARK  Name = ZINC04163466
REMARK  12 active torsions:
REMARK  status: ('A' for Active; 'I' for Inactive)
REMARK    1  A    between atoms: C_1  and  C_2
REMARK    2  A    between atoms: C_2  and  C_24
REMARK    3  A    between atoms: C_4  and  N_9
REMARK    4  A    between atoms: C_6  and  C_7
REMARK    5  A    between atoms: C_6  and  C_8
REMARK    6  A    between atoms: N_9  and  C_10
REMARK    7  A    between atoms: C_10  and  N_12
REMARK    8  A    between atoms: N_12  and  C_13
REMARK    9  A    between atoms: C_16  and  C_19
REMARK   10  A    between atoms: C_19  and  C_20
REMARK   11  A    between atoms: C_20  and  O_22
REMARK   12  A    between atoms: O_22  and  C_23
REMARK                            x       y       z     vdW  Elec       q    Type
REMARK                         _______ _______ _______ _____ _____    ______ ____
ROOT
ATOM      1  C   UNL     1       2.410  -2.734  -0.138  0.00  0.00    +0.135 C 
ATOM      2  S   UNL     1       3.881  -1.859  -0.147  0.00  0.00    -0.019 S 
ENDROOT
BRANCH   1   3
ATOM      3  N   UNL     1       2.424  -4.077  -0.247  0.00  0.00    -0.324 N 
ATOM      4  H   UNL     1       1.590  -4.573  -0.242  0.00  0.00    +0.148 HD
BRANCH   3   8
ATOM      5  C   UNL     1       5.819  -6.550   1.083  0.00  0.00    -0.010 C 
ATOM      6  C   UNL     1       4.839  -6.996  -0.009  0.00  0.00    -0.072 C 
ATOM      7  C   UNL     1       3.531  -6.222   0.132  0.00  0.00    +0.009 C 
ATOM      8  C   UNL     1       3.701  -4.790  -0.374  0.00  0.00    +0.069 C 
ATOM      9  C   UNL     1       4.105  -4.840  -1.847  0.00  0.00    +0.009 C 
ATOM     10  C   UNL     1       5.422  -5.596  -2.011  0.00  0.00    -0.072 C 
ATOM     11  C   UNL     1       6.583  -4.708  -1.547  0.00  0.00    -0.010 C 
ATOM     12  C   UNL     1       5.623  -5.859  -3.520  0.00  0.00    -0.010 C 
ATOM     13  C   UNL     1       4.526  -8.488   0.239  0.00  0.00    -0.010 C 
ATOM     14  N   UNL     1       5.463  -6.932  -1.358  0.00  0.00    +0.386 N 
ATOM     15  H   UNL     1       4.973  -7.598  -1.967  0.00  0.00    -0.084 HD
ATOM     16  H   UNL     1       6.447  -7.211  -1.267  0.00  0.00    -0.084 HD
ENDBRANCH   3   8
ENDBRANCH   1   3
BRANCH   1  17
ATOM     17  N   UNL     1       1.237  -2.079  -0.021  0.00  0.00    -0.297 N 
ATOM     18  H   UNL     1       0.410  -2.578   0.065  0.00  0.00    +0.154 HD
BRANCH  17  19
ATOM     19  C   UNL     1       1.214  -0.680  -0.024  0.00  0.00    +0.033 A 
ATOM     20  C   UNL     1       2.011   0.027  -0.914  0.00  0.00    +0.023 A 
ATOM     21  C   UNL     1       1.986   1.408  -0.915  0.00  0.00    +0.006 A 
ATOM     22  C   UNL     1       1.168   2.086  -0.030  0.00  0.00    -0.037 A 
ATOM     23  C   UNL     1       0.372   1.385   0.858  0.00  0.00    +0.006 A 
ATOM     24  C   UNL     1       0.393   0.004   0.863  0.00  0.00    +0.023 A 
BRANCH  22  25
ATOM     25  C   UNL     1       1.143   3.593  -0.033  0.00  0.00    +0.155 C 
BRANCH  25  26
ATOM     26  C   UNL     1       0.084   4.076  -0.990  0.00  0.00    +0.311 C 
ATOM     27  O   UNL     1      -0.582   3.278  -1.607  0.00  0.00    -0.250 OA
BRANCH  26  28
ATOM     28  O   UNL     1      -0.119   5.392  -1.158  0.00  0.00    -0.468 OA
ATOM     29  C   UNL     1      -1.155   5.785  -2.096  0.00  0.00    +0.280 C 
ENDBRANCH  26  28
ENDBRANCH  25  26
ENDBRANCH  22  25
ENDBRANCH  17  19
ENDBRANCH   1  17
TORSDOF 7
