REMARK  Name = ZINC03772073
REMARK  14 active torsions:
REMARK  status: ('A' for Active; 'I' for Inactive)
REMARK    1  A    between atoms: C_1  and  C_2
REMARK    2  A    between atoms: C_2  and  C_3
REMARK    3  A    between atoms: C_2  and  C_4
REMARK    4  A    between atoms: C_7  and  C_10
REMARK    5  A    between atoms: C_10  and  C_12
REMARK    6  A    between atoms: C_10  and  N_24
REMARK    7  A    between atoms: N_14  and  C_15
REMARK    8  A    between atoms: C_18  and  N_21
REMARK    9  A    between atoms: N_21  and  C_22
REMARK   10  A    between atoms: N_21  and  C_23
REMARK   11  A    between atoms: N_24  and  C_25
REMARK   12  A    between atoms: C_25  and  C_26
REMARK   13  A    between atoms: C_33  and  C_35
REMARK   14  A    between atoms: C_35  and  N_36
REMARK                            x       y       z     vdW  Elec       q    Type
REMARK                         _______ _______ _______ _____ _____    ______ ____
ROOT
ATOM      1  C   UNL     1      -1.398   4.163   1.046  0.00  0.00    +0.193 C 
ENDROOT
BRANCH   1   5
ATOM      2  C   UNL     1      -3.893   4.185   4.514  0.00  0.00    -0.045 A 
ATOM      3  C   UNL     1      -3.903   3.096   3.662  0.00  0.00    +0.004 A 
ATOM      4  C   UNL     1      -3.096   3.089   2.540  0.00  0.00    +0.006 A 
ATOM      5  C   UNL     1      -2.278   4.171   2.269  0.00  0.00    -0.018 A 
ATOM      6  C   UNL     1      -2.265   5.257   3.124  0.00  0.00    +0.006 A 
ATOM      7  C   UNL     1      -3.076   5.266   4.243  0.00  0.00    +0.004 A 
BRANCH   2   9
ATOM      8  C   UNL     1      -3.904   4.321   6.990  0.00  0.00    +0.012 C 
ATOM      9  C   UNL     1      -4.773   4.192   5.737  0.00  0.00    +0.013 C 
ATOM     10  C   UNL     1      -5.739   5.376   5.663  0.00  0.00    +0.012 C 
ENDBRANCH   2   9
ENDBRANCH   1   5
BRANCH   1  11
ATOM     11  C   UNL     1       0.048   4.117   1.469  0.00  0.00    +0.242 C 
ATOM     12  O   UNL     1       0.665   5.149   1.631  0.00  0.00    -0.273 OA
ATOM     13  N   UNL     1       0.655   2.930   1.666  0.00  0.00    -0.284 N 
ATOM     14  H   UNL     1       0.180   2.106   1.481  0.00  0.00    +0.155 HD
BRANCH  13  15
ATOM     15  C   UNL     1       1.974   2.888   2.140  0.00  0.00    +0.034 A 
ATOM     16  C   UNL     1       2.888   3.852   1.735  0.00  0.00    +0.025 A 
ATOM     17  C   UNL     1       4.188   3.807   2.197  0.00  0.00    +0.025 A 
ATOM     18  C   UNL     1       4.582   2.798   3.067  0.00  0.00    +0.029 A 
ATOM     19  C   UNL     1       3.667   1.835   3.471  0.00  0.00    +0.025 A 
ATOM     20  C   UNL     1       2.367   1.880   3.009  0.00  0.00    +0.025 A 
BRANCH  18  21
ATOM     21  N   UNL     1       5.899   2.753   3.535  0.00  0.00    -0.336 N 
ATOM     22  C   UNL     1       6.314   1.689   4.453  0.00  0.00    +0.129 C 
ATOM     23  C   UNL     1       6.864   3.770   3.108  0.00  0.00    +0.129 C 
ENDBRANCH  18  21
ENDBRANCH  13  15
ENDBRANCH   1  11
BRANCH   1  24
ATOM     24  N   UNL     1      -1.640   5.377   0.263  0.00  0.00    -0.280 N 
ATOM     25  C   UNL     1      -2.280   5.298  -0.921  0.00  0.00    +0.238 C 
ATOM     26  O   UNL     1      -2.765   4.246  -1.279  0.00  0.00    -0.274 OA
BRANCH  24  27
ATOM     27  C   UNL     1      -1.186   6.676   0.765  0.00  0.00    +0.144 C 
BRANCH  27  28
ATOM     28  C   UNL     1      -0.249   7.301  -0.236  0.00  0.00    -0.030 A 
ATOM     29  C   UNL     1       0.808   6.569  -0.744  0.00  0.00    +0.008 A 
ATOM     30  C   UNL     1       1.665   7.141  -1.666  0.00  0.00    +0.038 A 
ATOM     31  C   UNL     1       1.471   8.450  -2.071  0.00  0.00    +0.123 A 
ATOM     32  C   UNL     1       0.415   9.184  -1.558  0.00  0.00    +0.038 A 
ATOM     33  C   UNL     1      -0.443   8.609  -0.640  0.00  0.00    +0.008 A 
ATOM     34  F   UNL     1       2.311   9.011  -2.969  0.00  0.00    -0.205 F 
ENDBRANCH  27  28
ENDBRANCH  24  27
BRANCH  25  35
ATOM     35  C   UNL     1      -2.395   6.518  -1.798  0.00  0.00    +0.241 C 
BRANCH  35  36
ATOM     36  N   UNL     1      -2.994   6.143  -3.081  0.00  0.00    -0.235 N 
ATOM     37  C   UNL     1      -2.327   5.737  -4.213  0.00  0.00    +0.090 A 
ATOM     38  C   UNL     1      -0.986   5.537  -4.525  0.00  0.00    +0.029 A 
ATOM     39  C   UNL     1      -0.637   5.108  -5.775  0.00  0.00    +0.002 A 
ATOM     40  C   UNL     1      -1.610   4.863  -6.736  0.00  0.00    +0.002 A 
ATOM     41  C   UNL     1      -2.932   5.045  -6.452  0.00  0.00    +0.032 A 
ATOM     42  C   UNL     1      -3.317   5.484  -5.178  0.00  0.00    +0.113 A 
ATOM     43  N   UNL     1      -4.513   5.747  -4.617  0.00  0.00    -0.129 NA
ATOM     44  N   UNL     1      -4.360   6.132  -3.399  0.00  0.00    -0.064 NA
ENDBRANCH  35  36
ENDBRANCH  25  35
ENDBRANCH   1  24
TORSDOF 10
