REMARK  Name = ZINC44163266
REMARK  9 active torsions:
REMARK  status: ('A' for Active; 'I' for Inactive)
REMARK    1  A    between atoms: C_1  and  S_2
REMARK    2  A    between atoms: S_2  and  C_3
REMARK    3  A    between atoms: C_7  and  N_9
REMARK    4  A    between atoms: C_13  and  C_15
REMARK    5  A    between atoms: C_18  and  C_20
REMARK    6  A    between atoms: C_20  and  C_22
REMARK    7  A    between atoms: C_20  and  N_30
REMARK    8  A    between atoms: C_22  and  C_23
REMARK    9  A    between atoms: C_26  and  O_29
REMARK                            x       y       z     vdW  Elec       q    Type
REMARK                         _______ _______ _______ _____ _____    ______ ____
ROOT
ATOM      1  C   UNL     1       3.636  -5.865  -7.224  0.00  0.00    +0.165 A 
ATOM      2  C   UNL     1       3.450  -7.197  -7.039  0.00  0.00    +0.230 A 
ATOM      3  O   UNL     1       3.941  -7.817  -8.128  0.00  0.00    -0.449 OA
ATOM      4  C   UNL     1       4.417  -6.882  -8.961  0.00  0.00    +0.182 A 
ATOM      5  N   UNL     1       4.235  -5.707  -8.433  0.00  0.00    -0.210 NA
ENDROOT
BRANCH   1  10
ATOM      6  N   UNL     1       1.923  -3.393  -3.359  0.00  0.00    -0.268 N 
ATOM      7  C   UNL     1       2.495  -3.709  -4.578  0.00  0.00    +0.312 A 
ATOM      8  N   UNL     1       2.977  -2.859  -5.452  0.00  0.00    -0.092 NA
ATOM      9  N   UNL     1       3.429  -3.501  -6.471  0.00  0.00    -0.104 NA
ATOM     10  C   UNL     1       3.253  -4.787  -6.288  0.00  0.00    +0.271 A 
ATOM     11  O   UNL     1       2.663  -4.946  -5.083  0.00  0.00    -0.403 OA
ATOM     12  H   UNL     1       1.676  -4.100  -2.741  0.00  0.00    +0.157 HD
BRANCH   6  17
ATOM     13  C   UNL     1       1.423  -0.354  -1.345  0.00  0.00    +0.009 A 
ATOM     14  C   UNL     1       1.260   0.597  -2.346  0.00  0.00    +0.015 A 
ATOM     15  C   UNL     1       1.318   0.221  -3.674  0.00  0.00    +0.003 A 
ATOM     16  C   UNL     1       1.537  -1.101  -4.012  0.00  0.00    +0.023 A 
ATOM     17  C   UNL     1       1.701  -2.057  -3.016  0.00  0.00    +0.036 A 
ATOM     18  C   UNL     1       1.649  -1.681  -1.681  0.00  0.00    +0.038 A 
BRANCH  13  20
ATOM     19  C   UNL     1       1.042   1.914   0.284  0.00  0.00    +0.090 C 
ATOM     20  S   UNL     1       1.349   0.128   0.349  0.00  0.00    -0.129 S 
ENDBRANCH  13  20
ENDBRANCH   6  17
ENDBRANCH   1  10
BRANCH   4  21
ATOM     21  C   UNL     1       5.056  -7.149 -10.299  0.00  0.00    +0.017 C 
BRANCH  21  22
ATOM     22  N   UNL     1       6.009  -8.260 -10.174  0.00  0.00    +0.386 N 
ATOM     23  H   UNL     1       5.522  -9.087  -9.863  0.00  0.00    -0.089 HD
ATOM     24  H   UNL     1       6.437  -8.439 -11.070  0.00  0.00    -0.089 HD
ATOM     25  H   UNL     1       6.722  -8.018  -9.503  0.00  0.00    -0.089 HD
ENDBRANCH  21  22
BRANCH  21  26
ATOM     26  C   UNL     1       3.975  -7.516 -11.317  0.00  0.00    +0.028 C 
BRANCH  26  27
ATOM     27  C   UNL     1       4.598  -7.663 -12.681  0.00  0.00    -0.048 A 
ATOM     28  C   UNL     1       4.695  -6.566 -13.518  0.00  0.00    +0.007 A 
ATOM     29  C   UNL     1       5.265  -6.697 -14.769  0.00  0.00    +0.045 A 
ATOM     30  C   UNL     1       5.742  -7.932 -15.186  0.00  0.00    +0.117 A 
ATOM     31  C   UNL     1       5.644  -9.031 -14.345  0.00  0.00    +0.045 A 
ATOM     32  C   UNL     1       5.077  -8.893 -13.093  0.00  0.00    +0.007 A 
BRANCH  30  33
ATOM     33  O   UNL     1       6.303  -8.064 -16.417  0.00  0.00    -0.507 OA
ATOM     34  H   UNL     1       7.258  -7.912 -16.432  0.00  0.00    +0.292 HD
ENDBRANCH  30  33
ENDBRANCH  26  27
ENDBRANCH  21  26
ENDBRANCH   4  21
TORSDOF 8
