REMARK  Name = ZINC39789830
REMARK  11 active torsions:
REMARK  status: ('A' for Active; 'I' for Inactive)
REMARK    1  A    between atoms: C_1  and  N_2
REMARK    2  A    between atoms: N_2  and  C_3
REMARK    3  A    between atoms: N_2  and  C_29
REMARK    4  A    between atoms: C_3  and  C_4
REMARK    5  A    between atoms: C_4  and  C_5
REMARK    6  A    between atoms: C_5  and  N_6
REMARK    7  A    between atoms: C_7  and  C_9
REMARK    8  A    between atoms: C_9  and  S_10
REMARK    9  A    between atoms: S_10  and  C_11
REMARK   10  A    between atoms: C_15  and  C_20
REMARK   11  A    between atoms: N_16  and  C_17
REMARK                            x       y       z     vdW  Elec       q    Type
REMARK                         _______ _______ _______ _____ _____    ______ ____
ROOT
ATOM      1  C   UNL     1      -6.078  -4.114   6.989  0.00  0.00    +0.237 C 
ATOM      2  N   UNL     1      -6.648  -4.742   5.785  0.00  0.00    -0.237 N 
ATOM      3  N   UNL     1      -7.762  -3.974   5.425  0.00  0.00    -0.169 NA
ATOM      4  C   UNL     1      -7.935  -2.975   6.249  0.00  0.00    +0.147 C 
ATOM      5  N   UNL     1      -6.958  -2.963   7.252  0.00  0.00    -0.282 N 
ATOM      6  H   UNL     1      -6.316  -5.532   5.331  0.00  0.00    +0.171 HD
ENDROOT
BRANCH   4   7
ATOM      7  C   UNL     1      -8.970  -2.032   6.142  0.00  0.00    +0.022 C 
ATOM      8  C   UNL     1     -10.028  -2.041   5.234  0.00  0.00    +0.006 A 
ATOM      9  C   UNL     1     -10.388  -2.930   4.198  0.00  0.00    +0.010 A 
ATOM     10  C   UNL     1     -11.498  -2.684   3.455  0.00  0.00    +0.001 A 
ATOM     11  C   UNL     1     -12.302  -1.567   3.689  0.00  0.00    +0.002 A 
ATOM     12  C   UNL     1     -12.017  -0.672   4.667  0.00  0.00    +0.026 A 
ATOM     13  C   UNL     1     -10.872  -0.862   5.484  0.00  0.00    +0.043 A 
ATOM     14  N   UNL     1     -10.386  -0.151   6.483  0.00  0.00    -0.380 N 
ATOM     15  C   UNL     1      -9.174  -0.798   6.993  0.00  0.00    +0.152 C 
ATOM     16  H   UNL     1     -10.772   0.669   6.828  0.00  0.00    +0.160 HD
ENDBRANCH   4   7
BRANCH   5  17
ATOM     17  C   UNL     1      -6.833  -1.998   8.346  0.00  0.00    +0.078 C 
ATOM     18  C   UNL     1      -5.627  -2.136   9.277  0.00  0.00    +0.024 C 
ATOM     19  C   UNL     1      -7.023  -2.518   9.773  0.00  0.00    +0.024 C 
ENDBRANCH   5  17
BRANCH   1  20
ATOM     20  S   UNL     1      -4.382  -3.556   6.671  0.00  0.00    -0.109 S 
BRANCH  20  21
ATOM     21  C   UNL     1      -4.545  -2.441   5.250  0.00  0.00    +0.168 C 
BRANCH  21  23
ATOM     22  N   UNL     1      -3.065  -1.045   3.843  0.00  0.00    -0.315 N 
ATOM     23  C   UNL     1      -3.189  -1.900   4.878  0.00  0.00    +0.223 C 
ATOM     24  O   UNL     1      -2.209  -2.234   5.509  0.00  0.00    -0.275 OA
ATOM     25  H   UNL     1      -3.849  -0.778   3.338  0.00  0.00    +0.149 HD
BRANCH  22  26
ATOM     26  C   UNL     1      -1.747  -0.519   3.481  0.00  0.00    +0.106 C 
BRANCH  26  27
ATOM     27  C   UNL     1      -1.885   0.421   2.282  0.00  0.00    +0.037 C 
BRANCH  27  28
ATOM     28  C   UNL     1      -0.508   0.971   1.904  0.00  0.00    +0.106 C 
BRANCH  28  30
ATOM     29  C   UNL     1      -0.880   3.301   0.970  0.00  0.00    +0.129 C 
ATOM     30  N   UNL     1      -0.640   1.871   0.756  0.00  0.00    -0.333 N 
BRANCH  30  31
ATOM     31  C   UNL     1      -0.536   1.367  -0.543  0.00  0.00    +0.029 A 
ATOM     32  C   UNL     1      -0.314   0.011  -0.747  0.00  0.00    +0.023 A 
ATOM     33  C   UNL     1      -0.213  -0.484  -2.033  0.00  0.00    +0.002 A 
ATOM     34  C   UNL     1      -0.332   0.369  -3.115  0.00  0.00    +0.000 A 
ATOM     35  C   UNL     1      -0.553   1.719  -2.915  0.00  0.00    +0.002 A 
ATOM     36  C   UNL     1      -0.661   2.220  -1.632  0.00  0.00    +0.023 A 
ENDBRANCH  30  31
ENDBRANCH  28  30
ENDBRANCH  27  28
ENDBRANCH  26  27
ENDBRANCH  22  26
ENDBRANCH  21  23
ENDBRANCH  20  21
ENDBRANCH   1  20
TORSDOF 10
