REMARK  Name = ZINC12136324
REMARK  10 active torsions:
REMARK  status: ('A' for Active; 'I' for Inactive)
REMARK    1  A    between atoms: C_1  and  C_2
REMARK    2  A    between atoms: C_2  and  C_4
REMARK    3  A    between atoms: C_2  and  N_14
REMARK    4  A    between atoms: C_15  and  C_17
REMARK    5  A    between atoms: C_17  and  S_18
REMARK    6  A    between atoms: S_18  and  C_19
REMARK    7  A    between atoms: C_22  and  C_31
REMARK    8  A    between atoms: N_23  and  C_24
REMARK    9  A    between atoms: C_24  and  C_25
REMARK   10  A    between atoms: C_31  and  N_69
REMARK                            x       y       z     vdW  Elec       q    Type
REMARK                         _______ _______ _______ _____ _____    ______ ____
ROOT
ATOM      1  C   UNL     1       1.088  -0.400  -0.346  0.00  0.00    +0.192 A 
ATOM      2  N   UNL     1      -0.162  -0.000  -0.321  0.00  0.00    -0.123 NA
ATOM      3  N   UNL     1      -0.211   1.283  -0.372  0.00  0.00    -0.135 NA
ATOM      4  C   UNL     1       0.994   1.774  -0.433  0.00  0.00    +0.118 A 
ATOM      5  N   UNL     1       1.865   0.720  -0.419  0.00  0.00    -0.303 N 
ENDROOT
BRANCH   1   6
ATOM      6  S   UNL     1       1.655  -2.068  -0.296  0.00  0.00    -0.077 S 
BRANCH   6   7
ATOM      7  C   UNL     1       0.070  -2.937  -0.206  0.00  0.00    +0.173 C 
BRANCH   7   9
ATOM      8  N   UNL     1      -0.727  -5.275  -0.082  0.00  0.00    -0.308 N 
ATOM      9  C   UNL     1       0.315  -4.423  -0.153  0.00  0.00    +0.224 C 
ATOM     10  O   UNL     1       1.449  -4.852  -0.173  0.00  0.00    -0.275 OA
ATOM     11  H   UNL     1      -1.634  -4.932  -0.066  0.00  0.00    +0.149 HD
BRANCH   8  13
ATOM     12  C   UNL     1      -0.388  -7.271  -1.454  0.00  0.00    +0.033 C 
ATOM     13  C   UNL     1      -0.490  -6.720  -0.030  0.00  0.00    +0.101 C 
BRANCH  13  14
ATOM     14  C   UNL     1      -1.632  -7.391   0.688  0.00  0.00    -0.020 A 
ATOM     15  C   UNL     1      -2.869  -6.824   0.686  0.00  0.00    +0.006 A 
ATOM     16  C   UNL     1      -3.939  -7.432   1.340  0.00  0.00    +0.001 A 
ATOM     17  C   UNL     1      -3.775  -8.606   2.008  0.00  0.00    +0.008 A 
ATOM     18  C   UNL     1      -2.511  -9.220   2.037  0.00  0.00    -0.018 A 
ATOM     19  C   UNL     1      -1.424  -8.603   1.367  0.00  0.00    -0.013 A 
ATOM     20  C   UNL     1      -0.160  -9.217   1.396  0.00  0.00    +0.009 A 
ATOM     21  C   UNL     1       0.003 -10.392   2.063  0.00  0.00    +0.001 A 
ATOM     22  C   UNL     1      -1.066 -10.998   2.722  0.00  0.00    +0.001 A 
ATOM     23  C   UNL     1      -2.304 -10.432   2.716  0.00  0.00    +0.008 A 
ENDBRANCH  13  14
ENDBRANCH   8  13
ENDBRANCH   7   9
ENDBRANCH   6   7
ENDBRANCH   1   6
BRANCH   5  24
ATOM     24  C   UNL     1       3.328   0.780  -0.471  0.00  0.00    +0.160 C 
BRANCH  24  25
ATOM     25  C   UNL     1       3.781   0.741  -1.908  0.00  0.00    -0.028 A 
ATOM     26  C   UNL     1       4.045  -0.471  -2.517  0.00  0.00    +0.005 A 
ATOM     27  C   UNL     1       4.456  -0.507  -3.836  0.00  0.00    +0.000 A 
ATOM     28  C   UNL     1       4.613   0.670  -4.543  0.00  0.00    +0.000 A 
ATOM     29  C   UNL     1       4.354   1.883  -3.933  0.00  0.00    +0.000 A 
ATOM     30  C   UNL     1       3.938   1.919  -2.615  0.00  0.00    +0.005 A 
ENDBRANCH  24  25
ENDBRANCH   5  24
BRANCH   4  31
ATOM     31  C   UNL     1       1.361   3.234  -0.507  0.00  0.00    -0.001 C 
BRANCH  31  37
ATOM     32  C   UNL     1       0.251   3.757   1.580  0.00  0.00    -0.078 C 
ATOM     33  C   UNL     1       0.488   4.180   3.032  0.00  0.00    -0.019 C 
ATOM     34  C   UNL     1       1.101   5.582   3.057  0.00  0.00    -0.004 C 
ATOM     35  C   UNL     1       2.404   5.576   2.251  0.00  0.00    -0.019 C 
ATOM     36  C   UNL     1       2.111   5.114   0.822  0.00  0.00    -0.078 C 
ATOM     37  N   UNL     1       1.546   3.748   0.866  0.00  0.00    +0.384 N 
ATOM     38  H   UNL     1       2.198   3.134   1.367  0.00  0.00    -0.081 HD
ENDBRANCH  31  37
ENDBRANCH   4  31
TORSDOF 9
