REMARK  Name = ZINC36610463
REMARK  14 active torsions:
REMARK  status: ('A' for Active; 'I' for Inactive)
REMARK    1  A    between atoms: C_1  and  C_2
REMARK    2  A    between atoms: C_2  and  C_3
REMARK    3  A    between atoms: C_2  and  C_4
REMARK    4  A    between atoms: C_2  and  N_5
REMARK    5  A    between atoms: C_6  and  C_8
REMARK    6  A    between atoms: C_8  and  C_10
REMARK    7  A    between atoms: C_8  and  N_19
REMARK    8  A    between atoms: C_13  and  N_16
REMARK    9  A    between atoms: N_16  and  C_17
REMARK   10  A    between atoms: N_16  and  C_18
REMARK   11  A    between atoms: N_19  and  C_20
REMARK   12  A    between atoms: C_26  and  C_28
REMARK   13  A    between atoms: C_32  and  O_35
REMARK   14  A    between atoms: C_33  and  O_34
REMARK                            x       y       z     vdW  Elec       q    Type
REMARK                         _______ _______ _______ _____ _____    ______ ____
ROOT
ATOM      1  N   UNL     1       3.083   0.280  -3.857  0.00  0.00    -0.251 N 
ATOM      2  C   UNL     1       2.169   1.257  -3.694  0.00  0.00    +0.255 C 
ATOM      3  O   UNL     1       1.399   1.525  -4.596  0.00  0.00    -0.269 OA
ENDROOT
BRANCH   1   4
ATOM      4  C   UNL     1       3.268  -0.301  -5.116  0.00  0.00    +0.038 A 
ATOM      5  C   UNL     1       2.446  -1.342  -5.529  0.00  0.00    +0.023 A 
ATOM      6  C   UNL     1       2.631  -1.914  -6.772  0.00  0.00    +0.002 A 
ATOM      7  C   UNL     1       3.634  -1.452  -7.606  0.00  0.00    +0.000 A 
ATOM      8  C   UNL     1       4.454  -0.416  -7.197  0.00  0.00    +0.002 A 
ATOM      9  C   UNL     1       4.270   0.164  -5.957  0.00  0.00    +0.023 A 
ENDBRANCH   1   4
BRANCH   2  10
ATOM     10  C   UNL     1       2.104   2.001  -2.422  0.00  0.00    +0.082 A 
ATOM     11  C   UNL     1       2.598   1.427  -1.247  0.00  0.00    +0.017 A 
ATOM     12  C   UNL     1       2.535   2.125  -0.060  0.00  0.00    +0.005 A 
ATOM     13  C   UNL     1       1.983   3.395  -0.024  0.00  0.00    +0.049 A 
ATOM     14  C   UNL     1       1.490   3.977  -1.179  0.00  0.00    +0.159 A 
ATOM     15  C   UNL     1       1.552   3.287  -2.386  0.00  0.00    +0.171 A 
BRANCH  15  16
ATOM     16  O   UNL     1       1.074   3.856  -3.522  0.00  0.00    -0.503 OA
ATOM     17  H   UNL     1       0.139   3.674  -3.690  0.00  0.00    +0.292 HD
ENDBRANCH  15  16
BRANCH  14  18
ATOM     18  O   UNL     1       0.950   5.224  -1.135  0.00  0.00    -0.503 OA
ATOM     19  H   UNL     1       1.588   5.934  -1.286  0.00  0.00    +0.292 HD
ENDBRANCH  14  18
ENDBRANCH   2  10
BRANCH   1  20
ATOM     20  C   UNL     1       3.884  -0.172  -2.717  0.00  0.00    +0.197 C 
BRANCH  20  21
ATOM     21  C   UNL     1       4.928  -1.150  -3.192  0.00  0.00    -0.018 A 
ATOM     22  C   UNL     1       6.248  -0.753  -3.294  0.00  0.00    +0.008 A 
ATOM     23  C   UNL     1       7.208  -1.646  -3.729  0.00  0.00    +0.023 A 
ATOM     24  C   UNL     1       6.845  -2.944  -4.064  0.00  0.00    +0.029 A 
ATOM     25  C   UNL     1       5.517  -3.339  -3.961  0.00  0.00    +0.023 A 
ATOM     26  C   UNL     1       4.564  -2.443  -3.519  0.00  0.00    +0.008 A 
BRANCH  24  27
ATOM     27  N   UNL     1       7.812  -3.850  -4.505  0.00  0.00    -0.336 N 
ATOM     28  C   UNL     1       9.227  -3.470  -4.500  0.00  0.00    +0.129 C 
ATOM     29  C   UNL     1       7.412  -5.179  -4.972  0.00  0.00    +0.129 C 
ENDBRANCH  24  27
ENDBRANCH  20  21
BRANCH  20  31
ATOM     30  N   UNL     1       5.353   0.835  -1.001  0.00  0.00    -0.309 N 
ATOM     31  C   UNL     1       4.559   1.012  -2.076  0.00  0.00    +0.239 C 
ATOM     32  O   UNL     1       4.389   2.125  -2.527  0.00  0.00    -0.273 OA
ATOM     33  H   UNL     1       5.489  -0.055  -0.640  0.00  0.00    +0.149 HD
BRANCH  30  35
ATOM     34  C   UNL     1       4.949   2.979   0.105  0.00  0.00    +0.031 C 
ATOM     35  C   UNL     1       6.009   1.987  -0.377  0.00  0.00    +0.026 C 
ATOM     36  C   UNL     1       6.920   2.670  -1.400  0.00  0.00    +0.031 C 
ATOM     37  C   UNL     1       6.845   1.514   0.814  0.00  0.00    +0.031 C 
ENDBRANCH  30  35
ENDBRANCH  20  31
ENDBRANCH   1  20
TORSDOF 9
