REMARK  Name = ZINC39696027
REMARK  10 active torsions:
REMARK  status: ('A' for Active; 'I' for Inactive)
REMARK    1  A    between atoms: C_1  and  C_2
REMARK    2  A    between atoms: C_2  and  C_3
REMARK    3  A    between atoms: C_6  and  C_9
REMARK    4  A    between atoms: C_9  and  C_11
REMARK    5  A    between atoms: C_9  and  N_12
REMARK    6  A    between atoms: C_13  and  C_15
REMARK    7  A    between atoms: C_26  and  C_28
REMARK    8  A    between atoms: C_28  and  C_30
REMARK    9  A    between atoms: C_28  and  C_31
REMARK   10  A    between atoms: C_31  and  C_32
REMARK                            x       y       z     vdW  Elec       q    Type
REMARK                         _______ _______ _______ _____ _____    ______ ____
ROOT
ATOM      1  C   UNL     1      -9.085  -1.141  -3.093  0.00  0.00    +0.100 C 
ATOM      2  C   UNL     1      -8.651   0.186  -2.431  0.00  0.00    +0.121 C 
ATOM      3  N   UNL     1      -9.758   1.127  -2.717  0.00  0.00    -0.300 N 
ATOM      4  C   UNL     1     -10.986   0.310  -2.566  0.00  0.00    +0.115 C 
ATOM      5  C   UNL     1     -10.618  -1.056  -3.180  0.00  0.00    -0.004 C 
ATOM      6  C   UNL     1     -11.256  -2.184  -2.375  0.00  0.00    -0.010 C 
ATOM      7  C   UNL     1     -12.778  -2.114  -2.523  0.00  0.00    -0.082 C 
ATOM      8  N   UNL     1     -13.140  -2.232  -3.941  0.00  0.00    +0.379 N 
ATOM      9  C   UNL     1     -12.600  -1.093  -4.692  0.00  0.00    -0.082 C 
ATOM     10  C   UNL     1     -11.070  -1.120  -4.635  0.00  0.00    -0.010 C 
ATOM     11  C   UNL     1      -9.670   2.433  -3.042  0.00  0.00    +0.218 C 
ATOM     12  O   UNL     1      -8.583   2.945  -3.205  0.00  0.00    -0.275 OA
ATOM     13  H   UNL     1     -12.759  -3.090  -4.313  0.00  0.00    -0.086 HD
ATOM     14  H   UNL     1     -14.145  -2.247  -4.031  0.00  0.00    -0.086 HD
ENDROOT
BRANCH   1  16
ATOM     15  N   UNL     1      -8.452  -3.515  -2.809  0.00  0.00    -0.308 N 
ATOM     16  C   UNL     1      -8.671  -2.313  -2.241  0.00  0.00    +0.219 C 
ATOM     17  O   UNL     1      -8.537  -2.174  -1.044  0.00  0.00    -0.275 OA
ATOM     18  H   UNL     1      -8.560  -3.626  -3.767  0.00  0.00    +0.149 HD
BRANCH  15  19
ATOM     19  C   UNL     1      -8.050  -4.654  -1.981  0.00  0.00    +0.100 C 
ATOM     20  C   UNL     1      -9.295  -5.323  -1.395  0.00  0.00    +0.033 C 
BRANCH  19  24
ATOM     21  C   UNL     1      -5.915  -7.475  -4.376  0.00  0.00    -0.048 A 
ATOM     22  C   UNL     1      -5.495  -7.204  -3.087  0.00  0.00    +0.004 A 
ATOM     23  C   UNL     1      -6.185  -6.291  -2.312  0.00  0.00    +0.006 A 
ATOM     24  C   UNL     1      -7.296  -5.649  -2.826  0.00  0.00    -0.027 A 
ATOM     25  C   UNL     1      -7.716  -5.919  -4.115  0.00  0.00    +0.006 A 
ATOM     26  C   UNL     1      -7.023  -6.829  -4.891  0.00  0.00    +0.004 A 
BRANCH  21  28
ATOM     27  C   UNL     1      -4.061  -7.749  -5.999  0.00  0.00    +0.009 C 
ATOM     28  C   UNL     1      -5.162  -8.471  -5.220  0.00  0.00    +0.032 C 
ENDBRANCH  21  28
ENDBRANCH  19  24
ENDBRANCH  15  19
ENDBRANCH   1  16
BRANCH  11  29
ATOM     29  C   UNL     1     -10.922   3.255  -3.203  0.00  0.00    +0.072 C 
ATOM     30  C   UNL     1     -11.324   3.843  -1.849  0.00  0.00    +0.017 C 
BRANCH  29  31
ATOM     31  C   UNL     1     -10.662   4.391  -4.195  0.00  0.00    +0.009 C 
ATOM     32  C   UNL     1     -11.965   5.151  -4.453  0.00  0.00    +0.004 C 
ENDBRANCH  29  31
ENDBRANCH  11  29
TORSDOF 6
