REMARK  Name = ZINC13033277
REMARK  4 active torsions:
REMARK  status: ('A' for Active; 'I' for Inactive)
REMARK    1  A    between atoms: C_3  and  O_10
REMARK    2  A    between atoms: C_4  and  C_8
REMARK    3  A    between atoms: O_10  and  C_11
REMARK    4  A    between atoms: C_11  and  C_12
REMARK                            x       y       z     vdW  Elec       q    Type
REMARK                         _______ _______ _______ _____ _____    ______ ____
ROOT
ATOM      1  O   UNL     1       2.364   1.124  -0.015  0.00  0.00    -0.482 OA
ENDROOT
BRANCH   1   4
ATOM      2  C   UNL     1      -1.218   1.749   0.017  0.00  0.00    +0.023 A 
ATOM      3  C   UNL     1      -0.013   1.076   0.008  0.00  0.00    +0.048 A 
ATOM      4  C   UNL     1       1.179   1.784   0.000  0.00  0.00    +0.135 A 
ATOM      5  C   UNL     1       1.155   3.186   0.008  0.00  0.00    +0.106 A 
ATOM      6  C   UNL     1      -0.072   3.855   0.022  0.00  0.00    +0.038 A 
ATOM      7  C   UNL     1      -1.248   3.135   0.030  0.00  0.00    +0.042 A 
ATOM      8 CL   UNL     1      -2.771   3.967   0.048  0.00  0.00    -0.084 Cl
BRANCH   5   9
ATOM      9  C   UNL     1       2.416   3.950   0.000  0.00  0.00    +0.390 C 
ATOM     10  O   UNL     1       3.480   3.365  -0.012  0.00  0.00    -0.240 OA
ATOM     11  O   UNL     1       2.387   5.297   0.007  0.00  0.00    -0.240 OA
ENDBRANCH   5   9
ENDBRANCH   1   4
BRANCH   1  12
ATOM     12  C   UNL     1       2.311  -0.304  -0.022  0.00  0.00    +0.325 C 
BRANCH  12  13
ATOM     13  C   UNL     1       3.712  -0.859  -0.038  0.00  0.00    +0.258 C 
ATOM     14  O   UNL     1       4.662  -0.106  -0.043  0.00  0.00    -0.272 OA
ATOM     15  N   UNL     1       3.909  -2.192  -0.047  0.00  0.00    -0.238 N 
ATOM     16  C   UNL     1       5.162  -2.688  -0.062  0.00  0.00    +0.303 C 
ATOM     17  O   UNL     1       6.114  -1.933  -0.067  0.00  0.00    -0.253 OA
ATOM     18  N   UNL     1       5.359  -4.022  -0.071  0.00  0.00    -0.313 N 
ATOM     19  H   UNL     1       3.149  -2.795  -0.043  0.00  0.00    +0.159 HD
ATOM     20  H   UNL     1       4.598  -4.624  -0.067  0.00  0.00    +0.146 HD
ATOM     21  H   UNL     1       6.260  -4.379  -0.081  0.00  0.00    +0.146 HD
ENDBRANCH  12  13
ENDBRANCH   1  12
TORSDOF 4
