REMARK  Name = ZINC10333742
REMARK  9 active torsions:
REMARK  status: ('A' for Active; 'I' for Inactive)
REMARK    1  A    between atoms: C_1  and  C_2
REMARK    2  A    between atoms: C_3  and  N_9
REMARK    3  A    between atoms: C_10  and  C_12
REMARK    4  A    between atoms: N_14  and  C_15
REMARK    5  A    between atoms: C_15  and  C_16
REMARK    6  A    between atoms: C_16  and  C_18
REMARK    7  A    between atoms: C_16  and  N_53
REMARK    8  A    between atoms: C_28  and  N_53
REMARK    9  A    between atoms: C_29  and  N_53
REMARK                            x       y       z     vdW  Elec       q    Type
REMARK                         _______ _______ _______ _____ _____    ______ ____
ROOT
ATOM      1  C   UNL     1      -0.412   5.311  -0.684  0.00  0.00    +0.299 C 
ATOM      2  O   UNL     1       0.707   5.779  -0.727  0.00  0.00    -0.265 OA
ATOM      3  N   UNL     1      -1.480   6.127  -0.584  0.00  0.00    -0.309 N 
ATOM      4  H   UNL     1      -2.375   5.752  -0.551  0.00  0.00    +0.149 HD
ENDROOT
BRANCH   1   6
ATOM      5  N   UNL     1       0.463   3.015  -0.843  0.00  0.00    -0.277 N 
ATOM      6  C   UNL     1      -0.605   3.831  -0.743  0.00  0.00    +0.303 C 
ATOM      7  O   UNL     1      -1.724   3.363  -0.701  0.00  0.00    -0.265 OA
ATOM      8  H   UNL     1       1.360   3.384  -0.805  0.00  0.00    +0.155 HD
BRANCH   5  11
ATOM      9  C   UNL     1       2.557   1.277  -0.012  0.00  0.00    +0.047 C 
ATOM     10  C   UNL     1       1.276   0.754  -0.609  0.00  0.00    -0.011 A 
ATOM     11  C   UNL     1       0.279   1.639  -1.001  0.00  0.00    +0.038 A 
ATOM     12  C   UNL     1      -0.901   1.153  -1.550  0.00  0.00    +0.023 A 
ATOM     13  C   UNL     1      -1.080  -0.207  -1.705  0.00  0.00    +0.003 A 
ATOM     14  C   UNL     1      -0.086  -1.086  -1.315  0.00  0.00    +0.020 A 
ATOM     15  C   UNL     1       1.091  -0.606  -0.767  0.00  0.00    +0.046 A 
ATOM     16 CL   UNL     1       2.336  -1.713  -0.279  0.00  0.00    -0.083 Cl
ENDBRANCH   5  11
ENDBRANCH   1   6
BRANCH   3  17
ATOM     17  C   UNL     1      -1.291   7.578  -0.527  0.00  0.00    +0.094 C 
BRANCH  17  18
ATOM     18  C   UNL     1      -2.643   8.261  -0.310  0.00  0.00    -0.020 C 
BRANCH  18  19
ATOM     19  C   UNL     1      -2.442   9.751  -0.207  0.00  0.00    -0.052 A 
ATOM     20  C   UNL     1      -2.691  10.550  -1.281  0.00  0.00    +0.003 A 
ATOM     21  C   UNL     1      -2.512  11.930  -1.205  0.00  0.00    +0.001 A 
ATOM     22  C   UNL     1      -2.083  12.518  -0.054  0.00  0.00    +0.008 A 
ATOM     23  C   UNL     1      -1.817  11.726   1.075  0.00  0.00    -0.018 A 
ATOM     24  C   UNL     1      -2.004  10.323   0.999  0.00  0.00    -0.016 A 
ATOM     25  C   UNL     1      -1.743   9.531   2.130  0.00  0.00    +0.009 A 
ATOM     26  C   UNL     1      -1.320  10.120   3.282  0.00  0.00    +0.001 A 
ATOM     27  C   UNL     1      -1.140  11.500   3.357  0.00  0.00    +0.001 A 
ATOM     28  C   UNL     1      -1.373  12.298   2.280  0.00  0.00    +0.008 A 
ENDBRANCH  18  19
BRANCH  18  31
ATOM     29  C   UNL     1      -2.756   7.724  -2.668  0.00  0.00    -0.096 C 
ATOM     30  C   UNL     1      -4.403   6.821  -1.141  0.00  0.00    -0.096 C 
ATOM     31  N   UNL     1      -3.546   7.986  -1.447  0.00  0.00    +0.382 N 
ATOM     32  H   UNL     1      -4.143   8.806  -1.605  0.00  0.00    -0.082 HD
ENDBRANCH  18  31
ENDBRANCH  17  18
ENDBRANCH   3  17
TORSDOF 6
