REMARK  Name = ZINC15047560
REMARK  10 active torsions:
REMARK  status: ('A' for Active; 'I' for Inactive)
REMARK    1  A    between atoms: C_1  and  C_2
REMARK    2  A    between atoms: C_2  and  C_4
REMARK    3  A    between atoms: C_2  and  N_17
REMARK    4  A    between atoms: N_6  and  C_7
REMARK    5  A    between atoms: C_10  and  S_13
REMARK    6  A    between atoms: S_13  and  N_16
REMARK    7  A    between atoms: C_21  and  C_22
REMARK    8  A    between atoms: C_25  and  O_30
REMARK    9  A    between atoms: C_26  and  O_28
REMARK   10  A    between atoms: O_28  and  C_29
REMARK                            x       y       z     vdW  Elec       q    Type
REMARK                         _______ _______ _______ _____ _____    ______ ____
ROOT
ATOM      1  C   UNL     1       5.466   1.086   2.262  0.00  0.00    +0.038 C 
ATOM      2  C   UNL     1       5.012   0.874   0.816  0.00  0.00    +0.166 C 
ENDROOT
BRANCH   2   3
ATOM      3  N   UNL     1       3.779   1.627   0.575  0.00  0.00    -0.244 N 
ATOM      4  C   UNL     1       2.686   0.978   0.210  0.00  0.00    +0.259 C 
ATOM      5  O   UNL     1       2.678  -0.231   0.068  0.00  0.00    -0.269 OA
ATOM      6  C   UNL     1       1.477   1.794  -0.018  0.00  0.00    +0.077 C 
ATOM      7  C   UNL     1       0.231   1.408  -0.394  0.00  0.00    +0.028 C 
ATOM      8  S   UNL     1       2.106   3.430   0.332  0.00  0.00    -0.061 S 
ATOM      9  C   UNL     1       3.784   2.966   0.731  0.00  0.00    +0.121 C 
ATOM     10  S   UNL     1       5.085   3.978   1.194  0.00  0.00    -0.027 S 
BRANCH   7  11
ATOM     11  C   UNL     1      -0.862   2.388  -0.427  0.00  0.00    -0.020 A 
ATOM     12  C   UNL     1      -2.095   2.046  -0.997  0.00  0.00    +0.012 A 
ATOM     13  C   UNL     1      -3.118   2.967  -1.027  0.00  0.00    +0.050 A 
ATOM     14  C   UNL     1      -2.932   4.235  -0.492  0.00  0.00    +0.158 A 
ATOM     15  C   UNL     1      -1.708   4.583   0.077  0.00  0.00    +0.162 A 
ATOM     16  C   UNL     1      -0.677   3.665   0.116  0.00  0.00    +0.057 A 
BRANCH  15  17
ATOM     17  O   UNL     1      -1.530   5.827   0.599  0.00  0.00    -0.491 OA
ATOM     18  C   UNL     1      -0.251   6.115   1.167  0.00  0.00    +0.277 C 
ENDBRANCH  15  17
BRANCH  14  19
ATOM     19  O   UNL     1      -3.946   5.139  -0.525  0.00  0.00    -0.503 OA
ATOM     20  H   UNL     1      -4.522   5.112   0.251  0.00  0.00    +0.292 HD
ENDBRANCH  14  19
ENDBRANCH   7  11
ENDBRANCH   2   3
BRANCH   2  21
ATOM     21  C   UNL     1       6.087   1.357  -0.123  0.00  0.00    +0.238 C 
ATOM     22  O   UNL     1       5.847   2.243  -0.916  0.00  0.00    -0.273 OA
ATOM     23  N   UNL     1       7.316   0.804  -0.083  0.00  0.00    -0.284 N 
ATOM     24  H   UNL     1       7.495   0.063   0.517  0.00  0.00    +0.155 HD
BRANCH  23  25
ATOM     25  C   UNL     1       8.333   1.299  -0.906  0.00  0.00    +0.034 A 
ATOM     26  C   UNL     1       8.033   1.762  -2.181  0.00  0.00    +0.025 A 
ATOM     27  C   UNL     1       9.039   2.255  -2.989  0.00  0.00    +0.030 A 
ATOM     28  C   UNL     1      10.345   2.277  -2.535  0.00  0.00    +0.105 A 
ATOM     29  C   UNL     1      10.647   1.812  -1.268  0.00  0.00    +0.030 A 
ATOM     30  C   UNL     1       9.645   1.323  -0.453  0.00  0.00    +0.025 A 
BRANCH  28  31
ATOM     31  S   UNL     1      11.626   2.900  -3.572  0.00  0.00    +0.056 S 
ATOM     32  O   UNL     1      11.006   3.779  -4.500  0.00  0.00    -0.153 OA
ATOM     33  O   UNL     1      12.677   3.318  -2.712  0.00  0.00    -0.153 OA
BRANCH  31  34
ATOM     34  N   UNL     1      12.211   1.622  -4.448  0.00  0.00    -0.204 NA
ATOM     35  H   UNL     1      11.835   0.737  -4.324  0.00  0.00    +0.144 HD
ATOM     36  H   UNL     1      12.930   1.759  -5.084  0.00  0.00    +0.144 HD
ENDBRANCH  31  34
ENDBRANCH  28  31
ENDBRANCH  23  25
ENDBRANCH   2  21
TORSDOF 8
