REMARK  Name = ZINC39636128
REMARK  9 active torsions:
REMARK  status: ('A' for Active; 'I' for Inactive)
REMARK    1  A    between atoms: C_1  and  C_2
REMARK    2  A    between atoms: C_8  and  N_10
REMARK    3  A    between atoms: C_11  and  C_13
REMARK    4  A    between atoms: C_24  and  C_26
REMARK    5  A    between atoms: C_26  and  C_28
REMARK    6  A    between atoms: C_26  and  O_31
REMARK    7  A    between atoms: C_28  and  C_29
REMARK    8  A    between atoms: C_28  and  C_30
REMARK    9  A    between atoms: O_31  and  C_32
REMARK                            x       y       z     vdW  Elec       q    Type
REMARK                         _______ _______ _______ _____ _____    ______ ____
ROOT
ATOM      1  C   UNL     1       4.457   1.272   2.502  0.00  0.00    +0.100 C 
ATOM      2  C   UNL     1       5.156   0.196   1.640  0.00  0.00    +0.121 C 
ATOM      3  N   UNL     1       6.272  -0.291   2.484  0.00  0.00    -0.297 N 
ATOM      4  C   UNL     1       5.704  -0.345   3.853  0.00  0.00    +0.115 C 
ATOM      5  C   UNL     1       4.818   0.913   3.953  0.00  0.00    -0.004 C 
ATOM      6  C   UNL     1       5.594   2.054   4.602  0.00  0.00    -0.010 C 
ATOM      7  C   UNL     1       5.893   1.697   6.061  0.00  0.00    -0.082 C 
ATOM      8  N   UNL     1       4.633   1.466   6.777  0.00  0.00    +0.379 N 
ATOM      9  C   UNL     1       3.937   0.307   6.205  0.00  0.00    -0.082 C 
ATOM     10  C   UNL     1       3.555   0.605   4.752  0.00  0.00    -0.010 C 
ATOM     11  C   UNL     1       7.522  -0.613   2.096  0.00  0.00    +0.257 C 
ATOM     12  O   UNL     1       8.300  -1.093   2.893  0.00  0.00    -0.272 OA
ATOM     13  H   UNL     1       4.829   1.290   7.752  0.00  0.00    -0.086 HD
ATOM     14  H   UNL     1       4.046   2.283   6.697  0.00  0.00    -0.086 HD
ENDROOT
BRANCH   1  16
ATOM     15  N   UNL     1       2.206   2.295   2.572  0.00  0.00    -0.312 N 
ATOM     16  C   UNL     1       2.964   1.214   2.303  0.00  0.00    +0.218 C 
ATOM     17  O   UNL     1       2.445   0.194   1.901  0.00  0.00    -0.275 OA
ATOM     18  H   UNL     1       2.621   3.110   2.894  0.00  0.00    +0.149 HD
BRANCH  15  25
ATOM     19  C   UNL     1       0.412   2.954   4.748  0.00  0.00    +0.009 C 
ATOM     20  C   UNL     1       0.079   3.267   3.288  0.00  0.00    +0.006 C 
ATOM     21  C   UNL     1      -1.437   3.208   3.086  0.00  0.00    +0.005 C 
ATOM     22  C   UNL     1      -1.770   3.521   1.626  0.00  0.00    +0.000 C 
ATOM     23  C   UNL     1      -1.094   2.492   0.717  0.00  0.00    +0.002 C 
ATOM     24  C   UNL     1       0.422   2.551   0.919  0.00  0.00    +0.022 C 
ATOM     25  C   UNL     1       0.755   2.238   2.379  0.00  0.00    +0.076 C 
ENDBRANCH  15  25
ENDBRANCH   1  16
BRANCH  11  26
ATOM     26  C   UNL     1       7.953  -0.376   0.671  0.00  0.00    +0.261 C 
BRANCH  26  27
ATOM     27  C   UNL     1       8.506   1.044   0.535  0.00  0.00    +0.033 C 
ATOM     28  C   UNL     1       9.068   1.240  -0.874  0.00  0.00    +0.011 C 
ATOM     29  C   UNL     1       7.383   2.054   0.781  0.00  0.00    +0.011 C 
ENDBRANCH  26  27
BRANCH  26  30
ATOM     30  O   UNL     1       8.968  -1.318   0.318  0.00  0.00    -0.479 OA
BRANCH  30  31
ATOM     31  C   UNL     1       8.965  -1.776  -0.962  0.00  0.00    +0.122 A 
ATOM     32  C   UNL     1       9.930  -2.682  -1.377  0.00  0.00    +0.045 A 
ATOM     33  C   UNL     1       9.925  -3.147  -2.678  0.00  0.00    +0.004 A 
ATOM     34  C   UNL     1       8.960  -2.709  -3.566  0.00  0.00    +0.000 A 
ATOM     35  C   UNL     1       7.997  -1.806  -3.155  0.00  0.00    +0.004 A 
ATOM     36  C   UNL     1       7.994  -1.343  -1.853  0.00  0.00    +0.045 A 
ENDBRANCH  30  31
ENDBRANCH  26  30
ENDBRANCH  11  26
TORSDOF 6
