REMARK  Name = ZINC18254848
REMARK  7 active torsions:
REMARK  status: ('A' for Active; 'I' for Inactive)
REMARK    1  A    between atoms: C_1  and  C_2
REMARK    2  A    between atoms: C_4  and  C_18
REMARK    3  A    between atoms: C_5  and  C_17
REMARK    4  A    between atoms: N_6  and  C_7
REMARK    5  A    between atoms: C_10  and  S_13
REMARK    6  A    between atoms: S_13  and  N_16
REMARK    7  A    between atoms: N_24  and  C_25
REMARK                            x       y       z     vdW  Elec       q    Type
REMARK                         _______ _______ _______ _____ _____    ______ ____
ROOT
ATOM      1  C   UNL     1      -0.018   1.503   0.010  0.00  0.00    +0.064 C 
ATOM      2  C   UNL     1       0.002  -0.004   0.002  0.00  0.00    +0.022 A 
ATOM      3  C   UNL     1       0.008  -0.777  -1.098  0.00  0.00    +0.031 A 
ATOM      4  C   UNL     1       0.029  -2.169  -0.632  0.00  0.00    -0.003 A 
ATOM      5  C   UNL     1       0.034  -2.110   0.747  0.00  0.00    +0.028 A 
ATOM      6  N   UNL     1       0.023  -0.802   1.111  0.00  0.00    -0.317 N 
ATOM      7  C   UNL     1       0.053  -3.290   1.685  0.00  0.00    +0.064 C 
ENDROOT
BRANCH   4   8
ATOM      8  C   UNL     1       0.042  -3.377  -1.464  0.00  0.00    +0.030 C 
ATOM      9  C   UNL     1       0.035  -3.271  -2.818  0.00  0.00    +0.078 C 
ATOM     10  C   UNL     1       0.040  -4.331  -3.839  0.00  0.00    +0.256 C 
ATOM     11  O   UNL     1       0.050  -5.509  -3.531  0.00  0.00    -0.269 OA
ATOM     12  N   UNL     1       0.031  -3.948  -5.104  0.00  0.00    -0.260 N 
ATOM     13  C   UNL     1       0.019  -2.610  -5.433  0.00  0.00    +0.166 C 
ATOM     14  N   UNL     1       0.010  -2.061  -6.627  0.00  0.00    -0.226 NA
ATOM     15  S   UNL     1       0.011  -1.804  -3.839  0.00  0.00    -0.049 S 
ATOM     16  H   UNL     1       0.034  -4.616  -5.808  0.00  0.00    +0.157 HD
BRANCH  14  17
ATOM     17  C   UNL     1      -0.001  -0.699  -6.754  0.00  0.00    +0.067 A 
ATOM     18  C   UNL     1      -0.854   0.073  -5.961  0.00  0.00    +0.028 A 
ATOM     19  C   UNL     1      -0.859   1.446  -6.094  0.00  0.00    +0.002 A 
ATOM     20  C   UNL     1      -0.024   2.059  -7.010  0.00  0.00    +0.000 A 
ATOM     21  C   UNL     1       0.823   1.301  -7.800  0.00  0.00    +0.002 A 
ATOM     22  C   UNL     1       0.844  -0.072  -7.673  0.00  0.00    +0.028 A 
ENDBRANCH  14  17
ENDBRANCH   4   8
BRANCH   6  23
ATOM     23  C   UNL     1       0.030  -0.337   2.433  0.00  0.00    +0.047 A 
ATOM     24  C   UNL     1       1.133  -0.566   3.245  0.00  0.00    +0.028 A 
ATOM     25  C   UNL     1       1.137  -0.106   4.548  0.00  0.00    +0.030 A 
ATOM     26  C   UNL     1       0.043   0.580   5.044  0.00  0.00    +0.105 A 
ATOM     27  C   UNL     1      -1.057   0.809   4.237  0.00  0.00    +0.030 A 
ATOM     28  C   UNL     1      -1.064   0.358   2.932  0.00  0.00    +0.028 A 
BRANCH  26  29
ATOM     29  S   UNL     1       0.051   1.163   6.706  0.00  0.00    +0.056 S 
ATOM     30  O   UNL     1      -1.309   1.298   7.096  0.00  0.00    -0.153 OA
ATOM     31  O   UNL     1       0.970   0.346   7.419  0.00  0.00    -0.153 OA
BRANCH  29  32
ATOM     32  N   UNL     1       0.692   2.690   6.687  0.00  0.00    -0.204 NA
ATOM     33  H   UNL     1       0.976   3.086   5.848  0.00  0.00    +0.144 HD
ATOM     34  H   UNL     1       0.783   3.189   7.514  0.00  0.00    +0.144 HD
ENDBRANCH  29  32
ENDBRANCH  26  29
ENDBRANCH   6  23
TORSDOF 5
