REMARK  Name = ZINC03771792
REMARK  14 active torsions:
REMARK  status: ('A' for Active; 'I' for Inactive)
REMARK    1  A    between atoms: C_1  and  C_2
REMARK    2  A    between atoms: C_4  and  C_42
REMARK    3  A    between atoms: C_6  and  S_8
REMARK    4  A    between atoms: S_8  and  C_9
REMARK    5  A    between atoms: C_9  and  C_10
REMARK    6  A    between atoms: N_12  and  C_13
REMARK    7  A    between atoms: N_12  and  C_21
REMARK    8  A    between atoms: C_13  and  C_14
REMARK    9  A    between atoms: C_21  and  C_23
REMARK   10  A    between atoms: C_21  and  C_30
REMARK   11  A    between atoms: N_32  and  C_33
REMARK   12  A    between atoms: C_36  and  N_39
REMARK   13  A    between atoms: N_39  and  C_40
REMARK   14  A    between atoms: N_39  and  C_41
REMARK                            x       y       z     vdW  Elec       q    Type
REMARK                         _______ _______ _______ _____ _____    ______ ____
ROOT
ATOM      1  C   UNL     1       1.953  -3.559  -2.331  0.00  0.00    +0.227 C 
ATOM      2  O   UNL     1       1.523  -4.662  -2.594  0.00  0.00    -0.275 OA
ATOM      3  N   UNL     1       1.135  -2.488  -2.372  0.00  0.00    -0.281 N 
ENDROOT
BRANCH   1   4
ATOM      4  C   UNL     1       3.404  -3.385  -1.960  0.00  0.00    +0.173 C 
BRANCH   4   5
ATOM      5  S   UNL     1       4.247  -4.984  -2.057  0.00  0.00    -0.077 S 
BRANCH   5  11
ATOM      6  C   UNL     1       7.587  -1.386  -0.610  0.00  0.00    +0.066 C 
ATOM      7  C   UNL     1       7.324  -2.833  -0.939  0.00  0.00    +0.043 A 
ATOM      8  C   UNL     1       8.348  -3.765  -0.872  0.00  0.00    +0.046 A 
ATOM      9  C   UNL     1       8.064  -5.086  -1.183  0.00  0.00    +0.043 A 
ATOM     10  N   UNL     1       6.831  -5.416  -1.532  0.00  0.00    -0.227 NA
ATOM     11  C   UNL     1       5.875  -4.500  -1.587  0.00  0.00    +0.189 A 
ATOM     12  N   UNL     1       6.115  -3.228  -1.301  0.00  0.00    -0.227 NA
ATOM     13  C   UNL     1       9.145  -6.133  -1.122  0.00  0.00    +0.066 C 
ENDBRANCH   5  11
ENDBRANCH   4   5
ENDBRANCH   1   4
BRANCH   3  14
ATOM     14  C   UNL     1       1.691  -1.137  -2.263  0.00  0.00    +0.144 C 
BRANCH  14  15
ATOM     15  C   UNL     1       2.158  -0.675  -3.619  0.00  0.00    -0.030 A 
ATOM     16  C   UNL     1       1.390  -0.935  -4.739  0.00  0.00    +0.008 A 
ATOM     17  C   UNL     1       1.817  -0.512  -5.984  0.00  0.00    +0.038 A 
ATOM     18  C   UNL     1       3.015   0.171  -6.109  0.00  0.00    +0.123 A 
ATOM     19  C   UNL     1       3.783   0.430  -4.986  0.00  0.00    +0.038 A 
ATOM     20  C   UNL     1       3.354   0.007  -3.743  0.00  0.00    +0.008 A 
ATOM     21  F   UNL     1       3.433   0.585  -7.325  0.00  0.00    -0.205 F 
ENDBRANCH  14  15
ENDBRANCH   3  14
BRANCH   3  22
ATOM     22  C   UNL     1      -0.309  -2.676  -2.524  0.00  0.00    +0.193 C 
BRANCH  22  23
ATOM     23  C   UNL     1      -0.834  -3.496  -1.373  0.00  0.00    -0.018 A 
ATOM     24  C   UNL     1      -0.454  -3.193  -0.079  0.00  0.00    +0.007 A 
ATOM     25  C   UNL     1      -0.939  -3.941   0.977  0.00  0.00    +0.020 A 
ATOM     26  C   UNL     1      -1.796  -5.001   0.738  0.00  0.00    +0.041 A 
ATOM     27  C   UNL     1      -2.171  -5.307  -0.558  0.00  0.00    +0.020 A 
ATOM     28  C   UNL     1      -1.690  -4.555  -1.613  0.00  0.00    +0.007 A 
ATOM     29 CL   UNL     1      -2.399  -5.946   2.063  0.00  0.00    -0.084 Cl
ENDBRANCH  22  23
BRANCH  22  30
ATOM     30  C   UNL     1      -0.992  -1.333  -2.535  0.00  0.00    +0.242 C 
ATOM     31  O   UNL     1      -0.356  -0.331  -2.789  0.00  0.00    -0.273 OA
ATOM     32  N   UNL     1      -2.309  -1.244  -2.264  0.00  0.00    -0.284 N 
ATOM     33  H   UNL     1      -2.825  -2.048  -2.094  0.00  0.00    +0.155 HD
BRANCH  32  34
ATOM     34  C   UNL     1      -2.934   0.010  -2.226  0.00  0.00    +0.034 A 
ATOM     35  C   UNL     1      -2.480   0.986  -1.349  0.00  0.00    +0.025 A 
ATOM     36  C   UNL     1      -3.092   2.223  -1.315  0.00  0.00    +0.025 A 
ATOM     37  C   UNL     1      -4.168   2.489  -2.152  0.00  0.00    +0.029 A 
ATOM     38  C   UNL     1      -4.625   1.511  -3.026  0.00  0.00    +0.025 A 
ATOM     39  C   UNL     1      -4.010   0.275  -3.063  0.00  0.00    +0.025 A 
BRANCH  37  40
ATOM     40  N   UNL     1      -4.791   3.740  -2.115  0.00  0.00    -0.336 N 
ATOM     41  C   UNL     1      -5.926   4.020  -2.999  0.00  0.00    +0.129 C 
ATOM     42  C   UNL     1      -4.308   4.772  -1.194  0.00  0.00    +0.129 C 
ENDBRANCH  37  40
ENDBRANCH  32  34
ENDBRANCH  22  30
ENDBRANCH   3  22
TORSDOF 10
