REMARK  Name = ZINC12472693
REMARK  9 active torsions:
REMARK  status: ('A' for Active; 'I' for Inactive)
REMARK    1  A    between atoms: C_4  and  N_7
REMARK    2  A    between atoms: N_7  and  C_8
REMARK    3  A    between atoms: C_8  and  C_10
REMARK    4  A    between atoms: C_8  and  C_15
REMARK    5  A    between atoms: N_17  and  C_18
REMARK    6  A    between atoms: C_18  and  C_19
REMARK    7  A    between atoms: C_26  and  C_28
REMARK    8  A    between atoms: C_29  and  N_36
REMARK    9  A    between atoms: C_30  and  C_33
REMARK                            x       y       z     vdW  Elec       q    Type
REMARK                         _______ _______ _______ _____ _____    ______ ____
ROOT
ATOM      1  N   UNL     1       4.721   2.330  -0.479  0.00  0.00    -0.248 N 
ATOM      2  C   UNL     1       4.931   2.985   0.680  0.00  0.00    +0.262 C 
ATOM      3  O   UNL     1       5.386   4.114   0.667  0.00  0.00    -0.269 OA
ENDROOT
BRANCH   1   7
ATOM      4  C   UNL     1       5.588   4.186  -4.106  0.00  0.00    +0.000 A 
ATOM      5  C   UNL     1       5.169   2.868  -4.088  0.00  0.00    +0.002 A 
ATOM      6  C   UNL     1       4.881   2.250  -2.888  0.00  0.00    +0.023 A 
ATOM      7  C   UNL     1       5.013   2.953  -1.697  0.00  0.00    +0.038 A 
ATOM      8  C   UNL     1       5.433   4.277  -1.718  0.00  0.00    +0.023 A 
ATOM      9  C   UNL     1       5.720   4.889  -2.923  0.00  0.00    +0.002 A 
ENDBRANCH   1   7
BRANCH   2  10
ATOM     10  C   UNL     1       4.613   2.338   1.954  0.00  0.00    +0.116 A 
ATOM     11  C   UNL     1       5.060   2.648   3.239  0.00  0.00    +0.076 A 
ATOM     12  C   UNL     1       4.543   1.810   4.224  0.00  0.00    +0.155 A 
ATOM     13  N   UNL     1       3.717   0.842   3.884  0.00  0.00    -0.203 NA
ATOM     14  S   UNL     1       3.546   0.949   2.279  0.00  0.00    +0.019 S 
BRANCH  12  15
ATOM     15  C   UNL     1       4.917   2.004   5.637  0.00  0.00    +0.262 C 
ATOM     16  O   UNL     1       5.626   2.939   5.955  0.00  0.00    -0.269 OA
ATOM     17  N   UNL     1       4.473   1.145   6.576  0.00  0.00    -0.324 N 
ATOM     18  H   UNL     1       3.906   0.399   6.322  0.00  0.00    +0.145 HD
ATOM     19  H   UNL     1       4.719   1.273   7.505  0.00  0.00    +0.145 HD
ENDBRANCH  12  15
BRANCH  11  20
ATOM     20  N   UNL     1       5.935   3.692   3.510  0.00  0.00    -0.355 N 
ATOM     21  H   UNL     1       6.223   4.282   2.796  0.00  0.00    +0.142 HD
ATOM     22  H   UNL     1       6.259   3.831   4.414  0.00  0.00    +0.142 HD
ENDBRANCH  11  20
ENDBRANCH   2  10
BRANCH   1  23
ATOM     23  C   UNL     1       4.188   0.966  -0.464  0.00  0.00    +0.233 C 
BRANCH  23  24
ATOM     24  C   UNL     1       2.812   0.958  -1.079  0.00  0.00    +0.135 A 
ATOM     25  C   UNL     1       1.756   0.251  -0.636  0.00  0.00    +0.047 A 
ATOM     26  C   UNL     1       0.678   0.539  -1.503  0.00  0.00    +0.041 A 
ATOM     27  C   UNL     1       1.138   1.404  -2.424  0.00  0.00    +0.195 A 
ATOM     28  O   UNL     1       2.430   1.659  -2.159  0.00  0.00    -0.465 OA
ENDBRANCH  23  24
BRANCH  23  29
ATOM     29  C   UNL     1       5.097   0.062  -1.255  0.00  0.00    +0.242 C 
ATOM     30  O   UNL     1       6.093   0.513  -1.780  0.00  0.00    -0.273 OA
ATOM     31  N   UNL     1       4.804  -1.248  -1.379  0.00  0.00    -0.309 N 
ATOM     32  H   UNL     1       4.008  -1.608  -0.959  0.00  0.00    +0.149 HD
BRANCH  31  33
ATOM     33  C   UNL     1       5.688  -2.127  -2.148  0.00  0.00    +0.139 C 
BRANCH  33  34
ATOM     34  C   UNL     1       5.139  -3.530  -2.132  0.00  0.00    -0.030 A 
ATOM     35  C   UNL     1       5.513  -4.406  -1.131  0.00  0.00    +0.008 A 
ATOM     36  C   UNL     1       5.010  -5.694  -1.115  0.00  0.00    +0.038 A 
ATOM     37  C   UNL     1       4.131  -6.105  -2.103  0.00  0.00    +0.123 A 
ATOM     38  C   UNL     1       3.758  -5.227  -3.106  0.00  0.00    +0.038 A 
ATOM     39  C   UNL     1       4.258  -3.939  -3.117  0.00  0.00    +0.008 A 
ATOM     40  F   UNL     1       3.639  -7.363  -2.088  0.00  0.00    -0.205 F 
ENDBRANCH  33  34
ENDBRANCH  31  33
ENDBRANCH  23  29
ENDBRANCH   1  23
TORSDOF 9
