REMARK  Name = ZINC38680926
REMARK  12 active torsions:
REMARK  status: ('A' for Active; 'I' for Inactive)
REMARK    1  A    between atoms: C_1  and  O_2
REMARK    2  A    between atoms: O_2  and  C_3
REMARK    3  A    between atoms: C_5  and  C_13
REMARK    4  A    between atoms: C_8  and  O_9
REMARK    5  A    between atoms: O_9  and  C_10
REMARK    6  A    between atoms: C_10  and  C_11
REMARK    7  A    between atoms: C_18  and  O_27
REMARK    8  A    between atoms: C_22  and  N_26
REMARK    9  A    between atoms: C_23  and  C_24
REMARK   10  A    between atoms: O_27  and  C_28
REMARK   11  A    between atoms: C_28  and  C_30
REMARK   12  A    between atoms: C_31  and  C_32
REMARK                            x       y       z     vdW  Elec       q    Type
REMARK                         _______ _______ _______ _____ _____    ______ ____
ROOT
ATOM      1  C   UNL     1      -4.853   0.314   0.010  0.00  0.00    +0.098 C 
ATOM      2  C   UNL     1      -5.663  -0.030  -1.212  0.00  0.00    +0.008 A 
ATOM      3  C   UNL     1      -5.358   0.569  -2.421  0.00  0.00    +0.012 A 
ATOM      4  C   UNL     1      -6.090   0.267  -3.552  0.00  0.00    +0.047 A 
ATOM      5  C   UNL     1      -7.137  -0.642  -3.478  0.00  0.00    +0.135 A 
ATOM      6  C   UNL     1      -7.445  -1.244  -2.269  0.00  0.00    +0.093 A 
ATOM      7  C   UNL     1      -6.707  -0.938  -1.132  0.00  0.00    +0.138 A 
ATOM      8  O   UNL     1      -7.021  -1.535   0.044  0.00  0.00    -0.441 OA
ATOM      9  C   UNL     1      -6.606  -0.995   1.202  0.00  0.00    +0.199 C 
ATOM     10  C   UNL     1      -5.584  -0.113   1.252  0.00  0.00    +0.098 C 
ENDROOT
BRANCH   1  13
ATOM     11  C   UNL     1      -1.130  -0.315  -0.128  0.00  0.00    +0.162 A 
ATOM     12  C   UNL     1      -2.352   0.336  -0.067  0.00  0.00    +0.054 A 
ATOM     13  C   UNL     1      -3.525  -0.396  -0.056  0.00  0.00    -0.031 A 
ATOM     14  C   UNL     1      -3.482  -1.777  -0.103  0.00  0.00    +0.008 A 
ATOM     15  C   UNL     1      -2.267  -2.433  -0.164  0.00  0.00    +0.050 A 
ATOM     16  C   UNL     1      -1.087  -1.705  -0.182  0.00  0.00    +0.162 A 
BRANCH  11  18
ATOM     17  C   UNL     1      -0.096   1.826  -0.082  0.00  0.00    +0.277 C 
ATOM     18  O   UNL     1       0.025   0.403  -0.140  0.00  0.00    -0.491 OA
ENDBRANCH  11  18
BRANCH  16  19
ATOM     19  O   UNL     1       0.109  -2.348  -0.247  0.00  0.00    -0.484 OA
BRANCH  19  20
ATOM     20  C   UNL     1       0.076  -3.776  -0.300  0.00  0.00    +0.256 C 
BRANCH  20  21
ATOM     21  C   UNL     1       1.484  -4.309  -0.368  0.00  0.00    +0.006 C 
ATOM     22  C   UNL     1       1.839  -5.320   0.385  0.00  0.00    +0.007 C 
ENDBRANCH  20  21
ENDBRANCH  19  20
ENDBRANCH  16  19
ENDBRANCH   1  13
BRANCH   9  23
ATOM     23  N   UNL     1      -7.239  -1.350   2.367  0.00  0.00    -0.328 N 
ATOM     24  H   UNL     1      -7.975  -1.982   2.346  0.00  0.00    +0.145 HD
ATOM     25  H   UNL     1      -6.951  -0.969   3.211  0.00  0.00    +0.145 HD
ENDBRANCH   9  23
BRANCH  10  26
ATOM     26  C   UNL     1      -5.190   0.426   2.518  0.00  0.00    +0.101 C 
ATOM     27  N   UNL     1      -4.878   0.854   3.523  0.00  0.00    -0.191 NA
ENDBRANCH  10  26
BRANCH   5  28
ATOM     28  O   UNL     1      -7.859  -0.940  -4.590  0.00  0.00    -0.423 OA
BRANCH  28  29
ATOM     29  C   UNL     1      -7.254  -1.645  -5.568  0.00  0.00    +0.337 C 
ATOM     30  O   UNL     1      -6.133  -2.083  -5.397  0.00  0.00    -0.245 OA
BRANCH  29  31
ATOM     31  C   UNL     1      -7.946  -1.882  -6.833  0.00  0.00    +0.092 C 
ATOM     32  C   UNL     1      -7.341  -2.587  -7.812  0.00  0.00    +0.015 C 
BRANCH  32  33
ATOM     33  C   UNL     1      -8.038  -2.825  -9.086  0.00  0.00    -0.025 A 
ATOM     34  C   UNL     1      -9.325  -2.318  -9.288  0.00  0.00    +0.009 A 
ATOM     35  C   UNL     1      -9.972  -2.545 -10.484  0.00  0.00    +0.020 A 
ATOM     36  C   UNL     1      -9.350  -3.275 -11.484  0.00  0.00    +0.041 A 
ATOM     37  C   UNL     1      -8.075  -3.781 -11.290  0.00  0.00    +0.020 A 
ATOM     38  C   UNL     1      -7.413  -3.556 -10.102  0.00  0.00    +0.009 A 
ATOM     39 CL   UNL     1     -10.172  -3.557 -12.987  0.00  0.00    -0.084 Cl
ENDBRANCH  32  33
ENDBRANCH  29  31
ENDBRANCH  28  29
ENDBRANCH   5  28
TORSDOF 11
