REMARK  Name = ZINC03340646
REMARK  14 active torsions:
REMARK  status: ('A' for Active; 'I' for Inactive)
REMARK    1  A    between atoms: C_1  and  C_2
REMARK    2  A    between atoms: C_2  and  C_3
REMARK    3  A    between atoms: C_2  and  C_4
REMARK    4  A    between atoms: C_4  and  N_5
REMARK    5  A    between atoms: C_6  and  N_34
REMARK    6  A    between atoms: C_7  and  N_14
REMARK    7  A    between atoms: N_14  and  C_15
REMARK    8  A    between atoms: C_15  and  C_16
REMARK    9  A    between atoms: C_16  and  C_17
REMARK   10  A    between atoms: C_16  and  C_18
REMARK   11  A    between atoms: C_19  and  C_21
REMARK   12  A    between atoms: C_21  and  S_22
REMARK   13  A    between atoms: S_22  and  C_23
REMARK   14  A    between atoms: N_27  and  C_28
REMARK                            x       y       z     vdW  Elec       q    Type
REMARK                         _______ _______ _______ _____ _____    ______ ____
ROOT
ATOM      1  N   UNL     1      -1.897  -5.035  -2.261  0.00  0.00    -0.263 N 
ATOM      2  C   UNL     1      -1.804  -4.243  -3.349  0.00  0.00    +0.230 C 
ATOM      3  O   UNL     1      -1.907  -3.040  -3.235  0.00  0.00    -0.274 OA
ENDROOT
BRANCH   1   6
ATOM      4  N   UNL     1      -1.159  -3.092   0.770  0.00  0.00    -0.280 N 
ATOM      5  C   UNL     1      -1.018  -3.639  -0.484  0.00  0.00    +0.127 A 
ATOM      6  C   UNL     1      -2.012  -4.459  -0.978  0.00  0.00    +0.140 A 
ATOM      7  C   UNL     1      -3.143  -4.711  -0.179  0.00  0.00    +0.277 A 
ATOM      8  O   UNL     1      -4.037  -5.432  -0.590  0.00  0.00    -0.266 OA
ATOM      9  N   UNL     1      -3.232  -4.150   1.043  0.00  0.00    -0.273 N 
ATOM     10  H   UNL     1      -4.011  -4.323   1.594  0.00  0.00    +0.173 HD
ATOM     11  C   UNL     1      -2.251  -3.358   1.509  0.00  0.00    +0.331 A 
ATOM     12  O   UNL     1      -2.355  -2.869   2.618  0.00  0.00    -0.246 OA
BRANCH   5  13
ATOM     13  N   UNL     1       0.100  -3.372  -1.238  0.00  0.00    -0.343 N 
ATOM     14  H   UNL     1       0.758  -2.733  -0.920  0.00  0.00    +0.144 HD
ATOM     15  H   UNL     1       0.232  -3.821  -2.087  0.00  0.00    +0.144 HD
ENDBRANCH   5  13
BRANCH   4  16
ATOM     16  C   UNL     1      -0.111  -2.220   1.306  0.00  0.00    +0.131 C 
BRANCH  16  18
ATOM     17  C   UNL     1       2.076  -2.171   2.514  0.00  0.00    +0.009 C 
ATOM     18  C   UNL     1       0.918  -3.064   2.061  0.00  0.00    +0.003 C 
ATOM     19  C   UNL     1       0.256  -3.700   3.285  0.00  0.00    +0.009 C 
ENDBRANCH  16  18
ENDBRANCH   4  16
ENDBRANCH   1   6
BRANCH   1  20
ATOM     20  C   UNL     1      -1.878  -6.492  -2.411  0.00  0.00    +0.117 C 
BRANCH  20  21
ATOM     21  C   UNL     1      -0.429  -6.983  -2.439  0.00  0.00    +0.001 C 
ATOM     22  C   UNL     1       0.222  -6.730  -1.077  0.00  0.00    +0.009 C 
ATOM     23  C   UNL     1      -0.404  -8.481  -2.746  0.00  0.00    +0.009 C 
ENDBRANCH  20  21
ENDBRANCH   1  20
BRANCH   2  24
ATOM     24  C   UNL     1      -1.574  -4.854  -4.708  0.00  0.00    +0.173 C 
BRANCH  24  25
ATOM     25  S   UNL     1      -1.416  -3.536  -5.944  0.00  0.00    -0.075 S 
BRANCH  25  26
ATOM     26  C   UNL     1      -1.154  -4.401  -7.457  0.00  0.00    +0.214 A 
ATOM     27  N   UNL     1      -1.100  -5.706  -7.613  0.00  0.00    -0.101 NA
ATOM     28  N   UNL     1      -0.897  -6.004  -8.846  0.00  0.00    -0.022 NA
ATOM     29  N   UNL     1      -0.807  -4.933  -9.558  0.00  0.00    -0.038 NA
ATOM     30  N   UNL     1      -0.977  -3.846  -8.683  0.00  0.00    -0.187 N 
BRANCH  30  31
ATOM     31  C   UNL     1      -0.963  -2.482  -9.007  0.00  0.00    +0.070 A 
ATOM     32  C   UNL     1      -1.787  -1.597  -8.325  0.00  0.00    +0.028 A 
ATOM     33  C   UNL     1      -1.771  -0.254  -8.646  0.00  0.00    +0.002 A 
ATOM     34  C   UNL     1      -0.935   0.210  -9.645  0.00  0.00    +0.000 A 
ATOM     35  C   UNL     1      -0.113  -0.669 -10.326  0.00  0.00    +0.002 A 
ATOM     36  C   UNL     1      -0.120  -2.013 -10.006  0.00  0.00    +0.028 A 
ENDBRANCH  30  31
ENDBRANCH  25  26
ENDBRANCH  24  25
ENDBRANCH   2  24
TORSDOF 10
