REMARK  Name = ZINC36556561
REMARK  20 active torsions:
REMARK  status: ('A' for Active; 'I' for Inactive)
REMARK    1  A    between atoms: C_1  and  C_2
REMARK    2  A    between atoms: C_7  and  C_8
REMARK    3  A    between atoms: C_8  and  C_9
REMARK    4  A    between atoms: N_11  and  C_12
REMARK    5  A    between atoms: N_11  and  C_19
REMARK    6  A    between atoms: C_12  and  C_13
REMARK    7  A    between atoms: C_16  and  C_18
REMARK    8  A    between atoms: C_19  and  C_21
REMARK    9  A    between atoms: C_19  and  C_30
REMARK   10  A    between atoms: C_22  and  O_29
REMARK   11  A    between atoms: C_24  and  O_28
REMARK   12  A    between atoms: C_26  and  O_27
REMARK   13  A    between atoms: N_32  and  C_33
REMARK   14  A    between atoms: C_33  and  C_34
REMARK   15  A    between atoms: C_33  and  C_35
REMARK   16  A    between atoms: C_33  and  C_36
REMARK   17  A    between atoms: C_36  and  C_37
REMARK   18  A    between atoms: C_37  and  C_38
REMARK   19  A    between atoms: C_37  and  C_39
REMARK   20  A    between atoms: C_37  and  C_40
REMARK                            x       y       z     vdW  Elec       q    Type
REMARK                         _______ _______ _______ _____ _____    ______ ____
ROOT
ATOM      1  C   UNL     1      -3.131   1.746   7.351  0.00  0.00    +0.200 C 
ENDROOT
BRANCH   1   2
ATOM      2  C   UNL     1      -3.888   1.726   8.654  0.00  0.00    +0.065 A 
ATOM      3  C   UNL     1      -3.286   2.196   9.812  0.00  0.00    +0.129 A 
ATOM      4  C   UNL     1      -3.982   2.177  11.011  0.00  0.00    +0.091 A 
ATOM      5  C   UNL     1      -5.279   1.689  11.053  0.00  0.00    +0.124 A 
ATOM      6  C   UNL     1      -5.881   1.219   9.895  0.00  0.00    +0.091 A 
ATOM      7  C   UNL     1      -5.186   1.242   8.695  0.00  0.00    +0.129 A 
BRANCH   7   8
ATOM      8  O   UNL     1      -5.778   0.786   7.559  0.00  0.00    -0.506 OA
ATOM      9  H   UNL     1      -5.641  -0.157   7.396  0.00  0.00    +0.292 HD
ENDBRANCH   7   8
BRANCH   5  10
ATOM     10  O   UNL     1      -5.961   1.670  12.229  0.00  0.00    -0.507 OA
ATOM     11  H   UNL     1      -6.468   2.474  12.402  0.00  0.00    +0.292 HD
ENDBRANCH   5  10
BRANCH   3  12
ATOM     12  O   UNL     1      -2.015   2.675   9.771  0.00  0.00    -0.506 OA
ATOM     13  H   UNL     1      -1.959   3.635   9.671  0.00  0.00    +0.292 HD
ENDBRANCH   3  12
ENDBRANCH   1   2
BRANCH   1  14
ATOM     14  C   UNL     1      -2.994   3.168   6.872  0.00  0.00    +0.239 C 
ATOM     15  O   UNL     1      -1.951   3.545   6.380  0.00  0.00    -0.273 OA
ATOM     16  N   UNL     1      -4.031   4.021   6.989  0.00  0.00    -0.308 N 
ATOM     17  H   UNL     1      -4.841   3.741   7.443  0.00  0.00    +0.149 HD
BRANCH  16  18
ATOM     18  C   UNL     1      -3.935   5.372   6.429  0.00  0.00    +0.030 C 
ATOM     19  C   UNL     1      -2.887   6.172   7.206  0.00  0.00    +0.031 C 
ATOM     20  C   UNL     1      -3.523   5.287   4.958  0.00  0.00    +0.031 C 
BRANCH  18  21
ATOM     21  C   UNL     1      -5.293   6.068   6.540  0.00  0.00    +0.031 C 
BRANCH  21  22
ATOM     22  C   UNL     1      -6.289   5.394   5.595  0.00  0.00    -0.036 C 
ATOM     23  C   UNL     1      -6.069   3.880   5.616  0.00  0.00    +0.010 C 
ATOM     24  C   UNL     1      -7.716   5.708   6.050  0.00  0.00    +0.010 C 
ATOM     25  C   UNL     1      -6.080   5.920   4.173  0.00  0.00    +0.010 C 
ENDBRANCH  21  22
ENDBRANCH  18  21
ENDBRANCH  16  18
ENDBRANCH   1  14
BRANCH   1  28
ATOM     26  C   UNL     1      -1.646  -0.171   7.584  0.00  0.00    +0.221 C 
ATOM     27  O   UNL     1      -2.608  -0.897   7.450  0.00  0.00    -0.275 OA
ATOM     28  N   UNL     1      -1.800   1.167   7.550  0.00  0.00    -0.278 N 
BRANCH  26  29
ATOM     29  C   UNL     1      -0.276  -0.767   7.788  0.00  0.00    +0.131 C 
BRANCH  29  36
ATOM     30  C   UNL     1      -0.230  -2.216   5.289  0.00  0.00    +0.044 C 
ATOM     31  C   UNL     1      -0.355  -2.963   6.591  0.00  0.00    -0.047 A 
ATOM     32  C   UNL     1      -0.441  -4.343   6.590  0.00  0.00    +0.003 A 
ATOM     33  C   UNL     1      -0.556  -5.029   7.785  0.00  0.00    +0.000 A 
ATOM     34  C   UNL     1      -0.584  -4.336   8.980  0.00  0.00    +0.000 A 
ATOM     35  C   UNL     1      -0.496  -2.956   8.981  0.00  0.00    +0.004 A 
ATOM     36  C   UNL     1      -0.377  -2.270   7.787  0.00  0.00    -0.036 A 
ENDBRANCH  29  36
ENDBRANCH  26  29
BRANCH  28  37
ATOM     37  C   UNL     1      -0.637   2.043   7.711  0.00  0.00    +0.183 C 
BRANCH  37  38
ATOM     38  C   UNL     1       0.151   2.073   6.427  0.00  0.00    +0.122 A 
ATOM     39  C   UNL     1       0.167   3.081   5.536  0.00  0.00    +0.046 A 
ATOM     40  C   UNL     1       1.033   2.689   4.490  0.00  0.00    +0.045 A 
ATOM     41  C   UNL     1       1.495   1.465   4.803  0.00  0.00    +0.102 A 
ATOM     42  O   UNL     1       0.962   1.099   5.981  0.00  0.00    -0.463 OA
ATOM     43  C   UNL     1       2.453   0.646   3.977  0.00  0.00    +0.086 C 
ENDBRANCH  37  38
ENDBRANCH  28  37
ENDBRANCH   1  28
TORSDOF 13
