REMARK  Name = ZINC36610294
REMARK  11 active torsions:
REMARK  status: ('A' for Active; 'I' for Inactive)
REMARK    1  A    between atoms: C_1  and  C_2
REMARK    2  A    between atoms: C_2  and  C_3
REMARK    3  A    between atoms: C_2  and  C_4
REMARK    4  A    between atoms: C_2  and  N_5
REMARK    5  A    between atoms: C_6  and  C_8
REMARK    6  A    between atoms: C_8  and  C_10
REMARK    7  A    between atoms: C_8  and  N_24
REMARK    8  A    between atoms: N_24  and  C_25
REMARK    9  A    between atoms: C_31  and  C_33
REMARK   10  A    between atoms: C_37  and  O_40
REMARK   11  A    between atoms: C_38  and  O_39
REMARK                            x       y       z     vdW  Elec       q    Type
REMARK                         _______ _______ _______ _____ _____    ______ ____
ROOT
ATOM      1  C   UNL     1       2.765  -0.923  -1.804  0.00  0.00    +0.198 C 
ENDROOT
BRANCH   1   2
ATOM      2  C   UNL     1       1.900   0.173  -2.369  0.00  0.00    -0.010 A 
ATOM      3  C   UNL     1       1.217   0.975  -1.527  0.00  0.00    +0.015 A 
ATOM      4  C   UNL     1       0.392   2.018  -2.008  0.00  0.00    -0.017 A 
ATOM      5  C   UNL     1      -0.314   2.846  -1.124  0.00  0.00    +0.008 A 
ATOM      6  C   UNL     1      -1.103   3.845  -1.616  0.00  0.00    +0.001 A 
ATOM      7  C   UNL     1      -1.218   4.055  -2.985  0.00  0.00    +0.001 A 
ATOM      8  C   UNL     1      -0.544   3.265  -3.872  0.00  0.00    +0.009 A 
ATOM      9  C   UNL     1       0.271   2.235  -3.399  0.00  0.00    -0.010 A 
ATOM     10  C   UNL     1       1.013   1.363  -4.314  0.00  0.00    -0.010 A 
ATOM     11  C   UNL     1       1.826   0.342  -3.771  0.00  0.00    -0.012 A 
ATOM     12  C   UNL     1       2.544  -0.493  -4.638  0.00  0.00    +0.009 A 
ATOM     13  C   UNL     1       2.454  -0.308  -5.986  0.00  0.00    +0.001 A 
ATOM     14  C   UNL     1       1.658   0.701  -6.517  0.00  0.00    +0.001 A 
ATOM     15  C   UNL     1       0.937   1.524  -5.699  0.00  0.00    +0.009 A 
ENDBRANCH   1   2
BRANCH   1  17
ATOM     16  N   UNL     1       1.182  -1.718  -0.077  0.00  0.00    -0.309 N 
ATOM     17  C   UNL     1       2.381  -1.176  -0.368  0.00  0.00    +0.239 C 
ATOM     18  O   UNL     1       3.152  -0.892   0.524  0.00  0.00    -0.273 OA
ATOM     19  H   UNL     1       0.538  -1.879  -0.784  0.00  0.00    +0.149 HD
BRANCH  16  21
ATOM     20  C   UNL     1       0.910  -0.806   2.176  0.00  0.00    +0.031 C 
ATOM     21  C   UNL     1       0.852  -2.064   1.308  0.00  0.00    +0.026 C 
ATOM     22  C   UNL     1       1.859  -3.091   1.831  0.00  0.00    +0.031 C 
ATOM     23  C   UNL     1      -0.557  -2.658   1.363  0.00  0.00    +0.031 C 
ENDBRANCH  16  21
ENDBRANCH   1  17
BRANCH   1  24
ATOM     24  N   UNL     1       4.171  -0.518  -1.869  0.00  0.00    -0.251 N 
ATOM     25  C   UNL     1       5.072  -1.307  -2.489  0.00  0.00    +0.255 C 
ATOM     26  O   UNL     1       4.701  -2.299  -3.087  0.00  0.00    -0.269 OA
BRANCH  24  27
ATOM     27  C   UNL     1       4.580   0.686  -1.288  0.00  0.00    +0.038 A 
ATOM     28  C   UNL     1       3.987   1.881  -1.674  0.00  0.00    +0.023 A 
ATOM     29  C   UNL     1       4.393   3.070  -1.098  0.00  0.00    +0.002 A 
ATOM     30  C   UNL     1       5.388   3.070  -0.139  0.00  0.00    +0.000 A 
ATOM     31  C   UNL     1       5.981   1.882   0.248  0.00  0.00    +0.002 A 
ATOM     32  C   UNL     1       5.575   0.690  -0.320  0.00  0.00    +0.023 A 
ENDBRANCH  24  27
BRANCH  25  33
ATOM     33  C   UNL     1       6.506  -0.966  -2.443  0.00  0.00    +0.082 A 
ATOM     34  C   UNL     1       6.911   0.372  -2.443  0.00  0.00    +0.017 A 
ATOM     35  C   UNL     1       8.251   0.686  -2.400  0.00  0.00    +0.005 A 
ATOM     36  C   UNL     1       9.204  -0.318  -2.356  0.00  0.00    +0.049 A 
ATOM     37  C   UNL     1       8.820  -1.648  -2.355  0.00  0.00    +0.159 A 
ATOM     38  C   UNL     1       7.469  -1.981  -2.393  0.00  0.00    +0.171 A 
BRANCH  38  39
ATOM     39  O   UNL     1       7.087  -3.284  -2.386  0.00  0.00    -0.503 OA
ATOM     40  H   UNL     1       7.008  -3.675  -3.267  0.00  0.00    +0.292 HD
ENDBRANCH  38  39
BRANCH  37  41
ATOM     41  O   UNL     1       9.761  -2.628  -2.313  0.00  0.00    -0.503 OA
ATOM     42  H   UNL     1      10.003  -2.902  -1.418  0.00  0.00    +0.292 HD
ENDBRANCH  37  41
ENDBRANCH  25  33
ENDBRANCH   1  24
TORSDOF 8
