REMARK  Name = ZINC30942347
REMARK  7 active torsions:
REMARK  status: ('A' for Active; 'I' for Inactive)
REMARK    1  A    between atoms: C_4  and  N_17
REMARK    2  A    between atoms: C_5  and  C_7
REMARK    3  A    between atoms: N_9  and  C_10
REMARK    4  A    between atoms: C_10  and  C_11
REMARK    5  A    between atoms: C_18  and  C_20
REMARK    6  A    between atoms: N_23  and  C_26
REMARK    7  A    between atoms: C_26  and  C_27
REMARK                            x       y       z     vdW  Elec       q    Type
REMARK                         _______ _______ _______ _____ _____    ______ ____
ROOT
ATOM      1  N   UNL     1       2.872   5.199   6.174  0.00  0.00    -0.285 N 
ATOM      2  C   UNL     1       2.075   5.702   5.211  0.00  0.00    +0.220 C 
ATOM      3  O   UNL     1       1.223   6.517   5.494  0.00  0.00    -0.275 OA
ATOM      4  H   UNL     1       3.595   4.406   5.931  0.00  0.00    +0.155 HD
ENDROOT
BRANCH   2   5
ATOM      5  C   UNL     1       2.241   5.251   3.783  0.00  0.00    +0.072 C 
ATOM      6  C   UNL     1       1.220   5.969   2.897  0.00  0.00    -0.006 C 
ATOM      7  C   UNL     1       1.353   5.462   1.459  0.00  0.00    -0.078 C 
ATOM      8  N   UNL     1       1.123   4.012   1.426  0.00  0.00    +0.382 N 
ATOM      9  C   UNL     1       2.121   3.298   2.232  0.00  0.00    -0.078 C 
ATOM     10  C   UNL     1       2.010   3.740   3.693  0.00  0.00    -0.006 C 
ATOM     11  H   UNL     1       0.135   3.820   1.869  0.00  0.00    -0.081 HD
BRANCH   8  12
ATOM     12  C   UNL     1       1.107   3.513   0.045  0.00  0.00    -0.043 C 
BRANCH  12  13
ATOM     13  C   UNL     1       1.115   2.006   0.055  0.00  0.00    -0.064 A 
ATOM     14  C   UNL     1      -0.078   1.308   0.077  0.00  0.00    +0.003 A 
ATOM     15  C   UNL     1      -0.071  -0.074   0.086  0.00  0.00    +0.015 A 
ATOM     16  C   UNL     1       1.131  -0.759   0.074  0.00  0.00    +0.018 A 
ATOM     17  C   UNL     1       2.325  -0.060   0.053  0.00  0.00    +0.015 A 
ATOM     18  C   UNL     1       2.316   1.322   0.043  0.00  0.00    +0.003 A 
ATOM     19 BR   UNL     1       1.142  -2.650   0.088  0.00  0.00    -0.050 Br
ENDBRANCH  12  13
ENDBRANCH   8  12
ENDBRANCH   2   5
BRANCH   1  23
ATOM     20  C   UNL     1       2.596   6.648  10.075  0.00  0.00    +0.001 A 
ATOM     21  C   UNL     1       1.460   6.538   9.288  0.00  0.00    +0.002 A 
ATOM     22  C   UNL     1       1.550   6.064   7.995  0.00  0.00    +0.024 A 
ATOM     23  C   UNL     1       2.780   5.682   7.477  0.00  0.00    +0.046 A 
ATOM     24  C   UNL     1       3.932   5.792   8.271  0.00  0.00    +0.058 A 
ATOM     25  C   UNL     1       3.826   6.279   9.576  0.00  0.00    +0.015 A 
BRANCH  24  26
ATOM     26  C   UNL     1       5.246   5.396   7.731  0.00  0.00    +0.246 C 
ATOM     27  O   UNL     1       5.350   5.066   6.565  0.00  0.00    -0.270 OA
ATOM     28  N   UNL     1       6.332   5.399   8.529  0.00  0.00    -0.309 N 
ATOM     29  H   UNL     1       6.238   5.697   9.584  0.00  0.00    +0.149 HD
BRANCH  28  30
ATOM     30  C   UNL     1       7.637   5.005   7.993  0.00  0.00    +0.136 C 
BRANCH  30  31
ATOM     31  C   UNL     1       8.691   5.095   9.098  0.00  0.00    +0.135 C 
ATOM     32  C   UNL     1      10.096   4.805   8.526  0.00  0.00    +0.035 C 
ATOM     33  C   UNL     1      10.802   4.012   9.648  0.00  0.00    +0.031 C 
ATOM     34  C   UNL     1       9.739   3.916  10.766  0.00  0.00    +0.160 C 
ATOM     35  O   UNL     1       8.474   4.064  10.085  0.00  0.00    -0.375 OA
ENDBRANCH  30  31
ENDBRANCH  28  30
ENDBRANCH  24  26
ENDBRANCH   1  23
TORSDOF 7
