REMARK  Name = ZINC10751060
REMARK  7 active torsions:
REMARK  status: ('A' for Active; 'I' for Inactive)
REMARK    1  A    between atoms: C_1  and  C_2
REMARK    2  A    between atoms: C_2  and  N_57
REMARK    3  A    between atoms: C_8  and  N_13
REMARK    4  A    between atoms: C_9  and  C_10
REMARK    5  A    between atoms: C_14  and  C_16
REMARK    6  A    between atoms: N_21  and  S_23
REMARK    7  A    between atoms: S_23  and  C_26
REMARK                            x       y       z     vdW  Elec       q    Type
REMARK                         _______ _______ _______ _____ _____    ______ ____
ROOT
ATOM      1  N   UNL     1       3.017  -2.630   3.777  0.00  0.00    -0.279 N 
ATOM      2  C   UNL     1       2.628  -3.919   3.826  0.00  0.00    +0.222 C 
ATOM      3  O   UNL     1       1.742  -4.313   3.098  0.00  0.00    -0.275 OA
ATOM      4  H   UNL     1       3.726  -2.314   4.359  0.00  0.00    +0.155 HD
ENDROOT
BRANCH   1  10
ATOM      5  C   UNL     1       1.349   2.010   0.000  0.00  0.00    -0.074 C 
ATOM      6  C   UNL     1       2.020   1.769   1.355  0.00  0.00    +0.018 C 
ATOM      7  C   UNL     1       1.870   0.293   1.704  0.00  0.00    -0.027 A 
ATOM      8  C   UNL     1       0.949  -0.465   1.065  0.00  0.00    -0.021 A 
ATOM      9  S   UNL     1       1.127  -2.078   1.768  0.00  0.00    -0.079 S 
ATOM     10  C   UNL     1       2.403  -1.753   2.895  0.00  0.00    +0.084 A 
ATOM     11  C   UNL     1       2.662  -0.403   2.700  0.00  0.00    +0.068 A 
ATOM     12  C   UNL     1       0.002  -0.004   0.002  0.00  0.00    -0.035 C 
ATOM     13  N   UNL     1      -0.029   1.478   0.034  0.00  0.00    +0.383 N 
ATOM     14  H   UNL     1      -0.484   1.785   0.902  0.00  0.00    -0.081 HD
BRANCH  11  15
ATOM     15  C   UNL     1       3.697   0.293   3.471  0.00  0.00    +0.244 C 
ATOM     16  O   UNL     1       4.839   0.339   3.055  0.00  0.00    -0.270 OA
ATOM     17  N   UNL     1       3.382   0.881   4.642  0.00  0.00    -0.325 N 
ATOM     18  H   UNL     1       2.472   0.845   4.974  0.00  0.00    +0.145 HD
ATOM     19  H   UNL     1       4.067   1.342   5.153  0.00  0.00    +0.145 HD
ENDBRANCH  11  15
BRANCH  13  21
ATOM     20  C   UNL     1      -2.269   1.608  -0.945  0.00  0.00    -0.017 C 
ATOM     21  C   UNL     1      -0.798   1.993  -1.120  0.00  0.00    -0.082 C 
ENDBRANCH  13  21
ENDBRANCH   1  10
BRANCH   2  22
ATOM     22  C   UNL     1       3.296  -4.871   4.785  0.00  0.00    +0.091 C 
ATOM     23  C   UNL     1       3.100  -4.373   6.218  0.00  0.00    +0.015 C 
ATOM     24  C   UNL     1       3.804  -5.322   7.191  0.00  0.00    +0.018 C 
ATOM     25  C   UNL     1       3.185  -6.719   7.074  0.00  0.00    +0.109 C 
ATOM     26  N   UNL     1       3.240  -7.145   5.669  0.00  0.00    -0.175 NA
ATOM     27  C   UNL     1       2.671  -6.263   4.641  0.00  0.00    +0.122 C 
BRANCH  26  28
ATOM     28  S   UNL     1       3.929  -8.591   5.252  0.00  0.00    +0.067 S 
ATOM     29  O   UNL     1       3.864  -9.420   6.405  0.00  0.00    -0.152 OA
ATOM     30  O   UNL     1       3.357  -8.970   4.008  0.00  0.00    -0.152 OA
BRANCH  28  31
ATOM     31  C   UNL     1       5.638  -8.286   4.949  0.00  0.00    +0.143 A 
ATOM     32  C   UNL     1       6.679  -8.328   5.815  0.00  0.00    +0.036 A 
ATOM     33  C   UNL     1       7.951  -8.049   5.349  0.00  0.00    +0.010 A 
ATOM     34  C   UNL     1       8.118  -7.742   4.039  0.00  0.00    +0.047 A 
ATOM     35  S   UNL     1       6.447  -7.848   3.419  0.00  0.00    -0.077 S 
ENDBRANCH  28  31
ENDBRANCH  26  28
ENDBRANCH   2  22
TORSDOF 6
