REMARK  Name = ZINC17201141
REMARK  6 active torsions:
REMARK  status: ('A' for Active; 'I' for Inactive)
REMARK    1  A    between atoms: C_12  and  C_16
REMARK    2  A    between atoms: C_19  and  C_21
REMARK    3  A    between atoms: C_21  and  C_33
REMARK    4  A    between atoms: C_22  and  N_23
REMARK    5  A    between atoms: N_23  and  C_24
REMARK    6  A    between atoms: C_27  and  C_30
REMARK                            x       y       z     vdW  Elec       q    Type
REMARK                         _______ _______ _______ _____ _____    ______ ____
ROOT
ATOM      1  C   UNL     1      -1.554   2.163  -1.394  0.00  0.00    +0.086 A 
ATOM      2  C   UNL     1      -1.647   3.516  -1.590  0.00  0.00    +0.075 A 
ATOM      3  S   UNL     1      -3.341   3.808  -1.100  0.00  0.00    -0.074 S 
ATOM      4  C   UNL     1      -3.746   2.118  -0.679  0.00  0.00    +0.120 A 
ATOM      5  N   UNL     1      -2.604   1.500  -0.942  0.00  0.00    -0.238 NA
ENDROOT
BRANCH   1  17
ATOM      6  C   UNL     1       1.555  -4.717  -1.227  0.00  0.00    +0.001 A 
ATOM      7  C   UNL     1       0.332  -4.123  -0.928  0.00  0.00    +0.001 A 
ATOM      8  C   UNL     1       0.146  -2.782  -1.097  0.00  0.00    +0.009 A 
ATOM      9  C   UNL     1       1.195  -1.993  -1.575  0.00  0.00    -0.007 A 
ATOM     10  C   UNL     1       2.440  -2.593  -1.880  0.00  0.00    -0.017 A 
ATOM     11  C   UNL     1       2.598  -3.975  -1.695  0.00  0.00    +0.008 A 
ATOM     12  C   UNL     1       3.495  -1.794  -2.362  0.00  0.00    +0.012 A 
ATOM     13  C   UNL     1       3.337  -0.458  -2.540  0.00  0.00    +0.047 A 
ATOM     14  C   UNL     1       2.128   0.188  -2.255  0.00  0.00    +0.140 A 
ATOM     15  C   UNL     1       1.041  -0.550  -1.772  0.00  0.00    +0.026 A 
ATOM     16  C   UNL     1      -0.183   0.088  -1.480  0.00  0.00    +0.029 A 
ATOM     17  C   UNL     1      -0.287   1.451  -1.681  0.00  0.00    +0.086 A 
ATOM     18  C   UNL     1       0.880   2.178  -2.187  0.00  0.00    +0.347 A 
ATOM     19  O   UNL     1       0.815   3.379  -2.373  0.00  0.00    -0.244 OA
ATOM     20  O   UNL     1       2.021   1.520  -2.449  0.00  0.00    -0.422 OA
ENDBRANCH   1  17
BRANCH   4  21
ATOM     21  C   UNL     1      -5.016   1.560  -0.174  0.00  0.00    +0.098 C 
ATOM     22  C   UNL     1      -6.045   2.393   0.147  0.00  0.00    +0.093 C 
BRANCH  22  23
ATOM     23  N   UNL     1      -5.854   3.747   0.153  0.00  0.00    -0.319 N 
ATOM     24  H   UNL     1      -4.967   4.112   0.005  0.00  0.00    +0.152 HD
BRANCH  23  25
ATOM     25  C   UNL     1      -6.931   4.601   0.372  0.00  0.00    +0.031 A 
ATOM     26  C   UNL     1      -8.203   4.075   0.580  0.00  0.00    +0.024 A 
ATOM     27  C   UNL     1      -9.269   4.917   0.802  0.00  0.00    +0.015 A 
ATOM     28  C   UNL     1      -9.075   6.301   0.808  0.00  0.00    +0.037 A 
ATOM     29  C   UNL     1      -7.797   6.826   0.595  0.00  0.00    +0.015 A 
ATOM     30  C   UNL     1      -6.734   5.979   0.378  0.00  0.00    +0.024 A 
BRANCH  28  31
ATOM     31  C   UNL     1     -10.216   7.207   1.041  0.00  0.00    +0.242 C 
ATOM     32  O   UNL     1     -10.046   8.411   1.047  0.00  0.00    -0.270 OA
ATOM     33  N   UNL     1     -11.448   6.700   1.247  0.00  0.00    -0.325 N 
ATOM     34  H   UNL     1     -11.584   5.739   1.242  0.00  0.00    +0.145 HD
ATOM     35  H   UNL     1     -12.198   7.295   1.400  0.00  0.00    +0.145 HD
ENDBRANCH  28  31
ENDBRANCH  23  25
ENDBRANCH  22  23
BRANCH  21  36
ATOM     36  C   UNL     1      -5.165   0.144  -0.023  0.00  0.00    +0.103 C 
ATOM     37  N   UNL     1      -5.284  -0.979   0.098  0.00  0.00    -0.191 NA
ENDBRANCH  21  36
ENDBRANCH   4  21
TORSDOF 6
