REMARK  Name = ZINC02954000
REMARK  14 active torsions:
REMARK  status: ('A' for Active; 'I' for Inactive)
REMARK    1  A    between atoms: C_1  and  C_2
REMARK    2  A    between atoms: C_2  and  C_3
REMARK    3  A    between atoms: C_6  and  N_9
REMARK    4  A    between atoms: C_10  and  C_12
REMARK    5  A    between atoms: C_15  and  C_36
REMARK    6  A    between atoms: C_18  and  C_35
REMARK    7  A    between atoms: N_22  and  C_23
REMARK    8  A    between atoms: C_25  and  O_32
REMARK    9  A    between atoms: C_28  and  O_29
REMARK   10  A    between atoms: O_29  and  C_30
REMARK   11  A    between atoms: C_30  and  C_31
REMARK   12  A    between atoms: O_32  and  C_33
REMARK   13  A    between atoms: C_33  and  C_34
REMARK   14  A    between atoms: C_36  and  O_37
REMARK                            x       y       z     vdW  Elec       q    Type
REMARK                         _______ _______ _______ _____ _____    ______ ____
ROOT
ATOM      1  C   UNL     1       1.214   2.070   0.016  0.00  0.00    +0.098 A 
ATOM      2  C   UNL     1      -0.021   1.459   0.013  0.00  0.00    +0.030 A 
ATOM      3  C   UNL     1      -0.046  -0.005   0.007  0.00  0.00    +0.027 A 
ATOM      4  C   UNL     1      -1.220  -0.721  -0.257  0.00  0.00    +0.007 A 
ATOM      5  C   UNL     1      -1.165  -2.099  -0.249  0.00  0.00    +0.117 A 
ATOM      6  N   UNL     1      -0.037  -2.738   0.001  0.00  0.00    -0.256 NA
ATOM      7  C   UNL     1       1.093  -2.109   0.256  0.00  0.00    +0.081 A 
ATOM      8  C   UNL     1       1.136  -0.723   0.271  0.00  0.00    +0.159 A 
ATOM      9  O   UNL     1       2.283  -0.054   0.536  0.00  0.00    -0.437 OA
ATOM     10  C   UNL     1       2.402   1.193   0.008  0.00  0.00    +0.212 A 
ATOM     11  N   UNL     1       3.544   1.606  -0.494  0.00  0.00    -0.322 N 
ATOM     12  C   UNL     1       2.345  -2.901   0.533  0.00  0.00    +0.069 C 
ATOM     13  H   UNL     1       3.648   2.645  -0.842  0.00  0.00    +0.169 HD
ENDROOT
BRANCH  11  14
ATOM     14  C   UNL     1       4.604   0.746  -0.585  0.00  0.00    +0.088 A 
ATOM     15  C   UNL     1       5.451   0.560   0.509  0.00  0.00    +0.075 A 
ATOM     16  C   UNL     1       6.521  -0.313   0.410  0.00  0.00    +0.123 A 
ATOM     17  C   UNL     1       6.752  -1.002  -0.773  0.00  0.00    +0.049 A 
ATOM     18  C   UNL     1       5.915  -0.823  -1.859  0.00  0.00    +0.051 A 
ATOM     19  C   UNL     1       4.840   0.043  -1.773  0.00  0.00    +0.144 A 
BRANCH  19  20
ATOM     20  O   UNL     1       4.015   0.214  -2.841  0.00  0.00    -0.490 OA
BRANCH  20  21
ATOM     21  C   UNL     1       4.316  -0.536  -4.020  0.00  0.00    +0.226 C 
ATOM     22  C   UNL     1       3.288  -0.214  -5.106  0.00  0.00    +0.048 C 
ENDBRANCH  20  21
ENDBRANCH  19  20
BRANCH  16  23
ATOM     23  O   UNL     1       7.348  -0.495   1.474  0.00  0.00    -0.492 OA
BRANCH  23  24
ATOM     24  C   UNL     1       8.432  -1.410   1.304  0.00  0.00    +0.225 C 
ATOM     25  C   UNL     1       9.246  -1.483   2.597  0.00  0.00    +0.048 C 
ENDBRANCH  23  24
ENDBRANCH  16  23
ENDBRANCH  11  14
BRANCH   1  27
ATOM     26  N   UNL     1       2.566   4.106   0.027  0.00  0.00    -0.281 N 
ATOM     27  C   UNL     1       1.344   3.538   0.025  0.00  0.00    +0.253 C 
ATOM     28  O   UNL     1       0.349   4.237   0.030  0.00  0.00    -0.270 OA
ATOM     29  H   UNL     1       3.465   3.477   0.101  0.00  0.00    +0.155 HD
BRANCH  26  33
ATOM     30  C   UNL     1       2.939   8.246  -0.247  0.00  0.00    -0.048 A 
ATOM     31  C   UNL     1       1.878   7.693   0.446  0.00  0.00    +0.005 A 
ATOM     32  C   UNL     1       1.751   6.321   0.539  0.00  0.00    +0.023 A 
ATOM     33  C   UNL     1       2.691   5.496  -0.065  0.00  0.00    +0.034 A 
ATOM     34  C   UNL     1       3.759   6.055  -0.756  0.00  0.00    +0.023 A 
ATOM     35  C   UNL     1       3.877   7.428  -0.849  0.00  0.00    +0.005 A 
BRANCH  30  37
ATOM     36  C   UNL     1       3.905  10.260   0.831  0.00  0.00    +0.009 C 
ATOM     37  C   UNL     1       3.074   9.744  -0.346  0.00  0.00    +0.032 C 
ENDBRANCH  30  37
ENDBRANCH  26  33
ENDBRANCH   1  27
BRANCH   4  38
ATOM     38  C   UNL     1      -2.513  -0.002  -0.545  0.00  0.00    +0.193 C 
BRANCH  38  39
ATOM     39  O   UNL     1      -3.548  -0.959  -0.778  0.00  0.00    -0.390 OA
ATOM     40  H   UNL     1      -4.569  -0.620  -1.006  0.00  0.00    +0.210 HD
ENDBRANCH  38  39
ENDBRANCH   4  38
TORSDOF 10
