REMARK  Name = ZINC03666753
REMARK  10 active torsions:
REMARK  status: ('A' for Active; 'I' for Inactive)
REMARK    1  A    between atoms: C_1  and  C_2
REMARK    2  A    between atoms: C_2  and  N_51
REMARK    3  A    between atoms: C_3  and  C_4
REMARK    4  A    between atoms: C_3  and  N_51
REMARK    5  A    between atoms: C_5  and  C_6
REMARK    6  A    between atoms: C_5  and  N_51
REMARK    7  A    between atoms: C_7  and  C_17
REMARK    8  A    between atoms: N_19  and  N_20
REMARK    9  A    between atoms: C_21  and  C_22
REMARK   10  A    between atoms: C_27  and  N_28
REMARK                            x       y       z     vdW  Elec       q    Type
REMARK                         _______ _______ _______ _____ _____    ______ ____
ROOT
ATOM      1  C   UNL     1       5.582   9.391  -0.236  0.00  0.00    +0.063 A 
ATOM      2  C   UNL     1       5.465   8.032  -0.154  0.00  0.00    +0.170 A 
ATOM      3  N   UNL     1       6.697   7.503  -0.062  0.00  0.00    -0.124 NA
ATOM      4  N   UNL     1       7.575   8.444  -0.090  0.00  0.00    -0.058 NA
ATOM      5  N   UNL     1       6.904   9.671  -0.197  0.00  0.00    -0.194 N 
ATOM      6  C   UNL     1       7.490  10.941  -0.254  0.00  0.00    +0.240 A 
ATOM      7  C   UNL     1       8.928  11.224  -0.211  0.00  0.00    +0.206 A 
ATOM      8  N   UNL     1       9.093  12.516  -0.288  0.00  0.00    -0.032 NA
ATOM      9  O   UNL     1       7.811  13.113  -0.382  0.00  0.00    -0.239 OA
ATOM     10  N   UNL     1       6.852  12.071  -0.360  0.00  0.00    -0.027 NA
ATOM     11  N   UNL     1       9.941  10.279  -0.105  0.00  0.00    -0.337 N 
ATOM     12  H   UNL     1       9.721   9.336  -0.053  0.00  0.00    +0.144 HD
ATOM     13  H   UNL     1      10.869  10.562  -0.084  0.00  0.00    +0.144 HD
ENDROOT
BRANCH   2  14
ATOM     14  C   UNL     1       4.199   7.275  -0.159  0.00  0.00    +0.285 C 
ATOM     15  O   UNL     1       3.138   7.864  -0.241  0.00  0.00    -0.267 OA
ATOM     16  N   UNL     1       4.219   5.930  -0.072  0.00  0.00    -0.202 N 
ATOM     17  H   UNL     1       5.065   5.460  -0.006  0.00  0.00    +0.178 HD
BRANCH  16  18
ATOM     18  N   UNL     1       3.017   5.210  -0.076  0.00  0.00    -0.187 NA
ATOM     19  C   UNL     1       3.035   3.916   0.007  0.00  0.00    +0.140 C 
BRANCH  19  20
ATOM     20  C   UNL     1       1.770   3.158   0.003  0.00  0.00    +0.025 A 
ATOM     21  C   UNL     1       1.788   1.762  -0.031  0.00  0.00    +0.012 A 
ATOM     22  C   UNL     1       0.601   1.060  -0.035  0.00  0.00    +0.001 A 
ATOM     23  C   UNL     1      -0.607   1.736  -0.011  0.00  0.00    +0.002 A 
ATOM     24  C   UNL     1      -0.632   3.119   0.027  0.00  0.00    +0.033 A 
ATOM     25  C   UNL     1       0.547   3.834   0.032  0.00  0.00    +0.135 A 
BRANCH  25  26
ATOM     26  N   UNL     1       0.518   5.313   0.067  0.00  0.00    +0.057 N 
ATOM     27  O   UNL     1       1.126   5.913   0.936  0.00  0.00    -0.126 OA
ATOM     28  O   UNL     1      -0.113   5.930  -0.772  0.00  0.00    -0.126 OA
ENDBRANCH  25  26
ENDBRANCH  19  20
ENDBRANCH  16  18
ENDBRANCH   2  14
BRANCH   1  29
ATOM     29  C   UNL     1       4.456  10.385  -0.347  0.00  0.00    -0.020 C 
BRANCH  29  30
ATOM     30  N   UNL     1       4.057  10.495  -1.766  0.00  0.00    +0.383 N 
ATOM     31  H   UNL     1       3.961   9.552  -2.159  0.00  0.00    -0.081 HD
BRANCH  30  33
ATOM     32  C   UNL     1       1.669  10.307  -1.273  0.00  0.00    -0.017 C 
ATOM     33  C   UNL     1       2.760  11.195  -1.873  0.00  0.00    -0.082 C 
ENDBRANCH  30  33
BRANCH  30  34
ATOM     34  C   UNL     1       5.091  11.229  -2.525  0.00  0.00    -0.082 C 
ATOM     35  C   UNL     1       4.707  11.235  -4.006  0.00  0.00    -0.017 C 
ENDBRANCH  30  34
ENDBRANCH  29  30
ENDBRANCH   1  29
TORSDOF 8
