REMARK  Name = ZINC39930480
REMARK  8 active torsions:
REMARK  status: ('A' for Active; 'I' for Inactive)
REMARK    1  A    between atoms: C_1  and  C_2
REMARK    2  A    between atoms: C_6  and  C_10
REMARK    3  A    between atoms: C_10  and  S_11
REMARK    4  A    between atoms: S_11  and  C_12
REMARK    5  A    between atoms: C_14  and  C_16
REMARK    6  A    between atoms: N_18  and  N_19
REMARK    7  A    between atoms: C_22  and  C_26
REMARK    8  A    between atoms: C_22  and  C_27
REMARK                            x       y       z     vdW  Elec       q    Type
REMARK                         _______ _______ _______ _____ _____    ______ ____
ROOT
ATOM      1  C   UNL     1      -1.212  -0.525   2.110  0.00  0.00    +0.247 C 
ATOM      2  O   UNL     1      -2.275  -0.336   1.557  0.00  0.00    -0.273 OA
ATOM      3  N   UNL     1      -1.137  -0.497   3.455  0.00  0.00    -0.222 N 
ATOM      4  H   UNL     1      -0.287  -0.649   3.897  0.00  0.00    +0.174 HD
ENDROOT
BRANCH   1  15
ATOM      5  C   UNL     1      -0.018   1.503   0.010  0.00  0.00    +0.041 C 
ATOM      6  C   UNL     1       0.002  -0.004   0.002  0.00  0.00    -0.036 C 
ATOM      7  C   UNL     1       0.006  -0.691  -1.150  0.00  0.00    +0.071 C 
ATOM      8  C   UNL     1       0.026  -2.167  -1.069  0.00  0.00    +0.112 C 
ATOM      9  N   UNL     1       0.030  -2.895  -2.160  0.00  0.00    -0.227 NA
ATOM     10  C   UNL     1       0.016  -2.337  -3.360  0.00  0.00    +0.133 C 
ATOM     11  N   UNL     1      -0.003  -1.040  -3.554  0.00  0.00    -0.161 NA
ATOM     12  C   UNL     1      -0.008  -0.158  -2.549  0.00  0.00    +0.271 C 
ATOM     13  O   UNL     1      -0.026   1.042  -2.765  0.00  0.00    -0.268 OA
ATOM     14  S   UNL     1       0.040  -2.523   0.670  0.00  0.00    -0.088 S 
ATOM     15  C   UNL     1       0.025  -0.793   1.292  0.00  0.00    +0.166 C 
BRANCH  10  16
ATOM     16  C   UNL     1       0.021  -3.239  -4.567  0.00  0.00    +0.142 C 
BRANCH  16  17
ATOM     17  S   UNL     1      -0.001  -2.231  -6.076  0.00  0.00    -0.157 S 
ATOM     18  C   UNL     1       0.007  -3.451  -7.418  0.00  0.00    +0.084 C 
ENDBRANCH  16  17
ENDBRANCH  10  16
ENDBRANCH   1  15
BRANCH   3  19
ATOM     19  N   UNL     1      -2.288  -0.249   4.215  0.00  0.00    -0.137 N 
ATOM     20  C   UNL     1      -2.551   0.921   4.830  0.00  0.00    +0.267 C 
ATOM     21  O   UNL     1      -1.863   1.919   4.830  0.00  0.00    -0.271 OA
ATOM     22  C   UNL     1      -3.886   0.730   5.522  0.00  0.00    +0.137 C 
ATOM     23  N   UNL     1      -4.255  -0.656   5.184  0.00  0.00    -0.280 N 
ATOM     24  C   UNL     1      -3.263  -1.142   4.416  0.00  0.00    +0.327 C 
ATOM     25  O   UNL     1      -3.253  -2.268   3.958  0.00  0.00    -0.251 OA
ATOM     26  C   UNL     1      -4.923   1.712   4.972  0.00  0.00    +0.047 C 
ATOM     27  H   UNL     1      -5.058  -1.126   5.460  0.00  0.00    +0.152 HD
BRANCH  22  28
ATOM     28  C   UNL     1      -3.739   0.891   7.013  0.00  0.00    -0.015 A 
ATOM     29  C   UNL     1      -2.773   1.737   7.524  0.00  0.00    +0.006 A 
ATOM     30  C   UNL     1      -2.638   1.885   8.892  0.00  0.00    +0.000 A 
ATOM     31  C   UNL     1      -3.469   1.188   9.748  0.00  0.00    +0.000 A 
ATOM     32  C   UNL     1      -4.436   0.343   9.237  0.00  0.00    +0.000 A 
ATOM     33  C   UNL     1      -4.574   0.198   7.869  0.00  0.00    +0.006 A 
ENDBRANCH  22  28
ENDBRANCH   3  19
TORSDOF 5
