REMARK  Name = ZINC51354939
REMARK  6 active torsions:
REMARK  status: ('A' for Active; 'I' for Inactive)
REMARK    1  A    between atoms: C_3  and  C_20
REMARK    2  A    between atoms: C_6  and  C_7
REMARK    3  A    between atoms: C_7  and  N_8
REMARK    4  A    between atoms: C_9  and  C_11
REMARK    5  A    between atoms: C_15  and  N_17
REMARK    6  A    between atoms: N_17  and  N_18
REMARK                            x       y       z     vdW  Elec       q    Type
REMARK                         _______ _______ _______ _____ _____    ______ ____
ROOT
ATOM      1  N   UNL     1      -1.729  -1.013  -1.367  0.00  0.00    -0.306 N 
ATOM      2  C   UNL     1      -2.871  -1.687  -1.606  0.00  0.00    +0.264 C 
ATOM      3  O   UNL     1      -3.542  -2.094  -0.678  0.00  0.00    -0.268 OA
ATOM      4  H   UNL     1      -1.194  -0.688  -2.108  0.00  0.00    +0.149 HD
ENDROOT
BRANCH   2   5
ATOM      5  C   UNL     1      -3.310  -1.931  -2.999  0.00  0.00    +0.146 A 
ATOM      6  C   UNL     1      -4.495  -2.623  -3.238  0.00  0.00    +0.072 A 
ATOM      7  C   UNL     1      -4.896  -2.845  -4.549  0.00  0.00    +0.026 A 
ATOM      8  C   UNL     1      -4.101  -2.369  -5.575  0.00  0.00    +0.046 A 
ATOM      9  C   UNL     1      -2.926  -1.684  -5.266  0.00  0.00    +0.133 A 
ATOM     10  N   UNL     1      -2.572  -1.483  -4.009  0.00  0.00    -0.225 NA
ATOM     11 CL   UNL     1      -5.457  -3.200  -1.914  0.00  0.00    -0.081 Cl
BRANCH   9  12
ATOM     12  N   UNL     1      -2.121  -1.202  -6.292  0.00  0.00    -0.268 N 
ATOM     13  H   UNL     1      -2.377  -1.344  -7.216  0.00  0.00    +0.167 HD
BRANCH  12  14
ATOM     14  N   UNL     1      -0.969  -0.530  -5.998  0.00  0.00    -0.255 NA
ATOM     15  H   UNL     1      -0.364  -1.087  -5.412  0.00  0.00    +0.140 HD
ATOM     16  H   UNL     1      -0.493  -0.243  -6.840  0.00  0.00    +0.140 HD
ENDBRANCH  12  14
ENDBRANCH   9  12
ENDBRANCH   2   5
BRANCH   1  17
ATOM     17  C   UNL     1      -1.295  -0.772   0.011  0.00  0.00    +0.140 C 
BRANCH  17  23
ATOM     18  C   UNL     1      -0.017   1.379   0.010  0.00  0.00    +0.006 A 
ATOM     19  C   UNL     1       1.167   2.088   0.002  0.00  0.00    +0.019 A 
ATOM     20  C   UNL     1       2.385   1.407  -0.013  0.00  0.00    +0.052 A 
ATOM     21  C   UNL     1       2.397   0.011  -0.021  0.00  0.00    +0.019 A 
ATOM     22  C   UNL     1       1.206  -0.686  -0.013  0.00  0.00    +0.006 A 
ATOM     23  C   UNL     1       0.002  -0.004   0.002  0.00  0.00    -0.030 A 
BRANCH  20  24
ATOM     24  C   UNL     1       3.617   2.136  -0.021  0.00  0.00    +0.099 C 
ATOM     25  N   UNL     1       4.595   2.715  -0.028  0.00  0.00    -0.191 NA
ENDBRANCH  20  24
ENDBRANCH  17  23
ENDBRANCH   1  17
TORSDOF 6
