REMARK  Name = ZINC39695955
REMARK  7 active torsions:
REMARK  status: ('A' for Active; 'I' for Inactive)
REMARK    1  A    between atoms: C_1  and  C_2
REMARK    2  A    between atoms: C_2  and  C_3
REMARK    3  A    between atoms: C_6  and  C_9
REMARK    4  A    between atoms: C_9  and  C_11
REMARK    5  A    between atoms: C_9  and  N_12
REMARK    6  A    between atoms: C_13  and  C_15
REMARK    7  A    between atoms: C_26  and  C_28
REMARK                            x       y       z     vdW  Elec       q    Type
REMARK                         _______ _______ _______ _____ _____    ______ ____
ROOT
ATOM      1  C   UNL     1       2.891  -0.142   7.818  0.00  0.00    +0.100 C 
ATOM      2  C   UNL     1       2.393   1.319   7.745  0.00  0.00    +0.121 C 
ATOM      3  N   UNL     1       2.743   1.900   9.062  0.00  0.00    -0.296 N 
ATOM      4  C   UNL     1       4.075   1.331   9.374  0.00  0.00    +0.115 C 
ATOM      5  C   UNL     1       3.995  -0.130   8.888  0.00  0.00    -0.004 C 
ATOM      6  C   UNL     1       3.620  -1.051  10.045  0.00  0.00    -0.010 C 
ATOM      7  C   UNL     1       4.758  -1.066  11.069  0.00  0.00    -0.082 C 
ATOM      8  N   UNL     1       5.992  -1.534  10.425  0.00  0.00    +0.379 N 
ATOM      9  C   UNL     1       6.396  -0.592   9.375  0.00  0.00    -0.082 C 
ATOM     10  C   UNL     1       5.327  -0.556   8.279  0.00  0.00    -0.010 C 
ATOM     11  C   UNL     1       2.013   2.753   9.808  0.00  0.00    +0.247 C 
ATOM     12  O   UNL     1       0.878   3.033   9.476  0.00  0.00    -0.270 OA
ATOM     13  H   UNL     1       6.725  -1.601  11.115  0.00  0.00    -0.086 HD
ATOM     14  H   UNL     1       5.833  -2.443  10.018  0.00  0.00    -0.086 HD
ENDROOT
BRANCH  11  15
ATOM     15  C   UNL     1       2.594   3.349  11.029  0.00  0.00    +0.037 A 
ATOM     16  C   UNL     1       3.991   3.409  11.180  0.00  0.00    +0.013 A 
ATOM     17  C   UNL     1       4.549   3.951  12.293  0.00  0.00    +0.009 A 
ATOM     18  C   UNL     1       3.727   4.463  13.314  0.00  0.00    -0.018 A 
ATOM     19  C   UNL     1       4.281   5.029  14.474  0.00  0.00    +0.008 A 
ATOM     20  C   UNL     1       3.461   5.516  15.445  0.00  0.00    +0.001 A 
ATOM     21  C   UNL     1       2.075   5.462  15.308  0.00  0.00    +0.001 A 
ATOM     22  C   UNL     1       1.502   4.921  14.199  0.00  0.00    +0.008 A 
ATOM     23  C   UNL     1       2.317   4.408  13.174  0.00  0.00    -0.017 A 
ATOM     24  C   UNL     1       1.759   3.850  12.014  0.00  0.00    +0.021 A 
ENDBRANCH  11  15
BRANCH   1  26
ATOM     25  N   UNL     1       3.384  -1.864   6.112  0.00  0.00    -0.308 N 
ATOM     26  C   UNL     1       3.454  -0.572   6.488  0.00  0.00    +0.219 C 
ATOM     27  O   UNL     1       3.970   0.245   5.755  0.00  0.00    -0.275 OA
ATOM     28  H   UNL     1       2.971  -2.518   6.698  0.00  0.00    +0.149 HD
BRANCH  25  29
ATOM     29  C   UNL     1       3.932  -2.282   4.819  0.00  0.00    +0.100 C 
ATOM     30  C   UNL     1       5.429  -2.558   4.965  0.00  0.00    +0.033 C 
BRANCH  29  34
ATOM     31  C   UNL     1       1.952  -5.835   3.514  0.00  0.00    -0.048 A 
ATOM     32  C   UNL     1       2.257  -4.841   2.605  0.00  0.00    +0.004 A 
ATOM     33  C   UNL     1       2.898  -3.691   3.027  0.00  0.00    +0.006 A 
ATOM     34  C   UNL     1       3.232  -3.535   4.359  0.00  0.00    -0.027 A 
ATOM     35  C   UNL     1       2.926  -4.530   5.269  0.00  0.00    +0.006 A 
ATOM     36  C   UNL     1       2.282  -5.678   4.848  0.00  0.00    +0.004 A 
BRANCH  31  38
ATOM     37  C   UNL     1      -0.261  -6.891   3.141  0.00  0.00    +0.009 C 
ATOM     38  C   UNL     1       1.253  -7.089   3.054  0.00  0.00    +0.032 C 
ENDBRANCH  31  38
ENDBRANCH  29  34
ENDBRANCH  25  29
ENDBRANCH   1  26
TORSDOF 5
