REMARK  Name = ZINC39684239
REMARK  8 active torsions:
REMARK  status: ('A' for Active; 'I' for Inactive)
REMARK    1  A    between atoms: C_1  and  C_2
REMARK    2  A    between atoms: C_7  and  C_11
REMARK    3  A    between atoms: C_11  and  C_12
REMARK    4  A    between atoms: C_12  and  N_13
REMARK    5  A    between atoms: C_14  and  C_16
REMARK    6  A    between atoms: C_27  and  C_29
REMARK    7  A    between atoms: C_30  and  C_41
REMARK    8  A    between atoms: C_33  and  C_35
REMARK                            x       y       z     vdW  Elec       q    Type
REMARK                         _______ _______ _______ _____ _____    ______ ____
ROOT
ATOM      1  C   UNL     1      -8.697   1.922  -6.733  0.00  0.00    +0.100 C 
ATOM      2  C   UNL     1      -9.797   2.290  -5.712  0.00  0.00    +0.121 C 
ATOM      3  N   UNL     1     -11.045   1.742  -6.293  0.00  0.00    -0.296 N 
ATOM      4  C   UNL     1     -10.640   0.439  -6.874  0.00  0.00    +0.115 C 
ATOM      5  C   UNL     1      -9.254   0.707  -7.493  0.00  0.00    -0.004 C 
ATOM      6  C   UNL     1      -8.346  -0.503  -7.293  0.00  0.00    -0.010 C 
ATOM      7  C   UNL     1      -8.888  -1.683  -8.105  0.00  0.00    -0.082 C 
ATOM      8  N   UNL     1      -8.944  -1.317  -9.525  0.00  0.00    +0.379 N 
ATOM      9  C   UNL     1      -9.892  -0.213  -9.721  0.00  0.00    -0.082 C 
ATOM     10  C   UNL     1      -9.392   1.029  -8.978  0.00  0.00    -0.010 C 
ATOM     11  C   UNL     1     -12.271   2.301  -6.294  0.00  0.00    +0.248 C 
ATOM     12  O   UNL     1     -13.223   1.682  -6.734  0.00  0.00    -0.270 OA
ATOM     13  H   UNL     1      -8.027  -1.030  -9.834  0.00  0.00    -0.086 HD
ATOM     14  H   UNL     1      -9.244  -2.115 -10.065  0.00  0.00    -0.086 HD
ENDROOT
BRANCH  11  15
ATOM     15  C   UNL     1     -12.454   3.611  -5.782  0.00  0.00    +0.078 C 
ATOM     16  C   UNL     1     -12.556   3.951  -4.485  0.00  0.00    +0.132 C 
ATOM     17  O   UNL     1     -12.732   5.276  -4.327  0.00  0.00    -0.410 OA
ATOM     18  N   UNL     1     -12.336   5.943  -5.579  0.00  0.00    -0.144 NA
ATOM     19  C   UNL     1     -12.562   4.886  -6.596  0.00  0.00    +0.161 C 
ATOM     20  C   UNL     1     -12.483   2.967  -3.346  0.00  0.00    +0.089 C 
ATOM     21  H   UNL     1     -12.915   6.750  -5.758  0.00  0.00    +0.168 HD
BRANCH  19  22
ATOM     22  C   UNL     1     -13.935   5.018  -7.204  0.00  0.00    -0.023 A 
ATOM     23  C   UNL     1     -15.012   5.364  -6.409  0.00  0.00    +0.005 A 
ATOM     24  C   UNL     1     -16.271   5.485  -6.966  0.00  0.00    +0.000 A 
ATOM     25  C   UNL     1     -16.454   5.260  -8.318  0.00  0.00    +0.000 A 
ATOM     26  C   UNL     1     -15.377   4.914  -9.112  0.00  0.00    +0.000 A 
ATOM     27  C   UNL     1     -14.117   4.798  -8.556  0.00  0.00    +0.005 A 
ENDBRANCH  19  22
ENDBRANCH  11  15
BRANCH   1  29
ATOM     28  N   UNL     1      -6.239   1.660  -6.658  0.00  0.00    -0.315 N 
ATOM     29  C   UNL     1      -7.421   1.556  -6.020  0.00  0.00    +0.218 C 
ATOM     30  O   UNL     1      -7.458   1.167  -4.872  0.00  0.00    -0.275 OA
ATOM     31  H   UNL     1      -6.209   1.971  -7.576  0.00  0.00    +0.149 HD
BRANCH  28  32
ATOM     32  C   UNL     1      -4.998   1.304  -5.965  0.00  0.00    +0.109 C 
BRANCH  32  33
ATOM     33  C   UNL     1      -3.810   1.512  -6.906  0.00  0.00    +0.056 C 
BRANCH  33  40
ATOM     34  C   UNL     1       1.276  -1.022  -4.253  0.00  0.00    +0.046 C 
ATOM     35  C   UNL     1       0.005  -1.163  -5.051  0.00  0.00    -0.027 A 
ATOM     36  C   UNL     1      -0.391  -2.402  -5.506  0.00  0.00    +0.005 A 
ATOM     37  C   UNL     1      -1.559  -2.546  -6.242  0.00  0.00    +0.001 A 
ATOM     38  C   UNL     1      -2.338  -1.460  -6.527  0.00  0.00    +0.010 A 
ATOM     39  C   UNL     1      -1.956  -0.196  -6.075  0.00  0.00    +0.003 A 
ATOM     40  C   UNL     1      -2.534   1.145  -6.193  0.00  0.00    -0.021 A 
ATOM     41  C   UNL     1      -1.711   1.986  -5.547  0.00  0.00    +0.087 A 
ATOM     42  N   UNL     1      -0.653   1.293  -5.024  0.00  0.00    -0.360 N 
ATOM     43  C   UNL     1      -0.776  -0.045  -5.324  0.00  0.00    +0.050 A 
ATOM     44  H   UNL     1       0.073   1.685  -4.514  0.00  0.00    +0.165 HD
ENDBRANCH  33  40
ENDBRANCH  32  33
ENDBRANCH  28  32
ENDBRANCH   1  29
TORSDOF 6
