REMARK  Name = ZINC14720888
REMARK  15 active torsions:
REMARK  status: ('A' for Active; 'I' for Inactive)
REMARK    1  A    between atoms: C_1  and  C_2
REMARK    2  A    between atoms: C_2  and  C_3
REMARK    3  A    between atoms: C_3  and  C_4
REMARK    4  A    between atoms: C_4  and  N_5
REMARK    5  A    between atoms: N_5  and  C_6
REMARK    6  A    between atoms: C_7  and  N_19
REMARK    7  A    between atoms: N_8  and  C_15
REMARK    8  A    between atoms: C_15  and  C_16
REMARK    9  A    between atoms: C_16  and  C_17
REMARK   10  A    between atoms: C_16  and  C_18
REMARK   11  A    between atoms: C_20  and  C_22
REMARK   12  A    between atoms: C_22  and  C_23
REMARK   13  A    between atoms: C_23  and  C_24
REMARK   14  A    between atoms: C_24  and  N_25
REMARK   15  A    between atoms: C_26  and  C_28
REMARK                            x       y       z     vdW  Elec       q    Type
REMARK                         _______ _______ _______ _____ _____    ______ ____
ROOT
ATOM      1  N   UNL     1       7.253   2.080  -0.001  0.00  0.00    -0.264 N 
ATOM      2  C   UNL     1       6.011   2.558   0.222  0.00  0.00    +0.220 C 
ATOM      3  O   UNL     1       5.845   3.742   0.430  0.00  0.00    -0.275 OA
ENDROOT
BRANCH   1   4
ATOM      4  C   UNL     1       8.346   2.969  -0.088  0.00  0.00    +0.140 A 
ATOM      5  C   UNL     1       8.405   3.912  -1.093  0.00  0.00    +0.127 A 
ATOM      6  N   UNL     1       9.483   4.765  -1.151  0.00  0.00    -0.280 N 
ATOM      7  C   UNL     1      10.468   4.680  -0.239  0.00  0.00    +0.331 A 
ATOM      8  O   UNL     1      11.413   5.442  -0.308  0.00  0.00    -0.246 OA
ATOM      9  N   UNL     1      10.428   3.767   0.748  0.00  0.00    -0.273 N 
ATOM     10  H   UNL     1      11.175   3.723   1.411  0.00  0.00    +0.173 HD
ATOM     11  C   UNL     1       9.392   2.912   0.853  0.00  0.00    +0.277 A 
ATOM     12  O   UNL     1       9.362   2.091   1.755  0.00  0.00    -0.266 OA
BRANCH   5  13
ATOM     13  N   UNL     1       7.400   3.998  -2.026  0.00  0.00    -0.343 N 
ATOM     14  H   UNL     1       6.699   3.327  -2.047  0.00  0.00    +0.144 HD
ATOM     15  H   UNL     1       7.390   4.730  -2.662  0.00  0.00    +0.144 HD
ENDBRANCH   5  13
BRANCH   6  16
ATOM     16  C   UNL     1       9.559   5.771  -2.213  0.00  0.00    +0.131 C 
BRANCH  16  17
ATOM     17  C   UNL     1       8.887   7.062  -1.741  0.00  0.00    +0.003 C 
ATOM     18  C   UNL     1       9.677   7.649  -0.569  0.00  0.00    +0.009 C 
ATOM     19  C   UNL     1       8.855   8.070  -2.891  0.00  0.00    +0.009 C 
ENDBRANCH  16  17
ENDBRANCH   6  16
ENDBRANCH   1   4
BRANCH   1  20
ATOM     20  C   UNL     1       7.468   0.639  -0.152  0.00  0.00    +0.114 C 
BRANCH  20  21
ATOM     21  C   UNL     1       7.394   0.265  -1.634  0.00  0.00    +0.019 C 
BRANCH  21  23
ATOM     22  C   UNL     1       7.544  -1.613  -3.274  0.00  0.00    +0.004 C 
ATOM     23  C   UNL     1       7.618  -1.240  -1.792  0.00  0.00    -0.002 C 
ENDBRANCH  21  23
ENDBRANCH  20  21
ENDBRANCH   1  20
BRANCH   2  24
ATOM     24  C   UNL     1       4.831   1.622   0.212  0.00  0.00    +0.098 C 
BRANCH  24  25
ATOM     25  C   UNL     1       3.550   2.412   0.489  0.00  0.00    +0.028 C 
BRANCH  25  26
ATOM     26  C   UNL     1       2.352   1.461   0.479  0.00  0.00    +0.105 C 
BRANCH  26  27
ATOM     27  N   UNL     1       1.126   2.218   0.744  0.00  0.00    -0.311 N 
ATOM     28  C   UNL     1      -0.063   1.584   0.783  0.00  0.00    +0.244 C 
ATOM     29  O   UNL     1      -0.117   0.384   0.598  0.00  0.00    -0.270 OA
ATOM     30  H   UNL     1       1.169   3.176   0.891  0.00  0.00    +0.149 HD
BRANCH  28  31
ATOM     31  C   UNL     1      -1.300   2.348   1.044  0.00  0.00    +0.037 A 
ATOM     32  C   UNL     1      -1.240   3.726   1.263  0.00  0.00    +0.014 A 
ATOM     33  C   UNL     1      -2.398   4.435   1.501  0.00  0.00    +0.021 A 
ATOM     34  C   UNL     1      -3.619   3.781   1.535  0.00  0.00    +0.041 A 
ATOM     35  C   UNL     1      -3.684   2.413   1.325  0.00  0.00    +0.021 A 
ATOM     36  C   UNL     1      -2.533   1.695   1.080  0.00  0.00    +0.014 A 
ATOM     37 CL   UNL     1      -5.073   4.679   1.842  0.00  0.00    -0.084 Cl
ENDBRANCH  28  31
ENDBRANCH  26  27
ENDBRANCH  25  26
ENDBRANCH  24  25
ENDBRANCH   2  24
TORSDOF 12
