REMARK  Name = ZINC36504387
REMARK  12 active torsions:
REMARK  status: ('A' for Active; 'I' for Inactive)
REMARK    1  A    between atoms: C_1  and  C_2
REMARK    2  A    between atoms: C_2  and  C_3
REMARK    3  A    between atoms: C_2  and  C_4
REMARK    4  A    between atoms: C_2  and  N_5
REMARK    5  A    between atoms: C_6  and  C_8
REMARK    6  A    between atoms: C_8  and  C_10
REMARK    7  A    between atoms: C_8  and  N_18
REMARK    8  A    between atoms: N_18  and  C_19
REMARK    9  A    between atoms: C_19  and  C_20
REMARK   10  A    between atoms: C_25  and  C_27
REMARK   11  A    between atoms: C_27  and  N_28
REMARK   12  A    between atoms: C_29  and  C_31
REMARK                            x       y       z     vdW  Elec       q    Type
REMARK                         _______ _______ _______ _____ _____    ______ ____
ROOT
ATOM      1  N   UNL     1       4.055  -0.341  -2.606  0.00  0.00    -0.277 N 
ATOM      2  C   UNL     1       4.902  -1.334  -2.270  0.00  0.00    +0.234 C 
ATOM      3  O   UNL     1       4.512  -2.482  -2.245  0.00  0.00    -0.274 OA
ENDROOT
BRANCH   1   4
ATOM      4  C   UNL     1       2.662  -0.649  -2.941  0.00  0.00    +0.195 C 
BRANCH   4   5
ATOM      5  C   UNL     1       2.617  -1.434  -4.227  0.00  0.00    +0.018 A 
ATOM      6  C   UNL     1       3.285  -0.969  -5.345  0.00  0.00    +0.048 A 
ATOM      7  C   UNL     1       3.244  -1.691  -6.525  0.00  0.00    +0.020 A 
ATOM      8  C   UNL     1       2.533  -2.875  -6.587  0.00  0.00    +0.003 A 
ATOM      9  C   UNL     1       1.865  -3.340  -5.469  0.00  0.00    +0.020 A 
ATOM     10  C   UNL     1       1.911  -2.622  -4.287  0.00  0.00    +0.048 A 
ATOM     11 CL   UNL     1       1.078  -3.210  -2.882  0.00  0.00    -0.083 Cl
ATOM     12 CL   UNL     1       4.177   0.518  -5.268  0.00  0.00    -0.083 Cl
ENDBRANCH   4   5
BRANCH   4  14
ATOM     13  N   UNL     1       0.869   0.697  -3.986  0.00  0.00    -0.309 N 
ATOM     14  C   UNL     1       1.891   0.635  -3.109  0.00  0.00    +0.239 C 
ATOM     15  O   UNL     1       2.189   1.612  -2.456  0.00  0.00    -0.273 OA
ATOM     16  H   UNL     1       0.629  -0.084  -4.508  0.00  0.00    +0.149 HD
BRANCH  13  18
ATOM     17  C   UNL     1       1.067   3.054  -4.608  0.00  0.00    +0.031 C 
ATOM     18  C   UNL     1       0.118   1.945  -4.149  0.00  0.00    +0.026 C 
ATOM     19  C   UNL     1      -0.516   2.337  -2.813  0.00  0.00    +0.031 C 
ATOM     20  C   UNL     1      -0.979   1.747  -5.196  0.00  0.00    +0.031 C 
ENDBRANCH  13  18
ENDBRANCH   4  14
ENDBRANCH   1   4
BRANCH   1  21
ATOM     21  C   UNL     1       4.526   1.046  -2.635  0.00  0.00    +0.183 C 
BRANCH  21  22
ATOM     22  C   UNL     1       4.516   1.610  -1.238  0.00  0.00    +0.122 A 
ATOM     23  C   UNL     1       5.569   1.663  -0.403  0.00  0.00    +0.046 A 
ATOM     24  C   UNL     1       5.114   2.265   0.793  0.00  0.00    +0.041 A 
ATOM     25  C   UNL     1       3.810   2.544   0.617  0.00  0.00    +0.195 A 
ATOM     26  O   UNL     1       3.454   2.150  -0.617  0.00  0.00    -0.466 OA
ENDBRANCH  21  22
ENDBRANCH   1  21
BRANCH   2  27
ATOM     27  C   UNL     1       6.334  -1.018  -1.925  0.00  0.00    +0.200 C 
BRANCH  27  28
ATOM     28  N   UNL     1       7.043  -2.257  -1.598  0.00  0.00    -0.303 N 
ATOM     29  C   UNL     1       8.346  -2.218  -1.256  0.00  0.00    +0.244 C 
ATOM     30  O   UNL     1       8.934  -1.155  -1.219  0.00  0.00    -0.270 OA
ATOM     31  H   UNL     1       6.575  -3.106  -1.628  0.00  0.00    +0.150 HD
BRANCH  29  32
ATOM     32  C   UNL     1       9.062  -3.470  -0.927  0.00  0.00    +0.037 A 
ATOM     33  C   UNL     1       8.392  -4.693  -0.974  0.00  0.00    +0.013 A 
ATOM     34  C   UNL     1       9.066  -5.857  -0.666  0.00  0.00    +0.001 A 
ATOM     35  C   UNL     1      10.402  -5.813  -0.310  0.00  0.00    +0.000 A 
ATOM     36  C   UNL     1      11.072  -4.603  -0.260  0.00  0.00    +0.001 A 
ATOM     37  C   UNL     1      10.411  -3.433  -0.572  0.00  0.00    +0.013 A 
ENDBRANCH  29  32
ENDBRANCH  27  28
ENDBRANCH   2  27
TORSDOF 9
