REMARK  Name = ZINC35304143
REMARK  16 active torsions:
REMARK  status: ('A' for Active; 'I' for Inactive)
REMARK    1  A    between atoms: C_1  and  C_2
REMARK    2  A    between atoms: C_3  and  C_31
REMARK    3  A    between atoms: C_4  and  C_11
REMARK    4  A    between atoms: N_9  and  C_10
REMARK    5  A    between atoms: C_14  and  N_17
REMARK    6  A    between atoms: N_17  and  S_18
REMARK    7  A    between atoms: S_18  and  C_21
REMARK    8  A    between atoms: C_24  and  C_27
REMARK    9  A    between atoms: C_27  and  C_28
REMARK   10  A    between atoms: C_27  and  C_29
REMARK   11  A    between atoms: C_27  and  C_30
REMARK   12  A    between atoms: C_31  and  O_33
REMARK   13  A    between atoms: O_33  and  C_34
REMARK   14  A    between atoms: C_34  and  C_35
REMARK   15  A    between atoms: C_35  and  C_36
REMARK   16  A    between atoms: C_35  and  C_37
REMARK                            x       y       z     vdW  Elec       q    Type
REMARK                         _______ _______ _______ _____ _____    ______ ____
ROOT
ATOM      1  C   UNL     1      -2.232  -2.271  -1.907  0.00  0.00    -0.022 A 
ATOM      2  C   UNL     1      -1.698  -2.402  -3.176  0.00  0.00    +0.007 A 
ATOM      3  C   UNL     1      -2.517  -2.314  -4.284  0.00  0.00    +0.025 A 
ATOM      4  C   UNL     1      -3.880  -2.094  -4.124  0.00  0.00    +0.048 A 
ATOM      5  C   UNL     1      -4.413  -1.964  -2.848  0.00  0.00    +0.025 A 
ATOM      6  C   UNL     1      -3.589  -2.058  -1.743  0.00  0.00    +0.007 A 
ENDROOT
BRANCH   1  10
ATOM      7  C   UNL     1       1.476   0.253  -0.398  0.00  0.00    +0.061 C 
ATOM      8  C   UNL     1       0.728  -1.046  -0.554  0.00  0.00    +0.021 C 
ATOM      9  C   UNL     1      -0.623  -1.040  -0.540  0.00  0.00    +0.078 C 
ATOM     10  C   UNL     1      -1.335  -2.368  -0.700  0.00  0.00    +0.141 C 
ATOM     11  N   UNL     1      -0.490  -3.563  -0.858  0.00  0.00    -0.315 N 
ATOM     12  C   UNL     1       0.849  -3.408  -0.851  0.00  0.00    +0.137 C 
ATOM     13  S   UNL     1       1.844  -4.789  -1.033  0.00  0.00    -0.018 S 
ATOM     14  N   UNL     1       1.426  -2.208  -0.711  0.00  0.00    -0.289 N 
ATOM     15  C   UNL     1       2.889  -2.139  -0.722  0.00  0.00    +0.137 C 
ATOM     16  H   UNL     1      -0.887  -4.442  -0.964  0.00  0.00    +0.149 HD
BRANCH   9  17
ATOM     17  C   UNL     1      -1.347   0.164  -0.382  0.00  0.00    +0.339 C 
ATOM     18  O   UNL     1      -2.558   0.135  -0.264  0.00  0.00    -0.245 OA
BRANCH  17  19
ATOM     19  O   UNL     1      -0.696   1.346  -0.362  0.00  0.00    -0.461 OA
BRANCH  19  20
ATOM     20  C   UNL     1      -1.477   2.513  -0.096  0.00  0.00    +0.235 C 
BRANCH  20  21
ATOM     21  C   UNL     1      -0.599   3.757  -0.237  0.00  0.00    +0.020 C 
ATOM     22  C   UNL     1      -1.463   5.011  -0.088  0.00  0.00    +0.010 C 
ATOM     23  C   UNL     1       0.477   3.748   0.851  0.00  0.00    +0.010 C 
ENDBRANCH  20  21
ENDBRANCH  19  20
ENDBRANCH  17  19
ENDBRANCH   9  17
ENDBRANCH   1  10
BRANCH   4  24
ATOM     24  N   UNL     1      -4.711  -2.005  -5.242  0.00  0.00    -0.216 N 
ATOM     25  H   UNL     1      -4.445  -1.463  -6.002  0.00  0.00    +0.174 HD
BRANCH  24  26
ATOM     26  S   UNL     1      -6.151  -2.822  -5.272  0.00  0.00    +0.072 S 
ATOM     27  O   UNL     1      -6.832  -2.489  -4.070  0.00  0.00    -0.150 OA
ATOM     28  O   UNL     1      -6.718  -2.599  -6.555  0.00  0.00    -0.150 OA
BRANCH  26  29
ATOM     29  C   UNL     1      -5.776  -4.541  -5.178  0.00  0.00    +0.109 A 
ATOM     30  C   UNL     1      -5.459  -5.243  -6.326  0.00  0.00    +0.029 A 
ATOM     31  C   UNL     1      -5.165  -6.592  -6.253  0.00  0.00    +0.006 A 
ATOM     32  C   UNL     1      -5.187  -7.239  -5.031  0.00  0.00    -0.042 A 
ATOM     33  C   UNL     1      -5.503  -6.536  -3.883  0.00  0.00    +0.006 A 
ATOM     34  C   UNL     1      -5.793  -5.187  -3.956  0.00  0.00    +0.029 A 
BRANCH  32  35
ATOM     35  C   UNL     1      -4.867  -8.709  -4.951  0.00  0.00    -0.013 C 
ATOM     36  C   UNL     1      -3.450  -8.952  -5.473  0.00  0.00    +0.015 C 
ATOM     37  C   UNL     1      -4.962  -9.173  -3.497  0.00  0.00    +0.015 C 
ATOM     38  C   UNL     1      -5.866  -9.495  -5.803  0.00  0.00    +0.015 C 
ENDBRANCH  32  35
ENDBRANCH  26  29
ENDBRANCH  24  26
ENDBRANCH   4  24
TORSDOF 9
