REMARK  Name = ZINC14584121
REMARK  14 active torsions:
REMARK  status: ('A' for Active; 'I' for Inactive)
REMARK    1  A    between atoms: C_1  and  C_2
REMARK    2  A    between atoms: C_2  and  N_3
REMARK    3  A    between atoms: N_3  and  C_4
REMARK    4  A    between atoms: C_5  and  N_20
REMARK    5  A    between atoms: N_6  and  C_13
REMARK    6  A    between atoms: C_13  and  C_14
REMARK    7  A    between atoms: C_21  and  C_23
REMARK    8  A    between atoms: C_23  and  C_24
REMARK    9  A    between atoms: C_24  and  N_25
REMARK   10  A    between atoms: C_26  and  C_28
REMARK   11  A    between atoms: C_31  and  C_34
REMARK   12  A    between atoms: C_34  and  C_35
REMARK   13  A    between atoms: C_34  and  C_36
REMARK   14  A    between atoms: C_34  and  C_37
REMARK                            x       y       z     vdW  Elec       q    Type
REMARK                         _______ _______ _______ _____ _____    ______ ____
ROOT
ATOM      1  N   UNL     1       6.003   2.074  -0.099  0.00  0.00    -0.264 N 
ATOM      2  C   UNL     1       4.889   1.336  -0.287  0.00  0.00    +0.221 C 
ATOM      3  O   UNL     1       4.980   0.144  -0.496  0.00  0.00    -0.275 OA
ENDROOT
BRANCH   1   4
ATOM      4  C   UNL     1       7.266   1.447  -0.048  0.00  0.00    +0.140 A 
ATOM      5  C   UNL     1       7.561   0.544   0.953  0.00  0.00    +0.128 A 
ATOM      6  N   UNL     1       8.799  -0.055   0.973  0.00  0.00    -0.276 N 
ATOM      7  C   UNL     1       9.715   0.244   0.034  0.00  0.00    +0.331 A 
ATOM      8  O   UNL     1      10.806  -0.292   0.073  0.00  0.00    -0.246 OA
ATOM      9  N   UNL     1       9.447   1.124  -0.946  0.00  0.00    -0.273 N 
ATOM     10  H   UNL     1      10.145   1.328  -1.632  0.00  0.00    +0.173 HD
ATOM     11  C   UNL     1       8.248   1.735  -1.014  0.00  0.00    +0.277 A 
ATOM     12  O   UNL     1       8.015   2.532  -1.908  0.00  0.00    -0.266 OA
BRANCH   5  13
ATOM     13  N   UNL     1       6.627   0.244   1.915  0.00  0.00    -0.343 N 
ATOM     14  H   UNL     1       5.797   0.744   1.959  0.00  0.00    +0.144 HD
ATOM     15  H   UNL     1       6.798  -0.468   2.551  0.00  0.00    +0.144 HD
ENDBRANCH   5  13
BRANCH   6  16
ATOM     16  C   UNL     1       9.124  -1.018   2.028  0.00  0.00    +0.163 C 
BRANCH  16  17
ATOM     17  C   UNL     1       9.726  -0.292   3.203  0.00  0.00    -0.028 A 
ATOM     18  C   UNL     1      11.095  -0.110   3.276  0.00  0.00    +0.005 A 
ATOM     19  C   UNL     1      11.647   0.560   4.351  0.00  0.00    +0.000 A 
ATOM     20  C   UNL     1      10.831   1.038   5.360  0.00  0.00    +0.000 A 
ATOM     21  C   UNL     1       9.463   0.851   5.290  0.00  0.00    +0.000 A 
ATOM     22  C   UNL     1       8.911   0.186   4.212  0.00  0.00    +0.005 A 
ENDBRANCH  16  17
ENDBRANCH   6  16
ENDBRANCH   1   4
BRANCH   1  24
ATOM     23  C   UNL     1       5.772   3.878   1.536  0.00  0.00    +0.025 C 
ATOM     24  C   UNL     1       5.901   3.528   0.052  0.00  0.00    +0.110 C 
ENDBRANCH   1  24
BRANCH   2  25
ATOM     25  C   UNL     1       3.533   1.991  -0.238  0.00  0.00    +0.115 C 
BRANCH  25  26
ATOM     26  C   UNL     1       2.449   0.939  -0.481  0.00  0.00    +0.113 C 
BRANCH  26  27
ATOM     27  N   UNL     1       1.131   1.576  -0.433  0.00  0.00    -0.311 N 
ATOM     28  C   UNL     1       0.019   0.838  -0.621  0.00  0.00    +0.244 C 
ATOM     29  O   UNL     1       0.110  -0.356  -0.830  0.00  0.00    -0.270 OA
ATOM     30  H   UNL     1       1.059   2.529  -0.267  0.00  0.00    +0.149 HD
BRANCH  28  31
ATOM     31  C   UNL     1      -1.311   1.482  -0.579  0.00  0.00    +0.037 A 
ATOM     32  C   UNL     1      -1.419   2.852  -0.334  0.00  0.00    +0.013 A 
ATOM     33  C   UNL     1      -2.663   3.447  -0.300  0.00  0.00    +0.005 A 
ATOM     34  C   UNL     1      -3.803   2.688  -0.499  0.00  0.00    -0.042 A 
ATOM     35  C   UNL     1      -3.703   1.329  -0.738  0.00  0.00    +0.005 A 
ATOM     36  C   UNL     1      -2.465   0.722  -0.779  0.00  0.00    +0.013 A 
BRANCH  34  37
ATOM     37  C   UNL     1      -5.159   3.344  -0.456  0.00  0.00    -0.013 C 
ATOM     38  C   UNL     1      -5.997   2.709   0.655  0.00  0.00    +0.015 C 
ATOM     39  C   UNL     1      -4.993   4.840  -0.178  0.00  0.00    +0.015 C 
ATOM     40  C   UNL     1      -5.862   3.151  -1.800  0.00  0.00    +0.015 C 
ENDBRANCH  34  37
ENDBRANCH  28  31
ENDBRANCH  26  27
ENDBRANCH  25  26
ENDBRANCH   2  25
TORSDOF 10
