REMARK  Name = ZINC39653858
REMARK  9 active torsions:
REMARK  status: ('A' for Active; 'I' for Inactive)
REMARK    1  A    between atoms: C_1  and  C_2
REMARK    2  A    between atoms: C_2  and  O_3
REMARK    3  A    between atoms: O_3  and  C_4
REMARK    4  A    between atoms: C_7  and  C_10
REMARK    5  A    between atoms: C_10  and  C_11
REMARK    6  A    between atoms: C_11  and  N_12
REMARK    7  A    between atoms: C_13  and  C_15
REMARK    8  A    between atoms: C_26  and  C_28
REMARK    9  A    between atoms: C_32  and  C_34
REMARK                            x       y       z     vdW  Elec       q    Type
REMARK                         _______ _______ _______ _____ _____    ______ ____
ROOT
ATOM      1  C   UNL     1      -0.690  -9.747  -4.176  0.00  0.00    +0.100 C 
ATOM      2  C   UNL     1       0.530 -10.364  -4.896  0.00  0.00    +0.121 C 
ATOM      3  N   UNL     1      -0.016 -11.537  -5.619  0.00  0.00    -0.296 N 
ATOM      4  C   UNL     1      -1.329 -11.077  -6.130  0.00  0.00    +0.115 C 
ATOM      5  C   UNL     1      -1.908 -10.217  -4.989  0.00  0.00    -0.004 C 
ATOM      6  C   UNL     1      -2.656  -9.016  -5.562  0.00  0.00    -0.010 C 
ATOM      7  C   UNL     1      -3.895  -9.505  -6.317  0.00  0.00    -0.082 C 
ATOM      8  N   UNL     1      -4.763 -10.257  -5.403  0.00  0.00    +0.379 N 
ATOM      9  C   UNL     1      -4.068 -11.460  -4.929  0.00  0.00    -0.082 C 
ATOM     10  C   UNL     1      -2.836 -11.054  -4.115  0.00  0.00    -0.010 C 
ATOM     11  C   UNL     1       0.553 -12.749  -5.775  0.00  0.00    +0.247 C 
ATOM     12  O   UNL     1       1.581 -13.018  -5.186  0.00  0.00    -0.270 OA
ATOM     13  H   UNL     1      -5.001  -9.675  -4.613  0.00  0.00    -0.086 HD
ATOM     14  H   UNL     1      -5.606 -10.526  -5.886  0.00  0.00    -0.086 HD
ENDROOT
BRANCH  11  15
ATOM     15  C   UNL     1      -0.073 -13.750  -6.664  0.00  0.00    +0.037 A 
ATOM     16  C   UNL     1      -0.970 -13.345  -7.654  0.00  0.00    +0.014 A 
ATOM     17  C   UNL     1      -1.551 -14.284  -8.480  0.00  0.00    +0.016 A 
ATOM     18  C   UNL     1      -1.247 -15.626  -8.329  0.00  0.00    +0.021 A 
ATOM     19  C   UNL     1      -0.359 -16.034  -7.348  0.00  0.00    -0.036 A 
ATOM     20  C   UNL     1       0.234 -15.104  -6.520  0.00  0.00    +0.017 A 
ATOM     21  C   UNL     1      -0.034 -17.497  -7.190  0.00  0.00    +0.045 C 
ATOM     22 BR   UNL     1      -2.050 -16.907  -9.465  0.00  0.00    -0.050 Br
ENDBRANCH  11  15
BRANCH   1  24
ATOM     23  N   UNL     1      -1.142  -7.528  -3.180  0.00  0.00    -0.315 N 
ATOM     24  C   UNL     1      -0.600  -8.243  -4.186  0.00  0.00    +0.218 C 
ATOM     25  O   UNL     1      -0.040  -7.675  -5.100  0.00  0.00    -0.275 OA
ATOM     26  H   UNL     1      -1.590  -7.982  -2.449  0.00  0.00    +0.149 HD
BRANCH  23  27
ATOM     27  C   UNL     1      -1.055  -6.066  -3.190  0.00  0.00    +0.109 C 
BRANCH  27  28
ATOM     28  C   UNL     1      -1.744  -5.505  -1.945  0.00  0.00    +0.054 C 
BRANCH  28  32
ATOM     29  C   UNL     1      -1.490  -1.240  -1.974  0.00  0.00    +0.121 A 
ATOM     30  C   UNL     1      -2.569  -1.875  -2.570  0.00  0.00    +0.046 A 
ATOM     31  C   UNL     1      -2.649  -3.254  -2.559  0.00  0.00    +0.007 A 
ATOM     32  C   UNL     1      -1.654  -4.001  -1.955  0.00  0.00    -0.046 A 
ATOM     33  C   UNL     1      -0.577  -3.370  -1.361  0.00  0.00    +0.007 A 
ATOM     34  C   UNL     1      -0.490  -1.991  -1.374  0.00  0.00    +0.046 A 
BRANCH  29  35
ATOM     35  O   UNL     1      -1.409   0.117  -1.984  0.00  0.00    -0.492 OA
BRANCH  35  37
ATOM     36  C   UNL     1      -2.209   2.330  -2.531  0.00  0.00    +0.048 C 
ATOM     37  C   UNL     1      -2.474   0.826  -2.620  0.00  0.00    +0.225 C 
ENDBRANCH  35  37
ENDBRANCH  29  35
ENDBRANCH  28  32
ENDBRANCH  27  28
ENDBRANCH  23  27
ENDBRANCH   1  24
TORSDOF 7
