REMARK  Name = ZINC64667299
REMARK  3 active torsions:
REMARK  status: ('A' for Active; 'I' for Inactive)
REMARK    1  A    between atoms: C_1  and  C_2
REMARK    2  A    between atoms: C_5  and  N_8
REMARK    3  A    between atoms: C_13  and  C_19
REMARK                            x       y       z     vdW  Elec       q    Type
REMARK                         _______ _______ _______ _____ _____    ______ ____
ROOT
ATOM      1  N   UNL     1       0.059  -4.172  -0.021  0.00  0.00    -0.218 N 
ATOM      2  C   UNL     1       0.694  -4.965   0.866  0.00  0.00    +0.132 A 
ATOM      3  C   UNL     1       0.463  -6.265   0.500  0.00  0.00    +0.020 A 
ATOM      4  C   UNL     1      -0.334  -6.254  -0.635  0.00  0.00    +0.141 A 
ATOM      5  N   UNL     1      -0.586  -5.005  -0.951  0.00  0.00    -0.173 NA
ATOM      6  C   UNL     1       1.030  -7.430   1.270  0.00  0.00    +0.063 C 
ATOM      7  C   UNL     1       2.340  -6.983   1.924  0.00  0.00    +0.109 C 
ATOM      8  C   UNL     1       2.209  -5.621   2.543  0.00  0.00    +0.219 C 
ATOM      9  O   UNL     1       2.791  -5.391   3.582  0.00  0.00    -0.275 OA
ATOM     10  N   UNL     1       1.465  -4.643   1.983  0.00  0.00    -0.270 N 
ATOM     11  H   UNL     1       1.467  -3.743   2.346  0.00  0.00    +0.156 HD
ENDROOT
BRANCH   1  16
ATOM     12  C   UNL     1      -0.018   1.503   0.010  0.00  0.00    +0.044 C 
ATOM     13  C   UNL     1       0.002  -0.004   0.002  0.00  0.00    -0.050 A 
ATOM     14  C   UNL     1       0.006  -0.688  -1.200  0.00  0.00    +0.005 A 
ATOM     15  C   UNL     1       0.025  -2.068  -1.211  0.00  0.00    +0.028 A 
ATOM     16  C   UNL     1       0.040  -2.771  -0.013  0.00  0.00    +0.067 A 
ATOM     17  C   UNL     1       0.037  -2.082   1.192  0.00  0.00    +0.028 A 
ATOM     18  C   UNL     1       0.023  -0.700   1.196  0.00  0.00    +0.005 A 
ENDBRANCH   1  16
BRANCH   6  19
ATOM     19  C   UNL     1       0.052  -7.861   2.332  0.00  0.00    -0.039 A 
ATOM     20  C   UNL     1      -0.340  -6.969   3.313  0.00  0.00    +0.005 A 
ATOM     21  C   UNL     1      -1.237  -7.364   4.288  0.00  0.00    +0.020 A 
ATOM     22  C   UNL     1      -1.743  -8.651   4.281  0.00  0.00    +0.041 A 
ATOM     23  C   UNL     1      -1.350  -9.543   3.299  0.00  0.00    +0.020 A 
ATOM     24  C   UNL     1      -0.458  -9.146   2.322  0.00  0.00    +0.005 A 
ATOM     25 CL   UNL     1      -2.869  -9.148   5.506  0.00  0.00    -0.084 Cl
ENDBRANCH   6  19
TORSDOF 2
