REMARK  Name = ZINC64705014
REMARK  13 active torsions:
REMARK  status: ('A' for Active; 'I' for Inactive)
REMARK    1  A    between atoms: C_1  and  C_2
REMARK    2  A    between atoms: C_4  and  C_10
REMARK    3  A    between atoms: C_5  and  N_8
REMARK    4  A    between atoms: N_8  and  C_9
REMARK    5  A    between atoms: C_10  and  O_12
REMARK    6  A    between atoms: O_12  and  C_13
REMARK    7  A    between atoms: C_13  and  C_14
REMARK    8  A    between atoms: N_16  and  C_17
REMARK    9  A    between atoms: C_17  and  C_19
REMARK   10  A    between atoms: C_17  and  C_29
REMARK   11  A    between atoms: C_19  and  C_20
REMARK   12  A    between atoms: C_29  and  O_31
REMARK   13  A    between atoms: O_31  and  C_32
REMARK                            x       y       z     vdW  Elec       q    Type
REMARK                         _______ _______ _______ _____ _____    ______ ____
ROOT
ATOM      1  C   UNL     1      -1.679   3.105  -3.556  0.00  0.00    +0.251 C 
ATOM      2  O   UNL     1      -1.989   3.444  -2.433  0.00  0.00    -0.272 OA
ATOM      3  N   UNL     1      -2.086   3.831  -4.615  0.00  0.00    -0.299 N 
ATOM      4  H   UNL     1      -1.838   3.560  -5.513  0.00  0.00    +0.150 HD
ENDROOT
BRANCH   1   5
ATOM      5  C   UNL     1      -0.839   1.872  -3.765  0.00  0.00    +0.328 C 
BRANCH   5   6
ATOM      6  O   UNL     1      -0.537   1.280  -2.500  0.00  0.00    -0.452 OA
BRANCH   6   7
ATOM      7  C   UNL     1       0.214   0.157  -2.511  0.00  0.00    +0.339 C 
ATOM      8  O   UNL     1       0.603  -0.306  -3.570  0.00  0.00    -0.245 OA
BRANCH   7  11
ATOM      9  C   UNL     1       0.442   1.642  -0.056  0.00  0.00    +0.030 C 
ATOM     10  C   UNL     1       0.209   0.132   0.016  0.00  0.00    +0.101 C 
ATOM     11  C   UNL     1       0.547  -0.474  -1.308  0.00  0.00    +0.082 C 
ATOM     12  C   UNL     1       1.204  -1.689  -1.284  0.00  0.00    +0.088 C 
ATOM     13  S   UNL     1       1.416  -2.044   0.451  0.00  0.00    -0.027 S 
ATOM     14  N   UNL     1       1.031  -0.430   1.117  0.00  0.00    -0.251 NA
ATOM     15  H   UNL     1       1.869   0.114   1.256  0.00  0.00    +0.136 HD
BRANCH  12  16
ATOM     16  N   UNL     1       1.603  -2.451  -2.353  0.00  0.00    -0.340 N 
ATOM     17  C   UNL     1       2.294  -3.723  -2.128  0.00  0.00    +0.126 C 
ATOM     18  H   UNL     1       1.428  -2.147  -3.257  0.00  0.00    +0.146 HD
ENDBRANCH  12  16
ENDBRANCH   7  11
ENDBRANCH   6   7
ENDBRANCH   5   6
ENDBRANCH   1   5
BRANCH   3  19
ATOM     19  C   UNL     1      -2.902   5.030  -4.412  0.00  0.00    +0.186 C 
BRANCH  19  20
ATOM     20  C   UNL     1      -4.354   4.638  -4.306  0.00  0.00    +0.328 C 
ATOM     21  O   UNL     1      -4.673   3.476  -4.393  0.00  0.00    -0.249 OA
BRANCH  20  22
ATOM     22  O   UNL     1      -5.292   5.579  -4.117  0.00  0.00    -0.467 OA
ATOM     23  C   UNL     1      -6.647   5.136  -4.027  0.00  0.00    +0.280 C 
ENDBRANCH  20  22
ENDBRANCH  19  20
BRANCH  19  24
ATOM     24  C   UNL     1      -2.716   5.982  -5.595  0.00  0.00    +0.067 C 
BRANCH  24  25
ATOM     25  C   UNL     1      -1.291   6.471  -5.627  0.00  0.00    -0.039 C 
ATOM     26  C   UNL     1      -0.271   5.957  -6.351  0.00  0.00    -0.001 A 
ATOM     27  C   UNL     1      -0.186   4.831  -7.289  0.00  0.00    +0.010 A 
ATOM     28  C   UNL     1       1.002   4.552  -7.873  0.00  0.00    +0.001 A 
ATOM     29  C   UNL     1       2.151   5.309  -7.604  0.00  0.00    +0.002 A 
ATOM     30  C   UNL     1       2.152   6.357  -6.754  0.00  0.00    +0.026 A 
ATOM     31  C   UNL     1       0.957   6.740  -6.085  0.00  0.00    +0.043 A 
ATOM     32  N   UNL     1       0.705   7.701  -5.229  0.00  0.00    -0.380 N 
ATOM     33  C   UNL     1      -0.714   7.640  -4.860  0.00  0.00    +0.144 C 
ATOM     34  H   UNL     1       1.349   8.348  -4.899  0.00  0.00    +0.160 HD
ENDBRANCH  24  25
ENDBRANCH  19  24
ENDBRANCH   3  19
TORSDOF 10
