REMARK  Name = ZINC24912149
REMARK  3 active torsions:
REMARK  status: ('A' for Active; 'I' for Inactive)
REMARK    1  A    between atoms: C_4  and  N_7
REMARK    2  A    between atoms: N_15  and  C_18
REMARK    3  A    between atoms: N_24  and  C_25
REMARK                            x       y       z     vdW  Elec       q    Type
REMARK                         _______ _______ _______ _____ _____    ______ ____
ROOT
ATOM      1  N   UNL     1      -2.517   0.966   0.184  0.00  0.00    -0.300 N 
ATOM      2  C   UNL     1      -2.770   0.277  -1.103  0.00  0.00    +0.214 C 
ATOM      3  N   UNL     1      -4.222   0.324  -1.314  0.00  0.00    -0.298 N 
ATOM      4  C   UNL     1      -4.765   1.269  -0.517  0.00  0.00    +0.238 C 
ATOM      5  O   UNL     1      -5.940   1.562  -0.463  0.00  0.00    -0.273 OA
ATOM      6  C   UNL     1      -3.659   1.898   0.294  0.00  0.00    +0.109 C 
ATOM      7  C   UNL     1      -3.283   3.260  -0.282  0.00  0.00    +0.017 C 
ATOM      8  C   UNL     1      -4.464   4.222  -0.119  0.00  0.00    -0.076 C 
ATOM      9  N   UNL     1      -4.811   4.333   1.303  0.00  0.00    +0.384 N 
ATOM     10  C   UNL     1      -5.238   3.039   1.851  0.00  0.00    -0.076 C 
ATOM     11  C   UNL     1      -4.083   2.038   1.754  0.00  0.00    +0.017 C 
ATOM     12  H   UNL     1      -4.695  -0.356  -2.038  0.00  0.00    +0.150 HD
ATOM     13  H   UNL     1      -3.905   4.643   1.845  0.00  0.00    -0.081 HD
ENDROOT
BRANCH   9  14
ATOM     14  C   UNL     1      -5.841   5.359   1.515  0.00  0.00    -0.033 C 
ATOM     15  C   UNL     1      -6.884   5.434   0.385  0.00  0.00    +0.095 C 
ATOM     16  N   UNL     1      -6.767   6.899   0.509  0.00  0.00    -0.288 N 
ATOM     17  C   UNL     1      -5.410   6.770   1.073  0.00  0.00    +0.095 C 
ATOM     18  C   UNL     1      -7.576   7.939   0.223  0.00  0.00    +0.306 C 
ATOM     19  O   UNL     1      -7.204   9.076   0.438  0.00  0.00    -0.252 OA
ATOM     20  N   UNL     1      -8.797   7.718  -0.302  0.00  0.00    -0.269 N 
ATOM     21  H   UNL     1      -9.158   6.688  -0.442  0.00  0.00    +0.156 HD
BRANCH  20  22
ATOM     22  C   UNL     1      -9.606   8.796  -0.667  0.00  0.00    +0.042 A 
ATOM     23  C   UNL     1      -9.452  10.020  -0.053  0.00  0.00    +0.024 A 
ATOM     24  C   UNL     1     -10.253  11.101  -0.410  0.00  0.00    +0.002 A 
ATOM     25  C   UNL     1     -11.207  10.981  -1.373  0.00  0.00    +0.008 A 
ATOM     26  C   UNL     1     -11.396   9.750  -2.024  0.00  0.00    -0.016 A 
ATOM     27  C   UNL     1     -10.584   8.644  -1.673  0.00  0.00    +0.003 A 
ATOM     28  C   UNL     1     -10.777   7.413  -2.321  0.00  0.00    +0.010 A 
ATOM     29  C   UNL     1     -11.733   7.301  -3.283  0.00  0.00    +0.001 A 
ATOM     30  C   UNL     1     -12.529   8.390  -3.633  0.00  0.00    +0.001 A 
ATOM     31  C   UNL     1     -12.373   9.597  -3.023  0.00  0.00    +0.008 A 
ENDBRANCH  20  22
ENDBRANCH   9  14
BRANCH   1  35
ATOM     32  C   UNL     1       1.091   3.042   0.081  0.00  0.00    +0.000 A 
ATOM     33  C   UNL     1       0.764   2.175  -0.945  0.00  0.00    +0.002 A 
ATOM     34  C   UNL     1      -0.430   1.482  -0.913  0.00  0.00    +0.023 A 
ATOM     35  C   UNL     1      -1.306   1.661   0.150  0.00  0.00    +0.032 A 
ATOM     36  C   UNL     1      -0.973   2.529   1.183  0.00  0.00    +0.023 A 
ATOM     37  C   UNL     1       0.224   3.219   1.144  0.00  0.00    +0.002 A 
ENDBRANCH   1  35
TORSDOF 3
