REMARK  Name = ZINC03640516
REMARK  13 active torsions:
REMARK  status: ('A' for Active; 'I' for Inactive)
REMARK    1  A    between atoms: C_1  and  C_2
REMARK    2  A    between atoms: C_2  and  N_3
REMARK    3  A    between atoms: N_3  and  C_4
REMARK    4  A    between atoms: C_4  and  C_5
REMARK    5  A    between atoms: C_6  and  O_8
REMARK    6  A    between atoms: O_8  and  C_9
REMARK    7  A    between atoms: C_12  and  C_15
REMARK    8  A    between atoms: N_16  and  N_17
REMARK    9  A    between atoms: C_18  and  C_20
REMARK   10  A    between atoms: C_21  and  C_31
REMARK   11  A    between atoms: C_31  and  N_32
REMARK   12  A    between atoms: N_32  and  C_33
REMARK   13  A    between atoms: N_32  and  C_34
REMARK                            x       y       z     vdW  Elec       q    Type
REMARK                         _______ _______ _______ _____ _____    ______ ____
ROOT
ATOM      1  N   UNL     1       2.492   7.702   0.012  0.00  0.00    -0.202 N 
ATOM      2  C   UNL     1       1.212   7.293  -0.096  0.00  0.00    +0.285 C 
ATOM      3  O   UNL     1       0.318   8.113  -0.190  0.00  0.00    -0.267 OA
ATOM      4  H   UNL     1       3.300   6.961   0.097  0.00  0.00    +0.178 HD
ENDROOT
BRANCH   2   5
ATOM      5  C   UNL     1       0.895   5.853  -0.101  0.00  0.00    +0.170 A 
ATOM      6  C   UNL     1      -0.354   5.310  -0.209  0.00  0.00    +0.063 A 
ATOM      7  N   UNL     1      -0.201   3.968  -0.168  0.00  0.00    -0.194 N 
ATOM      8  N   UNL     1       1.173   3.721  -0.041  0.00  0.00    -0.058 NA
ATOM      9  N   UNL     1       1.788   4.852  -0.005  0.00  0.00    -0.124 NA
ATOM     10  C   UNL     1      -1.218   3.010  -0.243  0.00  0.00    +0.240 A 
ATOM     11  C   UNL     1      -1.031   1.556  -0.201  0.00  0.00    +0.206 A 
ATOM     12  N   UNL     1      -2.203   0.990  -0.291  0.00  0.00    -0.032 NA
ATOM     13  O   UNL     1      -3.174   2.016  -0.397  0.00  0.00    -0.239 OA
ATOM     14  N   UNL     1      -2.491   3.257  -0.365  0.00  0.00    -0.027 NA
ATOM     15  N   UNL     1       0.186   0.895  -0.082  0.00  0.00    -0.337 N 
ATOM     16  H   UNL     1       0.214  -0.205  -0.061  0.00  0.00    +0.144 HD
ATOM     17  H   UNL     1       1.120   1.471  -0.008  0.00  0.00    +0.144 HD
BRANCH   6  18
ATOM     18  C   UNL     1      -1.652   6.063  -0.346  0.00  0.00    -0.021 C 
BRANCH  18  19
ATOM     19  N   UNL     1      -2.203   6.336   0.988  0.00  0.00    +0.380 N 
ATOM     20  C   UNL     1      -1.340   7.261   1.735  0.00  0.00    -0.096 C 
ATOM     21  C   UNL     1      -3.574   6.855   0.895  0.00  0.00    -0.096 C 
ATOM     22  H   UNL     1      -2.238   5.385   1.540  0.00  0.00    -0.082 HD
ENDBRANCH  18  19
ENDBRANCH   6  18
ENDBRANCH   2   5
BRANCH   1  24
ATOM     23  C   UNL     1       4.025   9.463   0.120  0.00  0.00    +0.138 C 
ATOM     24  N   UNL     1       2.792   9.070   0.016  0.00  0.00    -0.187 NA
BRANCH  23  28
ATOM     25  C   UNL     1       4.936  13.610   0.132  0.00  0.00    +0.133 A 
ATOM     26  C   UNL     1       5.959  12.676   0.240  0.00  0.00    +0.047 A 
ATOM     27  C   UNL     1       5.668  11.329   0.236  0.00  0.00    +0.013 A 
ATOM     28  C   UNL     1       4.341  10.903   0.124  0.00  0.00    -0.005 A 
ATOM     29  C   UNL     1       3.316  11.847   0.011  0.00  0.00    +0.013 A 
ATOM     30  C   UNL     1       3.617  13.191   0.020  0.00  0.00    +0.047 A 
BRANCH  25  31
ATOM     31  O   UNL     1       5.228  14.937   0.136  0.00  0.00    -0.411 OA
BRANCH  31  33
ATOM     32  N   UNL     1       6.284  16.706  -0.960  0.00  0.00    -0.268 N 
ATOM     33  C   UNL     1       5.859  15.428  -0.948  0.00  0.00    +0.408 C 
ATOM     34  O   UNL     1       6.045  14.717  -1.916  0.00  0.00    -0.226 OA
BRANCH  32  36
ATOM     35  C   UNL     1       5.943  17.842  -3.099  0.00  0.00    +0.024 C 
ATOM     36  C   UNL     1       6.971  17.240  -2.139  0.00  0.00    +0.108 C 
ENDBRANCH  32  36
BRANCH  32  37
ATOM     37  C   UNL     1       6.060  17.563   0.207  0.00  0.00    +0.108 C 
ATOM     38  C   UNL     1       7.249  17.445   1.163  0.00  0.00    +0.024 C 
ENDBRANCH  32  37
ENDBRANCH  31  33
ENDBRANCH  25  31
ENDBRANCH  23  28
ENDBRANCH   1  24
TORSDOF 9
