REMARK  Name = ZINC64986412
REMARK  8 active torsions:
REMARK  status: ('A' for Active; 'I' for Inactive)
REMARK    1  A    between atoms: C_1  and  C_2
REMARK    2  A    between atoms: C_9  and  C_24
REMARK    3  A    between atoms: N_12  and  S_13
REMARK    4  A    between atoms: S_13  and  C_16
REMARK    5  A    between atoms: C_19  and  O_22
REMARK    6  A    between atoms: O_22  and  C_23
REMARK    7  A    between atoms: N_26  and  C_27
REMARK    8  A    between atoms: C_32  and  C_33
REMARK                            x       y       z     vdW  Elec       q    Type
REMARK                         _______ _______ _______ _____ _____    ______ ____
ROOT
ATOM      1  C   UNL     1       0.015   1.489  -0.013  0.00  0.00    +0.044 C 
ATOM      2  C   UNL     1       0.035  -0.018  -0.016  0.00  0.00    -0.047 A 
ATOM      3  C   UNL     1       0.046  -0.704  -1.216  0.00  0.00    +0.005 A 
ATOM      4  C   UNL     1       0.063  -2.086  -1.224  0.00  0.00    +0.029 A 
ATOM      5  C   UNL     1       0.068  -2.783  -0.026  0.00  0.00    +0.093 A 
ATOM      6  C   UNL     1       0.059  -2.095   1.184  0.00  0.00    +0.144 A 
ATOM      7  C   UNL     1       0.046  -0.708   1.182  0.00  0.00    +0.051 A 
ATOM      8  O   UNL     1       0.073  -2.766   2.366  0.00  0.00    -0.476 OA
ATOM      9  C   UNL     1      -0.343  -4.133   2.361  0.00  0.00    +0.278 C 
ATOM     10  C   UNL     1       0.398  -4.871   1.237  0.00  0.00    +0.186 C 
ATOM     11  N   UNL     1       0.081  -4.187  -0.029  0.00  0.00    -0.195 N 
ENDROOT
BRANCH   9  12
ATOM     12  C   UNL     1      -0.012  -4.767   3.688  0.00  0.00    +0.260 C 
ATOM     13  O   UNL     1       0.607  -4.141   4.521  0.00  0.00    -0.271 OA
ATOM     14  N   UNL     1      -0.405  -6.030   3.948  0.00  0.00    -0.282 N 
ATOM     15  H   UNL     1      -0.968  -6.502   3.316  0.00  0.00    +0.155 HD
BRANCH  14  16
ATOM     16  C   UNL     1      -0.000  -6.658   5.131  0.00  0.00    +0.038 A 
ATOM     17  C   UNL     1       1.161  -6.250   5.774  0.00  0.00    +0.043 A 
ATOM     18  C   UNL     1       1.558  -6.873   6.942  0.00  0.00    +0.043 A 
ATOM     19  C   UNL     1       0.798  -7.903   7.471  0.00  0.00    +0.020 A 
ATOM     20  C   UNL     1      -0.358  -8.311   6.832  0.00  0.00    +0.006 A 
ATOM     21  C   UNL     1      -0.762  -7.688   5.667  0.00  0.00    -0.029 A 
ATOM     22  C   UNL     1      -2.026  -8.130   4.976  0.00  0.00    +0.045 C 
ATOM     23 CL   UNL     1       3.009  -6.364   7.747  0.00  0.00    -0.083 Cl
ENDBRANCH  14  16
ENDBRANCH   9  12
BRANCH  11  24
ATOM     24  S   UNL     1      -0.249  -5.044  -1.407  0.00  0.00    +0.075 S 
ATOM     25  O   UNL     1      -0.701  -6.325  -0.990  0.00  0.00    -0.150 OA
ATOM     26  O   UNL     1      -1.028  -4.194  -2.237  0.00  0.00    -0.150 OA
BRANCH  24  27
ATOM     27  C   UNL     1       1.282  -5.298  -2.241  0.00  0.00    +0.109 A 
ATOM     28  C   UNL     1       1.727  -4.370  -3.164  0.00  0.00    +0.032 A 
ATOM     29  C   UNL     1       2.927  -4.567  -3.820  0.00  0.00    +0.047 A 
ATOM     30  C   UNL     1       3.685  -5.697  -3.553  0.00  0.00    +0.120 A 
ATOM     31  C   UNL     1       3.237  -6.627  -2.626  0.00  0.00    +0.047 A 
ATOM     32  C   UNL     1       2.039  -6.423  -1.968  0.00  0.00    +0.032 A 
BRANCH  30  33
ATOM     33  O   UNL     1       4.865  -5.893  -4.197  0.00  0.00    -0.495 OA
ATOM     34  C   UNL     1       5.593  -7.079  -3.871  0.00  0.00    +0.277 C 
ENDBRANCH  30  33
ENDBRANCH  24  27
ENDBRANCH  11  24
TORSDOF 5
