REMARK  Name = ZINC02453270
REMARK  8 active torsions:
REMARK  status: ('A' for Active; 'I' for Inactive)
REMARK    1  A    between atoms: C_1  and  C_2
REMARK    2  A    between atoms: C_4  and  C_37
REMARK    3  A    between atoms: N_20  and  C_23
REMARK    4  A    between atoms: C_24  and  C_30
REMARK    5  A    between atoms: C_25  and  C_29
REMARK    6  A    between atoms: C_26  and  C_28
REMARK    7  A    between atoms: C_30  and  O_32
REMARK    8  A    between atoms: O_32  and  C_33
REMARK                            x       y       z     vdW  Elec       q    Type
REMARK                         _______ _______ _______ _____ _____    ______ ____
ROOT
ATOM      1  C   UNL     1       6.991  -2.214   0.207  0.00  0.00    +0.044 C 
ATOM      2  C   UNL     1       6.335  -0.991   0.795  0.00  0.00    -0.050 A 
ATOM      3  C   UNL     1       7.109   0.003   1.366  0.00  0.00    +0.008 A 
ATOM      4  C   UNL     1       6.514   1.125   1.906  0.00  0.00    -0.029 A 
ATOM      5  C   UNL     1       5.129   1.265   1.879  0.00  0.00    +0.039 A 
ATOM      6  C   UNL     1       4.361   0.258   1.302  0.00  0.00    -0.027 A 
ATOM      7  C   UNL     1       4.958  -0.860   0.765  0.00  0.00    +0.008 A 
ATOM      8  C   UNL     1       2.931   0.705   1.431  0.00  0.00    +0.053 C 
ATOM      9  C   UNL     1       2.256   0.828   0.061  0.00  0.00    +0.089 C 
ATOM     10  C   UNL     1       1.437  -0.482  -0.094  0.00  0.00    +0.074 C 
ATOM     11  C   UNL     1       1.699  -1.277   1.198  0.00  0.00    -0.054 C 
ATOM     12  C   UNL     1       0.873   0.378   2.658  0.00  0.00    -0.076 C 
ATOM     13  C   UNL     1      -0.164  -0.763   2.708  0.00  0.00    -0.020 C 
ATOM     14  C   UNL     1       0.369  -1.834   1.736  0.00  0.00    -0.016 C 
ATOM     15  C   UNL     1       0.004   0.001  -0.107  0.00  0.00    +0.229 C 
ATOM     16  O   UNL     1      -0.974  -0.709  -0.206  0.00  0.00    -0.275 OA
ATOM     17  N   UNL     1      -0.016   1.334   0.009  0.00  0.00    -0.203 N 
ATOM     18  C   UNL     1       1.192   1.901   0.110  0.00  0.00    +0.230 C 
ATOM     19  O   UNL     1       1.400   3.090   0.222  0.00  0.00    -0.275 OA
ATOM     20  C   UNL     1       3.002   2.039   2.127  0.00  0.00    +0.212 C 
ATOM     21  O   UNL     1       2.066   2.749   2.426  0.00  0.00    -0.277 OA
ATOM     22  N   UNL     1       4.306   2.290   2.350  0.00  0.00    -0.286 N 
ATOM     23  C   UNL     1       7.366   2.202   2.525  0.00  0.00    +0.045 C 
ATOM     24  H   UNL     1       4.635   3.090   2.789  0.00  0.00    +0.155 HD
ATOM     25  N   UNL     1       2.102  -0.267   2.150  0.00  0.00    +0.395 N 
ATOM     26  H   UNL     1       2.632  -0.683   2.924  0.00  0.00    -0.079 HD
ENDROOT
BRANCH  17  27
ATOM     27  C   UNL     1      -1.196   2.070   0.019  0.00  0.00    +0.096 A 
ATOM     28  C   UNL     1      -1.883   2.613  -1.060  0.00  0.00    +0.091 A 
ATOM     29  C   UNL     1      -3.096   3.335  -0.759  0.00  0.00    -0.025 A 
ATOM     30  C   UNL     1      -3.451   3.429   0.535  0.00  0.00    -0.008 A 
ATOM     31  S   UNL     1      -2.160   2.538   1.379  0.00  0.00    -0.077 S 
ATOM     32  C   UNL     1      -4.651   4.121   1.128  0.00  0.00    +0.052 C 
ATOM     33  C   UNL     1      -3.927   3.963  -1.849  0.00  0.00    +0.045 C 
BRANCH  28  34
ATOM     34  C   UNL     1      -1.402   2.458  -2.435  0.00  0.00    +0.342 C 
ATOM     35  O   UNL     1      -1.758   1.504  -3.100  0.00  0.00    -0.245 OA
BRANCH  34  36
ATOM     36  O   UNL     1      -0.564   3.373  -2.964  0.00  0.00    -0.464 OA
ATOM     37  C   UNL     1      -0.127   3.155  -4.331  0.00  0.00    +0.280 C 
ENDBRANCH  34  36
ENDBRANCH  28  34
ENDBRANCH  17  27
TORSDOF 3
