REMARK  Name = ZINC12453910
REMARK  7 active torsions:
REMARK  status: ('A' for Active; 'I' for Inactive)
REMARK    1  A    between atoms: C_3  and  C_6
REMARK    2  A    between atoms: C_9  and  O_24
REMARK    3  A    between atoms: C_10  and  C_12
REMARK    4  A    between atoms: C_12  and  N_65
REMARK    5  A    between atoms: O_24  and  C_25
REMARK    6  A    between atoms: C_25  and  C_26
REMARK    7  A    between atoms: N_28  and  C_29
REMARK                            x       y       z     vdW  Elec       q    Type
REMARK                         _______ _______ _______ _____ _____    ______ ____
ROOT
ATOM      1  C   UNL     1      -1.050   5.106   0.038  0.00  0.00    -0.011 A 
ATOM      2  C   UNL     1      -0.171   6.191   0.040  0.00  0.00    +0.012 A 
ATOM      3  C   UNL     1      -0.667   7.477   0.046  0.00  0.00    +0.046 A 
ATOM      4  C   UNL     1      -2.038   7.694   0.060  0.00  0.00    +0.123 A 
ATOM      5  C   UNL     1      -2.916   6.618   0.063  0.00  0.00    -0.022 A 
ATOM      6  C   UNL     1      -2.428   5.328   0.052  0.00  0.00    +0.014 A 
ENDROOT
BRANCH   1   9
ATOM      7  C   UNL     1       1.031   1.943   0.003  0.00  0.00    +0.008 A 
ATOM      8  C   UNL     1       0.778   3.298   0.012  0.00  0.00    +0.016 A 
ATOM      9  C   UNL     1      -0.522   3.725   0.026  0.00  0.00    +0.019 A 
ATOM     10  S   UNL     1      -1.416   2.179   0.019  0.00  0.00    -0.097 S 
ATOM     11  C   UNL     1      -0.013   1.076   0.008  0.00  0.00    +0.046 A 
ENDBRANCH   1   9
BRANCH   5  12
ATOM     12  C   UNL     1      -4.403   6.860   0.079  0.00  0.00    -0.039 C 
BRANCH  12  24
ATOM     13  C   UNL     1      -4.306   8.466  -1.731  0.00  0.00    -0.059 C 
ATOM     14  C   UNL     1      -4.741   8.727  -3.175  0.00  0.00    +0.089 C 
ATOM     15  N   UNL     1      -6.209   8.736  -3.248  0.00  0.00    -0.303 N 
ATOM     16  C   UNL     1      -6.764   7.452  -2.796  0.00  0.00    +0.089 C 
ATOM     17  C   UNL     1      -6.329   7.191  -1.352  0.00  0.00    -0.059 C 
ATOM     18  C   UNL     1      -6.641   9.040  -4.527  0.00  0.00    +0.218 A 
ATOM     19  N   UNL     1      -7.444   8.195  -5.157  0.00  0.00    -0.223 NA
ATOM     20  C   UNL     1      -7.879   8.458  -6.378  0.00  0.00    +0.116 A 
ATOM     21  C   UNL     1      -7.475   9.628  -7.002  0.00  0.00    +0.039 A 
ATOM     22  C   UNL     1      -6.630  10.487  -6.317  0.00  0.00    +0.116 A 
ATOM     23  N   UNL     1      -6.236  10.167  -5.095  0.00  0.00    -0.223 NA
ATOM     24  N   UNL     1      -4.852   7.163  -1.297  0.00  0.00    +0.384 N 
ATOM     25  H   UNL     1      -4.508   6.430  -1.929  0.00  0.00    -0.081 HD
ENDBRANCH  12  24
ENDBRANCH   5  12
BRANCH   4  26
ATOM     26  O   UNL     1      -2.523   8.964   0.071  0.00  0.00    -0.483 OA
BRANCH  26  27
ATOM     27  C   UNL     1      -1.565  10.024   0.068  0.00  0.00    +0.324 C 
BRANCH  27  28
ATOM     28  C   UNL     1      -2.283  11.349   0.081  0.00  0.00    +0.251 C 
ATOM     29  O   UNL     1      -3.495  11.382   0.093  0.00  0.00    -0.272 OA
ATOM     30  N   UNL     1      -1.578  12.498   0.081  0.00  0.00    -0.308 N 
ATOM     31  H   UNL     1      -0.608  12.471   0.071  0.00  0.00    +0.149 HD
BRANCH  30  32
ATOM     32  C   UNL     1      -2.275  13.786   0.094  0.00  0.00    +0.095 C 
ATOM     33  C   UNL     1      -2.626  14.162   1.543  0.00  0.00    +0.046 C 
ATOM     34  C   UNL     1      -3.074  15.651   1.562  0.00  0.00    +0.168 C 
ATOM     35  S   UNL     1      -1.851  16.385   0.395  0.00  0.00    -0.029 S 
ATOM     36  O   UNL     1      -0.733  16.858   1.134  0.00  0.00    -0.174 OA
ATOM     37  O   UNL     1      -2.529  17.267  -0.490  0.00  0.00    -0.174 OA
ATOM     38  C   UNL     1      -1.362  14.871  -0.526  0.00  0.00    +0.188 C 
ENDBRANCH  30  32
ENDBRANCH  27  28
ENDBRANCH  26  27
ENDBRANCH   4  26
TORSDOF 7
