REMARK  Name = ZINC38582742
REMARK  7 active torsions:
REMARK  status: ('A' for Active; 'I' for Inactive)
REMARK    1  A    between atoms: C_1  and  C_2
REMARK    2  A    between atoms: C_2  and  C_31
REMARK    3  A    between atoms: C_3  and  N_20
REMARK    4  A    between atoms: N_5  and  N_9
REMARK    5  A    between atoms: C_10  and  C_11
REMARK    6  A    between atoms: N_20  and  O_30
REMARK    7  A    between atoms: N_23  and  C_24
REMARK                            x       y       z     vdW  Elec       q    Type
REMARK                         _______ _______ _______ _____ _____    ______ ____
ROOT
ATOM      1  C   UNL     1      -0.121   1.382   0.032  0.00  0.00    +0.026 C 
ATOM      2  C   UNL     1      -0.083  -0.146  -0.031  0.00  0.00    +0.056 C 
ATOM      3  C   UNL     1       0.903  -0.646  -1.120  0.00  0.00    +0.232 C 
ATOM      4  N   UNL     1       1.609  -1.838  -0.686  0.00  0.00    -0.187 N 
ATOM      5  C   UNL     1       1.690  -2.133   0.626  0.00  0.00    +0.132 C 
ATOM      6  S   UNL     1       2.522  -3.445   1.347  0.00  0.00    -0.026 S 
ATOM      7  S   UNL     1       0.745  -0.864   1.452  0.00  0.00    -0.091 S 
ATOM      8  C   UNL     1      -1.483  -0.730  -0.229  0.00  0.00    +0.026 C 
ENDROOT
BRANCH   3   9
ATOM      9  N   UNL     1       1.878   0.409  -1.405  0.00  0.00    -0.143 N 
ATOM     10  C   UNL     1       2.180   0.719  -2.682  0.00  0.00    +0.327 C 
ATOM     11  O   UNL     1       1.577   0.190  -3.595  0.00  0.00    -0.250 OA
ATOM     12  N   UNL     1       3.151   1.616  -2.945  0.00  0.00    -0.295 N 
ATOM     13  H   UNL     1       3.682   1.984  -2.221  0.00  0.00    +0.151 HD
BRANCH  12  14
ATOM     14  C   UNL     1       3.405   2.037  -4.325  0.00  0.00    +0.074 C 
ATOM     15  C   UNL     1       4.349   1.037  -4.997  0.00  0.00    +0.022 C 
ATOM     16  C   UNL     1       4.614   1.476  -6.439  0.00  0.00    +0.002 C 
ATOM     17  C   UNL     1       5.257   2.865  -6.439  0.00  0.00    +0.000 C 
ATOM     18  C   UNL     1       4.313   3.864  -5.767  0.00  0.00    +0.002 C 
ATOM     19  C   UNL     1       4.048   3.425  -4.326  0.00  0.00    +0.022 C 
ENDBRANCH  12  14
BRANCH   9  20
ATOM     20  O   UNL     1       2.502   1.103  -0.341  0.00  0.00    -0.289 OA
ATOM     21  H   UNL     1       3.069   1.833  -0.626  0.00  0.00    +0.242 HD
ENDBRANCH   9  20
ENDBRANCH   3   9
BRANCH   4  22
ATOM     22  N   UNL     1       2.206  -2.682  -1.632  0.00  0.00    -0.185 NA
ATOM     23  C   UNL     1       1.472  -3.261  -2.550  0.00  0.00    +0.136 C 
BRANCH  23  24
ATOM     24  C   UNL     1       2.081  -4.017  -3.559  0.00  0.00    +0.000 C 
ATOM     25  C   UNL     1       1.450  -4.689  -4.606  0.00  0.00    +0.004 A 
ATOM     26  C   UNL     1       0.094  -4.823  -4.973  0.00  0.00    +0.010 A 
ATOM     27  C   UNL     1      -0.238  -5.554  -6.067  0.00  0.00    +0.001 A 
ATOM     28  C   UNL     1       0.734  -6.185  -6.849  0.00  0.00    +0.002 A 
ATOM     29  C   UNL     1       2.054  -6.099  -6.556  0.00  0.00    +0.026 A 
ATOM     30  C   UNL     1       2.479  -5.351  -5.426  0.00  0.00    +0.043 A 
ATOM     31  N   UNL     1       3.679  -5.118  -4.936  0.00  0.00    -0.380 N 
ATOM     32  C   UNL     1       3.560  -4.271  -3.745  0.00  0.00    +0.150 C 
ATOM     33  H   UNL     1       4.511  -5.451  -5.308  0.00  0.00    +0.160 HD
ENDBRANCH  23  24
ENDBRANCH   4  22
TORSDOF 5
