REMARK  Name = ZINC63375536
REMARK  9 active torsions:
REMARK  status: ('A' for Active; 'I' for Inactive)
REMARK    1  A    between atoms: C_1  and  C_2
REMARK    2  A    between atoms: C_2  and  C_3
REMARK    3  A    between atoms: C_3  and  C_4
REMARK    4  A    between atoms: C_4  and  C_5
REMARK    5  A    between atoms: C_5  and  C_6
REMARK    6  A    between atoms: C_6  and  N_7
REMARK    7  A    between atoms: C_8  and  C_10
REMARK    8  A    between atoms: C_15  and  N_16
REMARK    9  A    between atoms: C_32  and  C_37
REMARK                            x       y       z     vdW  Elec       q    Type
REMARK                         _______ _______ _______ _____ _____    ______ ____
ROOT
ATOM      1  N   UNL     1       2.716  -8.669   4.354  0.00  0.00    -0.192 N 
ATOM      2  C   UNL     1       3.396  -9.154   3.294  0.00  0.00    +0.248 C 
ATOM      3  O   UNL     1       4.522  -8.865   2.951  0.00  0.00    -0.273 OA
ATOM      4  C   UNL     1       2.459 -10.134   2.621  0.00  0.00    +0.169 C 
ATOM      5  C   UNL     1       2.198  -9.695   1.169  0.00  0.00    +0.065 C 
ATOM      6  C   UNL     1       0.867 -10.291   0.774  0.00  0.00    -0.034 C 
ATOM      7  C   UNL     1       0.124 -10.109  -0.312  0.00  0.00    -0.001 A 
ATOM      8  C   UNL     1       0.367  -9.344  -1.546  0.00  0.00    +0.010 A 
ATOM      9  C   UNL     1      -0.632  -9.360  -2.467  0.00  0.00    +0.001 A 
ATOM     10  C   UNL     1      -1.835 -10.051  -2.285  0.00  0.00    +0.002 A 
ATOM     11  C   UNL     1      -2.140 -10.784  -1.185  0.00  0.00    +0.026 A 
ATOM     12  C   UNL     1      -1.163 -10.849  -0.149  0.00  0.00    +0.043 A 
ATOM     13  N   UNL     1      -1.183 -11.482   0.987  0.00  0.00    -0.375 N 
ATOM     14  C   UNL     1       0.102 -11.268   1.658  0.00  0.00    +0.131 C 
ATOM     15  C   UNL     1      -0.083 -10.592   3.023  0.00  0.00    +0.135 C 
ATOM     16  N   UNL     1       1.209  -9.992   3.395  0.00  0.00    -0.264 N 
ATOM     17  C   UNL     1       1.479  -9.179   4.424  0.00  0.00    +0.317 C 
ATOM     18  O   UNL     1       0.693  -8.930   5.317  0.00  0.00    -0.252 OA
ATOM     19  H   UNL     1      -1.922 -12.007   1.331  0.00  0.00    +0.160 HD
ENDROOT
BRANCH   1  25
ATOM     20  C   UNL     1       3.089  -6.376   5.051  0.00  0.00    +0.059 A 
ATOM     21  C   UNL     1       3.613  -5.470   5.976  0.00  0.00    +0.015 A 
ATOM     22  C   UNL     1       4.278  -5.933   7.091  0.00  0.00    +0.001 A 
ATOM     23  C   UNL     1       4.430  -7.294   7.299  0.00  0.00    +0.002 A 
ATOM     24  C   UNL     1       3.918  -8.201   6.394  0.00  0.00    +0.025 A 
ATOM     25  C   UNL     1       3.240  -7.753   5.269  0.00  0.00    +0.058 A 
BRANCH  20  27
ATOM     26  N   UNL     1       2.232  -4.563   3.651  0.00  0.00    -0.311 N 
ATOM     27  C   UNL     1       2.375  -5.887   3.856  0.00  0.00    +0.246 C 
ATOM     28  O   UNL     1       1.916  -6.679   3.056  0.00  0.00    -0.270 OA
ATOM     29  H   UNL     1       2.598  -3.931   4.290  0.00  0.00    +0.149 HD
BRANCH  26  30
ATOM     30  C   UNL     1       1.524  -4.077   2.464  0.00  0.00    +0.104 C 
BRANCH  30  31
ATOM     31  C   UNL     1       1.503  -2.548   2.473  0.00  0.00    +0.019 C 
BRANCH  31  32
ATOM     32  C   UNL     1       0.763  -2.041   1.233  0.00  0.00    +0.002 C 
BRANCH  32  33
ATOM     33  C   UNL     1       0.742  -0.511   1.242  0.00  0.00    -0.000 C 
BRANCH  33  35
ATOM     34  C   UNL     1      -0.019   1.526   0.010  0.00  0.00    +0.004 C 
ATOM     35  C   UNL     1       0.002  -0.004   0.002  0.00  0.00    -0.003 C 
ENDBRANCH  33  35
ENDBRANCH  32  33
ENDBRANCH  31  32
ENDBRANCH  30  31
ENDBRANCH  26  30
ENDBRANCH  20  27
ENDBRANCH   1  25
BRANCH  15  36
ATOM     36  C   UNL     1      -0.465 -11.620   4.057  0.00  0.00    -0.025 A 
ATOM     37  C   UNL     1       0.508 -12.416   4.633  0.00  0.00    +0.005 A 
ATOM     38  C   UNL     1       0.157 -13.359   5.581  0.00  0.00    +0.000 A 
ATOM     39  C   UNL     1      -1.166 -13.506   5.953  0.00  0.00    +0.000 A 
ATOM     40  C   UNL     1      -2.139 -12.709   5.378  0.00  0.00    +0.000 A 
ATOM     41  C   UNL     1      -1.787 -11.763   4.433  0.00  0.00    +0.005 A 
ENDBRANCH  15  36
TORSDOF 8
