REMARK  Name = ZINC09375905
REMARK  8 active torsions:
REMARK  status: ('A' for Active; 'I' for Inactive)
REMARK    1  A    between atoms: C_1  and  N_52
REMARK    2  A    between atoms: C_2  and  C_3
REMARK    3  A    between atoms: C_2  and  N_52
REMARK    4  A    between atoms: C_6  and  C_8
REMARK    5  A    between atoms: C_15  and  C_16
REMARK    6  A    between atoms: C_15  and  N_52
REMARK    7  A    between atoms: N_18  and  C_19
REMARK    8  A    between atoms: C_20  and  C_27
REMARK                            x       y       z     vdW  Elec       q    Type
REMARK                         _______ _______ _______ _____ _____    ______ ____
ROOT
ATOM      1  C   UNL     1       1.121   3.579   0.011  0.00  0.00    +0.019 C 
ENDROOT
BRANCH   1   2
ATOM      2  C   UNL     1       1.141   2.072   0.002  0.00  0.00    +0.201 C 
ATOM      3  O   UNL     1       2.200   1.480  -0.011  0.00  0.00    -0.278 OA
ATOM      4  N   UNL     1      -0.017   1.382   0.010  0.00  0.00    -0.281 N 
ATOM      5  H   UNL     1      -0.863   1.856   0.016  0.00  0.00    +0.155 HD
BRANCH   4   6
ATOM      6  C   UNL     1       0.002  -0.004   0.002  0.00  0.00    +0.084 A 
ATOM      7  C   UNL     1      -1.071  -0.879   0.013  0.00  0.00    +0.068 A 
ATOM      8  C   UNL     1      -0.776  -2.312  -0.003  0.00  0.00    -0.023 A 
ATOM      9  C   UNL     1       0.532  -2.626  -0.017  0.00  0.00    -0.004 A 
ATOM     10  S   UNL     1       1.372  -1.061  -0.016  0.00  0.00    -0.077 S 
ATOM     11  C   UNL     1       0.754  -4.114  -0.030  0.00  0.00    +0.043 C 
ATOM     12  C   UNL     1      -0.606  -4.707  -0.459  0.00  0.00    +0.010 C 
ATOM     13  C   UNL     1      -1.586  -3.609  -0.000  0.00  0.00    +0.037 C 
BRANCH   7  14
ATOM     14  C   UNL     1      -2.452  -0.388   0.036  0.00  0.00    +0.244 C 
ATOM     15  O   UNL     1      -3.041  -0.178  -1.008  0.00  0.00    -0.270 OA
ATOM     16  N   UNL     1      -3.069  -0.167   1.214  0.00  0.00    -0.325 N 
ATOM     17  H   UNL     1      -2.600  -0.334   2.046  0.00  0.00    +0.145 HD
ATOM     18  H   UNL     1      -3.983   0.158   1.229  0.00  0.00    +0.145 HD
ENDBRANCH   7  14
ENDBRANCH   4   6
ENDBRANCH   1   2
BRANCH   1  20
ATOM     19  C   UNL     1       3.174   3.754  -1.262  0.00  0.00    -0.095 C 
ATOM     20  N   UNL     1       2.513   4.075   0.021  0.00  0.00    +0.388 N 
ATOM     21  H   UNL     1       3.025   3.615   0.784  0.00  0.00    -0.081 HD
BRANCH  20  22
ATOM     22  C   UNL     1       2.528   5.535   0.246  0.00  0.00    -0.003 C 
BRANCH  22  23
ATOM     23  C   UNL     1       3.950   5.978   0.472  0.00  0.00    +0.089 A 
ATOM     24  C   UNL     1       4.806   6.389  -0.484  0.00  0.00    +0.043 A 
ATOM     25  C   UNL     1       6.020   6.708   0.158  0.00  0.00    +0.050 A 
ATOM     26  C   UNL     1       5.835   6.471   1.484  0.00  0.00    +0.135 A 
ATOM     27  O   UNL     1       4.573   6.035   1.661  0.00  0.00    -0.462 OA
BRANCH  26  28
ATOM     28  C   UNL     1       6.842   6.665   2.548  0.00  0.00    +0.017 A 
ATOM     29  C   UNL     1       8.120   7.127   2.228  0.00  0.00    +0.013 A 
ATOM     30  C   UNL     1       9.054   7.311   3.226  0.00  0.00    +0.021 A 
ATOM     31  C   UNL     1       8.730   7.029   4.542  0.00  0.00    +0.041 A 
ATOM     32  C   UNL     1       7.465   6.567   4.866  0.00  0.00    +0.021 A 
ATOM     33  C   UNL     1       6.521   6.383   3.877  0.00  0.00    +0.013 A 
ATOM     34 CL   UNL     1       9.913   7.256   5.792  0.00  0.00    -0.084 Cl
ENDBRANCH  26  28
ENDBRANCH  22  23
ENDBRANCH  20  22
ENDBRANCH   1  20
TORSDOF 7
