REMARK  Name = ZINC48934319
REMARK  8 active torsions:
REMARK  status: ('A' for Active; 'I' for Inactive)
REMARK    1  A    between atoms: C_1  and  C_2
REMARK    2  A    between atoms: C_2  and  C_4
REMARK    3  A    between atoms: C_2  and  N_19
REMARK    4  A    between atoms: N_6  and  C_7
REMARK    5  A    between atoms: C_13  and  C_15
REMARK    6  A    between atoms: C_15  and  C_16
REMARK    7  A    between atoms: C_15  and  C_17
REMARK    8  A    between atoms: C_15  and  C_18
REMARK                            x       y       z     vdW  Elec       q    Type
REMARK                         _______ _______ _______ _____ _____    ______ ____
ROOT
ATOM      1  C   UNL     1       1.094   0.232   1.429  0.00  0.00    +0.233 C 
ATOM      2  O   UNL     1       0.495  -0.265   2.360  0.00  0.00    -0.274 OA
ATOM      3  N   UNL     1       2.439   0.319   1.463  0.00  0.00    -0.311 N 
ATOM      4  H   UNL     1       2.918   0.716   0.719  0.00  0.00    +0.149 HD
ENDROOT
BRANCH   3   5
ATOM      5  C   UNL     1       3.177  -0.187   2.623  0.00  0.00    +0.077 C 
ATOM      6  C   UNL     1       3.339   0.934   3.652  0.00  0.00    +0.022 C 
ATOM      7  C   UNL     1       4.111   2.096   3.023  0.00  0.00    +0.002 C 
ATOM      8  C   UNL     1       5.491   1.609   2.577  0.00  0.00    +0.000 C 
ATOM      9  C   UNL     1       5.329   0.489   1.548  0.00  0.00    +0.006 C 
ATOM     10  C   UNL     1       4.557  -0.673   2.177  0.00  0.00    +0.015 C 
BRANCH  10  11
ATOM     11  C   UNL     1       4.395  -1.794   1.148  0.00  0.00    -0.033 C 
ATOM     12  C   UNL     1       3.762  -1.229  -0.125  0.00  0.00    +0.011 C 
ATOM     13  C   UNL     1       5.767  -2.384   0.817  0.00  0.00    +0.011 C 
ATOM     14  C   UNL     1       3.494  -2.888   1.724  0.00  0.00    +0.011 C 
ENDBRANCH  10  11
ENDBRANCH   3   5
BRANCH   1  16
ATOM     15  C   UNL     1       0.613   2.247   0.066  0.00  0.00    +0.038 C 
ATOM     16  C   UNL     1       0.335   0.752   0.236  0.00  0.00    +0.157 C 
BRANCH  16  17
ATOM     17  N   UNL     1      -1.100   0.542   0.441  0.00  0.00    -0.289 N 
ATOM     18  C   UNL     1      -1.925   0.444  -0.620  0.00  0.00    +0.298 C 
ATOM     19  O   UNL     1      -1.479   0.528  -1.748  0.00  0.00    -0.253 OA
ATOM     20  N   UNL     1      -3.246   0.251  -0.431  0.00  0.00    -0.313 N 
ATOM     21  H   UNL     1      -1.457   0.474   1.341  0.00  0.00    +0.151 HD
ATOM     22  H   UNL     1      -3.603   0.183   0.468  0.00  0.00    +0.146 HD
ATOM     23  H   UNL     1      -3.840   0.180  -1.195  0.00  0.00    +0.146 HD
ENDBRANCH  16  17
ENDBRANCH   1  16
TORSDOF 4
