REMARK  Name = ZINC36772258
REMARK  13 active torsions:
REMARK  status: ('A' for Active; 'I' for Inactive)
REMARK    1  A    between atoms: C_1  and  C_2
REMARK    2  A    between atoms: C_2  and  O_3
REMARK    3  A    between atoms: O_3  and  C_4
REMARK    4  A    between atoms: C_4  and  C_6
REMARK    5  A    between atoms: C_10  and  N_11
REMARK    6  A    between atoms: C_12  and  C_14
REMARK    7  A    between atoms: C_14  and  O_15
REMARK    8  A    between atoms: O_15  and  C_16
REMARK    9  A    between atoms: C_20  and  C_22
REMARK   10  A    between atoms: C_24  and  C_30
REMARK   11  A    between atoms: C_24  and  C_31
REMARK   12  A    between atoms: C_26  and  C_28
REMARK   13  A    between atoms: C_26  and  C_29
REMARK                            x       y       z     vdW  Elec       q    Type
REMARK                         _______ _______ _______ _____ _____    ______ ____
ROOT
ATOM      1  C   UNL     1      -2.843  -2.416   0.016  0.00  0.00    +0.091 A 
ATOM      2  C   UNL     1      -3.560  -2.710  -1.205  0.00  0.00    -0.024 A 
ATOM      3  C   UNL     1      -4.794  -3.236  -1.021  0.00  0.00    -0.016 A 
ATOM      4  S   UNL     1      -4.970  -3.339   0.735  0.00  0.00    -0.079 S 
ATOM      5  C   UNL     1      -3.490  -2.706   1.212  0.00  0.00    +0.086 A 
ATOM      6  C   UNL     1      -5.761  -3.618  -2.091  0.00  0.00    -0.041 C 
ATOM      7  N   UNL     1      -5.168  -3.549  -3.425  0.00  0.00    +0.389 N 
ATOM      8  C   UNL     1      -3.714  -3.582  -3.496  0.00  0.00    -0.069 C 
ATOM      9  C   UNL     1      -3.069  -2.494  -2.628  0.00  0.00    +0.024 C 
ATOM     10  C   UNL     1      -3.171  -4.952  -3.083  0.00  0.00    -0.010 C 
ATOM     11  C   UNL     1      -3.293  -3.328  -4.957  0.00  0.00    -0.010 C 
ATOM     12  C   UNL     1      -6.293  -5.032  -1.818  0.00  0.00    -0.005 C 
ATOM     13  C   UNL     1      -6.955  -2.645  -2.032  0.00  0.00    -0.005 C 
ATOM     14  H   UNL     1      -5.538  -4.320  -3.985  0.00  0.00    -0.084 HD
ATOM     15  H   UNL     1      -5.496  -2.696  -3.882  0.00  0.00    -0.084 HD
ENDROOT
BRANCH   5  16
ATOM     16  N   UNL     1      -3.019  -2.515   2.501  0.00  0.00    -0.277 N 
ATOM     17  C   UNL     1      -3.786  -2.855   3.556  0.00  0.00    +0.255 C 
ATOM     18  O   UNL     1      -4.888  -3.329   3.377  0.00  0.00    -0.272 OA
ATOM     19  H   UNL     1      -2.138  -2.136   2.645  0.00  0.00    +0.155 HD
BRANCH  17  20
ATOM     20  C   UNL     1      -3.275  -2.647   4.958  0.00  0.00    +0.324 C 
BRANCH  20  21
ATOM     21  O   UNL     1      -4.262  -3.082   5.895  0.00  0.00    -0.483 OA
BRANCH  21  22
ATOM     22  C   UNL     1      -3.957  -2.962   7.214  0.00  0.00    +0.122 A 
ATOM     23  C   UNL     1      -2.732  -2.431   7.597  0.00  0.00    +0.046 A 
ATOM     24  C   UNL     1      -2.416  -2.306   8.937  0.00  0.00    +0.005 A 
ATOM     25  C   UNL     1      -3.315  -2.708   9.903  0.00  0.00    +0.019 A 
ATOM     26  C   UNL     1      -4.549  -3.244   9.528  0.00  0.00    +0.055 A 
ATOM     27  C   UNL     1      -4.869  -3.364   8.174  0.00  0.00    +0.064 A 
BRANCH  26  28
ATOM     28  C   UNL     1      -5.484  -3.663  10.527  0.00  0.00    +0.099 C 
ATOM     29  N   UNL     1      -6.227  -3.995  11.321  0.00  0.00    -0.191 NA
ENDBRANCH  26  28
ENDBRANCH  21  22
ENDBRANCH  20  21
ENDBRANCH  17  20
ENDBRANCH   5  16
BRANCH   1  30
ATOM     30  C   UNL     1      -1.497  -1.838   0.006  0.00  0.00    +0.342 C 
ATOM     31  O   UNL     1      -0.523  -2.566  -0.007  0.00  0.00    -0.245 OA
BRANCH  30  32
ATOM     32  O   UNL     1      -1.339  -0.499   0.012  0.00  0.00    -0.461 OA
BRANCH  32  34
ATOM     33  C   UNL     1      -0.019   1.526   0.010  0.00  0.00    +0.048 C 
ATOM     34  C   UNL     1       0.002  -0.004   0.002  0.00  0.00    +0.229 C 
ENDBRANCH  32  34
ENDBRANCH  30  32
ENDBRANCH   1  30
TORSDOF 8
