REMARK  Name = ZINC36072127
REMARK  12 active torsions:
REMARK  status: ('A' for Active; 'I' for Inactive)
REMARK    1  A    between atoms: C_1  and  C_2
REMARK    2  A    between atoms: C_2  and  C_4
REMARK    3  A    between atoms: C_2  and  N_10
REMARK    4  A    between atoms: C_11  and  C_13
REMARK    5  A    between atoms: C_16  and  C_18
REMARK    6  A    between atoms: C_18  and  N_19
REMARK    7  A    between atoms: N_19  and  C_20
REMARK    8  A    between atoms: N_19  and  C_31
REMARK    9  A    between atoms: C_20  and  C_21
REMARK   10  A    between atoms: C_24  and  C_27
REMARK   11  A    between atoms: C_31  and  C_33
REMARK   12  A    between atoms: C_31  and  C_34
REMARK                            x       y       z     vdW  Elec       q    Type
REMARK                         _______ _______ _______ _____ _____    ______ ____
ROOT
ATOM      1  N   UNL     1      -6.457  -1.946   1.198  0.00  0.00    +0.393 N 
ATOM      2  H   UNL     1      -5.667  -1.676   1.764  0.00  0.00    -0.080 HD
ENDROOT
BRANCH   1   3
ATOM      3  C   UNL     1      -6.578  -1.028   0.057  0.00  0.00    -0.040 C 
ATOM      4  C   UNL     1      -7.534   0.111   0.418  0.00  0.00    -0.008 C 
BRANCH   3   5
ATOM      5  C   UNL     1      -5.223  -0.460  -0.277  0.00  0.00    -0.061 A 
ATOM      6  C   UNL     1      -4.606   0.415   0.598  0.00  0.00    +0.002 A 
ATOM      7  C   UNL     1      -3.363   0.937   0.292  0.00  0.00    +0.000 A 
ATOM      8  C   UNL     1      -2.736   0.583  -0.888  0.00  0.00    +0.000 A 
ATOM      9  C   UNL     1      -3.353  -0.293  -1.762  0.00  0.00    +0.000 A 
ATOM     10  C   UNL     1      -4.594  -0.818  -1.454  0.00  0.00    +0.002 A 
ENDBRANCH   3   5
ENDBRANCH   1   3
BRANCH   1  11
ATOM     11  C   UNL     1      -6.263  -3.316   0.705  0.00  0.00    +0.020 C 
BRANCH  11  15
ATOM     12  C   UNL     1      -2.793  -3.467  -0.323  0.00  0.00    +0.163 A 
ATOM     13  C   UNL     1      -3.411  -3.657  -1.521  0.00  0.00    +0.230 A 
ATOM     14  O   UNL     1      -4.733  -3.625  -1.288  0.00  0.00    -0.449 OA
ATOM     15  C   UNL     1      -4.923  -3.419   0.023  0.00  0.00    +0.179 A 
ATOM     16  N   UNL     1      -3.769  -3.328   0.614  0.00  0.00    -0.210 NA
BRANCH  12  18
ATOM     17  N   UNL     1      -0.865  -3.234   1.161  0.00  0.00    -0.303 N 
ATOM     18  C   UNL     1      -1.339  -3.425  -0.086  0.00  0.00    +0.266 C 
ATOM     19  O   UNL     1      -0.566  -3.564  -1.015  0.00  0.00    -0.268 OA
ATOM     20  H   UNL     1      -1.480  -3.123   1.902  0.00  0.00    +0.150 HD
BRANCH  17  22
ATOM     21  C   UNL     1       1.099  -1.776   1.141  0.00  0.00    +0.033 C 
ATOM     22  C   UNL     1       0.581  -3.192   1.397  0.00  0.00    +0.100 C 
BRANCH  22  23
ATOM     23  C   UNL     1       0.868  -3.582   2.825  0.00  0.00    -0.027 A 
ATOM     24  C   UNL     1       0.043  -3.138   3.841  0.00  0.00    +0.005 A 
ATOM     25  C   UNL     1       0.306  -3.495   5.151  0.00  0.00    +0.000 A 
ATOM     26  C   UNL     1       1.394  -4.296   5.443  0.00  0.00    +0.000 A 
ATOM     27  C   UNL     1       2.219  -4.740   4.426  0.00  0.00    +0.000 A 
ATOM     28  C   UNL     1       1.953  -4.386   3.117  0.00  0.00    +0.005 A 
ENDBRANCH  22  23
ENDBRANCH  17  22
ENDBRANCH  12  18
ENDBRANCH  11  15
ENDBRANCH   1  11
BRANCH   1  29
ATOM     29  C   UNL     1      -7.682  -1.885   2.007  0.00  0.00    -0.041 C 
BRANCH  29  30
ATOM     30  C   UNL     1      -7.685  -0.615   2.819  0.00  0.00    -0.064 A 
ATOM     31  C   UNL     1      -6.516  -0.167   3.405  0.00  0.00    +0.002 A 
ATOM     32  C   UNL     1      -6.519   0.998   4.149  0.00  0.00    +0.012 A 
ATOM     33  C   UNL     1      -7.691   1.714   4.308  0.00  0.00    +0.055 A 
ATOM     34  C   UNL     1      -8.860   1.266   3.721  0.00  0.00    +0.012 A 
ATOM     35  C   UNL     1      -8.856   0.104   2.972  0.00  0.00    +0.002 A 
BRANCH  33  36
ATOM     36  C   UNL     1      -7.695   2.983   5.120  0.00  0.00    +0.417 C 
ATOM     37  F   UNL     1      -7.417   4.072   4.286  0.00  0.00    -0.166 F 
ATOM     38  F   UNL     1      -8.952   3.156   5.710  0.00  0.00    -0.166 F 
ATOM     39  F   UNL     1      -6.719   2.900   6.119  0.00  0.00    -0.166 F 
ENDBRANCH  33  36
ENDBRANCH  29  30
ENDBRANCH   1  29
TORSDOF 10
