REMARK  Name = ZINC21659061
REMARK  6 active torsions:
REMARK  status: ('A' for Active; 'I' for Inactive)
REMARK    1  A    between atoms: C_1  and  C_2
REMARK    2  A    between atoms: C_7  and  C_8
REMARK    3  A    between atoms: C_20  and  C_22
REMARK    4  A    between atoms: C_27  and  O_28
REMARK    5  A    between atoms: N_29  and  C_36
REMARK    6  A    between atoms: N_32  and  C_35
REMARK                            x       y       z     vdW  Elec       q    Type
REMARK                         _______ _______ _______ _____ _____    ______ ____
ROOT
ATOM      1  C   UNL     1       1.707   1.864   2.363  0.00  0.00    +0.069 A 
ATOM      2  C   UNL     1       2.771   2.701   2.137  0.00  0.00    +0.089 A 
ATOM      3  C   UNL     1       3.998   1.889   2.340  0.00  0.00    +0.082 A 
ATOM      4  C   UNL     1       3.596   0.668   2.658  0.00  0.00    +0.073 A 
ATOM      5  N   UNL     1       2.208   0.643   2.693  0.00  0.00    -0.306 N 
ATOM      6  C   UNL     1       1.510  -0.532   3.007  0.00  0.00    +0.068 A 
ATOM      7  C   UNL     1       0.152  -0.651   2.783  0.00  0.00    +0.028 A 
ATOM      8  C   UNL     1      -0.488  -1.845   3.067  0.00  0.00    +0.002 A 
ATOM      9  C   UNL     1       0.228  -2.914   3.573  0.00  0.00    +0.002 A 
ATOM     10  C   UNL     1       1.585  -2.799   3.808  0.00  0.00    +0.025 A 
ATOM     11  C   UNL     1       2.235  -1.605   3.535  0.00  0.00    +0.052 A 
ATOM     12  N   UNL     1       3.605  -1.466   3.785  0.00  0.00    -0.330 N 
ATOM     13  C   UNL     1       4.419  -0.568   2.952  0.00  0.00    +0.154 C 
ATOM     14  N   UNL     1       5.248   2.502   2.172  0.00  0.00    -0.294 N 
ATOM     15  C   UNL     1       5.256   3.809   1.829  0.00  0.00    +0.332 A 
ATOM     16  O   UNL     1       6.340   4.340   1.682  0.00  0.00    -0.246 OA
ATOM     17  N   UNL     1       4.173   4.569   1.638  0.00  0.00    -0.263 N 
ATOM     18  C   UNL     1       2.900   4.114   1.766  0.00  0.00    +0.266 A 
ATOM     19  O   UNL     1       1.933   4.829   1.585  0.00  0.00    -0.267 OA
ATOM     20  C   UNL     1       4.370   5.972   1.268  0.00  0.00    +0.157 C 
ATOM     21  C   UNL     1       6.495   1.756   2.361  0.00  0.00    +0.154 C 
ATOM     22  H   UNL     1       4.073  -2.030   4.606  0.00  0.00    +0.147 HD
ENDROOT
BRANCH   1  29
ATOM     23  C   UNL     1       0.316   1.563  -0.156  0.00  0.00    +0.044 C 
ATOM     24  C   UNL     1      -0.404   2.084   1.061  0.00  0.00    -0.041 A 
ATOM     25  C   UNL     1      -1.737   2.429   0.981  0.00  0.00    +0.004 A 
ATOM     26  C   UNL     1      -2.401   2.901   2.099  0.00  0.00    +0.000 A 
ATOM     27  C   UNL     1      -1.731   3.043   3.302  0.00  0.00    +0.001 A 
ATOM     28  C   UNL     1      -0.397   2.708   3.395  0.00  0.00    +0.010 A 
ATOM     29  C   UNL     1       0.279   2.224   2.271  0.00  0.00    +0.003 A 
ENDBRANCH   1  29
BRANCH  13  30
ATOM     30  C   UNL     1       4.782  -1.258   1.662  0.00  0.00    +0.020 A 
ATOM     31  C   UNL     1       4.104  -0.949   0.499  0.00  0.00    +0.009 A 
ATOM     32  C   UNL     1       4.436  -1.582  -0.685  0.00  0.00    +0.001 A 
ATOM     33  C   UNL     1       5.448  -2.524  -0.708  0.00  0.00    +0.004 A 
ATOM     34  C   UNL     1       6.129  -2.835   0.453  0.00  0.00    +0.046 A 
ATOM     35  C   UNL     1       5.801  -2.199   1.641  0.00  0.00    +0.122 A 
BRANCH  35  36
ATOM     36  O   UNL     1       6.473  -2.499   2.783  0.00  0.00    -0.506 OA
ATOM     37  H   UNL     1       7.281  -3.246   2.765  0.00  0.00    +0.292 HD
ENDBRANCH  35  36
ENDBRANCH  13  30
TORSDOF 3
