REMARK  Name = ZINC39677013
REMARK  7 active torsions:
REMARK  status: ('A' for Active; 'I' for Inactive)
REMARK    1  A    between atoms: C_1  and  C_2
REMARK    2  A    between atoms: C_5  and  C_34
REMARK    3  A    between atoms: C_6  and  C_8
REMARK    4  A    between atoms: C_8  and  C_9
REMARK    5  A    between atoms: C_9  and  N_10
REMARK    6  A    between atoms: C_11  and  C_13
REMARK    7  A    between atoms: C_24  and  C_26
REMARK                            x       y       z     vdW  Elec       q    Type
REMARK                         _______ _______ _______ _____ _____    ______ ____
ROOT
ATOM      1  C   UNL     1       3.014  -4.969   5.452  0.00  0.00    +0.100 C 
ATOM      2  C   UNL     1       2.042  -6.168   5.510  0.00  0.00    +0.121 C 
ATOM      3  N   UNL     1       2.905  -7.359   5.332  0.00  0.00    -0.296 N 
ATOM      4  C   UNL     1       4.128  -7.048   6.110  0.00  0.00    +0.115 C 
ATOM      5  C   UNL     1       4.381  -5.549   5.849  0.00  0.00    -0.004 C 
ATOM      6  C   UNL     1       5.381  -5.375   4.710  0.00  0.00    -0.010 C 
ATOM      7  C   UNL     1       6.748  -5.908   5.151  0.00  0.00    -0.082 C 
ATOM      8  N   UNL     1       7.199  -5.178   6.341  0.00  0.00    +0.379 N 
ATOM      9  C   UNL     1       6.281  -5.426   7.460  0.00  0.00    -0.082 C 
ATOM     10  C   UNL     1       4.895  -4.872   7.117  0.00  0.00    -0.010 C 
ATOM     11  C   UNL     1       2.639  -8.474   4.623  0.00  0.00    +0.249 C 
ATOM     12  O   UNL     1       3.414  -9.411   4.649  0.00  0.00    -0.270 OA
ATOM     13  H   UNL     1       8.126  -5.488   6.594  0.00  0.00    -0.086 HD
ATOM     14  H   UNL     1       7.222  -4.189   6.140  0.00  0.00    -0.086 HD
ENDROOT
BRANCH  11  15
ATOM     15  C   UNL     1       1.406  -8.559   3.815  0.00  0.00    +0.073 A 
ATOM     16  C   UNL     1       0.231  -7.950   4.262  0.00  0.00    +0.036 A 
ATOM     17  C   UNL     1      -0.917  -8.033   3.501  0.00  0.00    +0.042 A 
ATOM     18  C   UNL     1      -0.907  -8.717   2.296  0.00  0.00    +0.023 A 
ATOM     19  C   UNL     1       0.251  -9.322   1.847  0.00  0.00    +0.040 A 
ATOM     20  C   UNL     1       1.411  -9.243   2.595  0.00  0.00    +0.136 A 
ATOM     21  F   UNL     1       2.544  -9.830   2.152  0.00  0.00    -0.205 F 
ATOM     22 CL   UNL     1      -2.378  -7.277   4.056  0.00  0.00    -0.084 Cl
ENDBRANCH  11  15
BRANCH   1  24
ATOM     23  N   UNL     1       3.372  -3.106   3.864  0.00  0.00    -0.315 N 
ATOM     24  C   UNL     1       3.070  -4.406   4.055  0.00  0.00    +0.218 C 
ATOM     25  O   UNL     1       2.842  -5.122   3.103  0.00  0.00    -0.275 OA
ATOM     26  H   UNL     1       3.553  -2.533   4.625  0.00  0.00    +0.149 HD
BRANCH  23  27
ATOM     27  C   UNL     1       3.425  -2.558   2.506  0.00  0.00    +0.109 C 
BRANCH  27  28
ATOM     28  C   UNL     1       3.787  -1.073   2.569  0.00  0.00    +0.054 C 
BRANCH  28  34
ATOM     29  C   UNL     1       6.418   0.163  -1.504  0.00  0.00    +0.044 C 
ATOM     30  C   UNL     1       5.101   0.082  -0.776  0.00  0.00    -0.050 A 
ATOM     31  C   UNL     1       3.944   0.525  -1.389  0.00  0.00    +0.003 A 
ATOM     32  C   UNL     1       2.736   0.451  -0.721  0.00  0.00    +0.004 A 
ATOM     33  C   UNL     1       2.686  -0.066   0.560  0.00  0.00    -0.047 A 
ATOM     34  C   UNL     1       3.842  -0.510   1.173  0.00  0.00    -0.043 A 
ATOM     35  C   UNL     1       5.050  -0.440   0.503  0.00  0.00    +0.007 A 
ATOM     36  C   UNL     1       1.369  -0.146   1.288  0.00  0.00    +0.044 C 
ENDBRANCH  28  34
ENDBRANCH  27  28
ENDBRANCH  23  27
ENDBRANCH   1  24
TORSDOF 5
