REMARK  Name = ZINC39654161
REMARK  7 active torsions:
REMARK  status: ('A' for Active; 'I' for Inactive)
REMARK    1  A    between atoms: C_1  and  C_2
REMARK    2  A    between atoms: C_2  and  C_3
REMARK    3  A    between atoms: C_6  and  C_9
REMARK    4  A    between atoms: C_9  and  C_10
REMARK    5  A    between atoms: C_10  and  N_11
REMARK    6  A    between atoms: C_12  and  C_14
REMARK    7  A    between atoms: C_25  and  C_27
REMARK                            x       y       z     vdW  Elec       q    Type
REMARK                         _______ _______ _______ _____ _____    ______ ____
ROOT
ATOM      1  C   UNL     1       5.330  -1.195  -9.356  0.00  0.00    +0.100 C 
ATOM      2  C   UNL     1       4.136  -1.938  -9.994  0.00  0.00    +0.121 C 
ATOM      3  N   UNL     1       3.546  -0.960 -10.938  0.00  0.00    -0.296 N 
ATOM      4  C   UNL     1       4.717  -0.280 -11.543  0.00  0.00    +0.115 C 
ATOM      5  C   UNL     1       5.711  -0.110 -10.377  0.00  0.00    -0.004 C 
ATOM      6  C   UNL     1       5.561   1.276  -9.756  0.00  0.00    -0.010 C 
ATOM      7  C   UNL     1       6.000   2.335 -10.771  0.00  0.00    -0.082 C 
ATOM      8  N   UNL     1       7.396   2.097 -11.156  0.00  0.00    +0.379 N 
ATOM      9  C   UNL     1       7.515   0.802 -11.836  0.00  0.00    -0.082 C 
ATOM     10  C   UNL     1       7.140  -0.322 -10.866  0.00  0.00    -0.010 C 
ATOM     11  C   UNL     1       2.241  -0.738 -11.190  0.00  0.00    +0.247 C 
ATOM     12  O   UNL     1       1.390  -1.289 -10.519  0.00  0.00    -0.270 OA
ATOM     13  H   UNL     1       7.702   2.831 -11.778  0.00  0.00    -0.086 HD
ATOM     14  H   UNL     1       7.976   2.097 -10.331  0.00  0.00    -0.086 HD
ENDROOT
BRANCH  11  15
ATOM     15  C   UNL     1       1.845   0.176 -12.281  0.00  0.00    +0.038 A 
ATOM     16  C   UNL     1       2.740   0.468 -13.312  0.00  0.00    +0.014 A 
ATOM     17  C   UNL     1       2.365   1.321 -14.328  0.00  0.00    +0.022 A 
ATOM     18  C   UNL     1       1.102   1.890 -14.327  0.00  0.00    +0.059 A 
ATOM     19  C   UNL     1       0.208   1.605 -13.307  0.00  0.00    +0.060 A 
ATOM     20  C   UNL     1       0.571   0.747 -12.288  0.00  0.00    +0.034 A 
ATOM     21 CL   UNL     1      -1.372   2.323 -13.315  0.00  0.00    -0.082 Cl
ATOM     22 CL   UNL     1       0.638   2.965 -15.609  0.00  0.00    -0.082 Cl
ENDBRANCH  11  15
BRANCH   1  24
ATOM     23  N   UNL     1       5.848  -0.292  -7.112  0.00  0.00    -0.315 N 
ATOM     24  C   UNL     1       4.919  -0.565  -8.050  0.00  0.00    +0.218 C 
ATOM     25  O   UNL     1       3.753  -0.305  -7.842  0.00  0.00    -0.275 OA
ATOM     26  H   UNL     1       6.781  -0.500  -7.278  0.00  0.00    +0.149 HD
BRANCH  23  27
ATOM     27  C   UNL     1       5.448   0.320  -5.842  0.00  0.00    +0.109 C 
BRANCH  27  28
ATOM     28  C   UNL     1       6.684   0.524  -4.963  0.00  0.00    +0.054 C 
BRANCH  28  32
ATOM     29  C   UNL     1       5.521   2.308  -1.260  0.00  0.00    -0.048 A 
ATOM     30  C   UNL     1       5.550   0.932  -1.385  0.00  0.00    +0.004 A 
ATOM     31  C   UNL     1       5.926   0.354  -2.583  0.00  0.00    +0.004 A 
ATOM     32  C   UNL     1       6.273   1.153  -3.657  0.00  0.00    -0.046 A 
ATOM     33  C   UNL     1       6.243   2.530  -3.532  0.00  0.00    +0.004 A 
ATOM     34  C   UNL     1       5.863   3.107  -2.335  0.00  0.00    +0.004 A 
BRANCH  29  36
ATOM     35  C   UNL     1       3.597   3.155   0.054  0.00  0.00    +0.009 C 
ATOM     36  C   UNL     1       5.111   2.938   0.046  0.00  0.00    +0.032 C 
ENDBRANCH  29  36
ENDBRANCH  28  32
ENDBRANCH  27  28
ENDBRANCH  23  27
ENDBRANCH   1  24
TORSDOF 6
