REMARK  Name = ZINC35711926
REMARK  13 active torsions:
REMARK  status: ('A' for Active; 'I' for Inactive)
REMARK    1  A    between atoms: C_1  and  C_2
REMARK    2  A    between atoms: C_2  and  C_3
REMARK    3  A    between atoms: C_3  and  N_4
REMARK    4  A    between atoms: C_5  and  C_35
REMARK    5  A    between atoms: C_6  and  C_31
REMARK    6  A    between atoms: C_7  and  C_12
REMARK    7  A    between atoms: C_15  and  N_18
REMARK    8  A    between atoms: N_21  and  C_22
REMARK    9  A    between atoms: C_25  and  C_28
REMARK   10  A    between atoms: C_28  and  C_29
REMARK   11  A    between atoms: C_28  and  C_30
REMARK   12  A    between atoms: C_31  and  O_33
REMARK   13  A    between atoms: O_33  and  C_34
REMARK                            x       y       z     vdW  Elec       q    Type
REMARK                         _______ _______ _______ _____ _____    ______ ____
ROOT
ATOM      1  C   UNL     1      -2.639  -5.580  -0.057  0.00  0.00    -0.022 A 
ATOM      2  C   UNL     1      -3.843  -5.021   0.331  0.00  0.00    +0.007 A 
ATOM      3  C   UNL     1      -4.996  -5.782   0.318  0.00  0.00    +0.024 A 
ATOM      4  C   UNL     1      -4.944  -7.110  -0.085  0.00  0.00    +0.035 A 
ATOM      5  C   UNL     1      -3.734  -7.668  -0.474  0.00  0.00    +0.024 A 
ATOM      6  C   UNL     1      -2.586  -6.900  -0.464  0.00  0.00    +0.007 A 
ENDROOT
BRANCH   1  10
ATOM      7  N   UNL     1      -1.262  -1.987   0.110  0.00  0.00    -0.259 N 
ATOM      8  C   UNL     1      -1.315  -2.550  -1.134  0.00  0.00    +0.024 C 
ATOM      9  C   UNL     1      -1.376  -3.889  -1.291  0.00  0.00    +0.078 C 
ATOM     10  C   UNL     1      -1.384  -4.746  -0.041  0.00  0.00    +0.143 C 
ATOM     11  N   UNL     1      -1.323  -4.042   1.251  0.00  0.00    -0.288 N 
ATOM     12  C   UNL     1      -1.261  -2.696   1.246  0.00  0.00    +0.307 C 
ATOM     13  O   UNL     1      -1.207  -2.106   2.307  0.00  0.00    -0.252 OA
ATOM     14  C   UNL     1      -1.306  -1.660  -2.350  0.00  0.00    +0.061 C 
ATOM     15  H   UNL     1      -1.325  -4.536   2.086  0.00  0.00    +0.151 HD
BRANCH   9  16
ATOM     16  C   UNL     1      -1.432  -4.473  -2.578  0.00  0.00    +0.339 C 
ATOM     17  O   UNL     1      -1.425  -3.765  -3.568  0.00  0.00    -0.245 OA
BRANCH  16  18
ATOM     18  O   UNL     1      -1.493  -5.815  -2.708  0.00  0.00    -0.465 OA
ATOM     19  C   UNL     1      -1.547  -6.336  -4.038  0.00  0.00    +0.280 C 
ENDBRANCH  16  18
ENDBRANCH   9  16
BRANCH   7  20
ATOM     20  C   UNL     1      -1.197  -0.527   0.206  0.00  0.00    +0.114 C 
BRANCH  20  22
ATOM     21  C   UNL     1      -2.543   1.578   0.233  0.00  0.00    +0.005 C 
ATOM     22  C   UNL     1      -2.611   0.053   0.133  0.00  0.00    +0.016 C 
ENDBRANCH  20  22
ENDBRANCH   7  20
ENDBRANCH   1  10
BRANCH   4  23
ATOM     23  N   UNL     1      -6.110  -7.884  -0.099  0.00  0.00    -0.269 N 
ATOM     24  C   UNL     1      -7.290  -7.320  -0.426  0.00  0.00    +0.308 C 
ATOM     25  O   UNL     1      -7.356  -6.123  -0.629  0.00  0.00    -0.252 OA
ATOM     26  N   UNL     1      -8.397  -8.082  -0.526  0.00  0.00    -0.269 N 
ATOM     27  H   UNL     1      -6.069  -8.826   0.126  0.00  0.00    +0.156 HD
ATOM     28  H   UNL     1      -8.362  -9.021  -0.286  0.00  0.00    +0.156 HD
BRANCH  26  29
ATOM     29  C   UNL     1      -9.595  -7.519  -0.978  0.00  0.00    +0.035 A 
ATOM     30  C   UNL     1      -9.576  -6.525  -1.948  0.00  0.00    +0.023 A 
ATOM     31  C   UNL     1     -10.761  -5.971  -2.391  0.00  0.00    +0.006 A 
ATOM     32  C   UNL     1     -11.966  -6.405  -1.870  0.00  0.00    -0.045 A 
ATOM     33  C   UNL     1     -11.989  -7.394  -0.904  0.00  0.00    +0.006 A 
ATOM     34  C   UNL     1     -10.808  -7.957  -0.461  0.00  0.00    +0.023 A 
BRANCH  32  35
ATOM     35  C   UNL     1     -13.257  -5.799  -2.356  0.00  0.00    +0.013 C 
ATOM     36  C   UNL     1     -14.136  -6.892  -2.966  0.00  0.00    +0.012 C 
ATOM     37  C   UNL     1     -13.991  -5.152  -1.180  0.00  0.00    +0.012 C 
ENDBRANCH  32  35
ENDBRANCH  26  29
ENDBRANCH   4  23
TORSDOF 8
