REMARK  Name = ZINC44173332
REMARK  8 active torsions:
REMARK  status: ('A' for Active; 'I' for Inactive)
REMARK    1  A    between atoms: C_1  and  C_2
REMARK    2  A    between atoms: C_2  and  C_3
REMARK    3  A    between atoms: C_6  and  N_9
REMARK    4  A    between atoms: C_14  and  C_26
REMARK    5  A    between atoms: C_17  and  C_22
REMARK    6  A    between atoms: C_17  and  C_23
REMARK    7  A    between atoms: C_29  and  C_32
REMARK    8  A    between atoms: C_33  and  C_34
REMARK                            x       y       z     vdW  Elec       q    Type
REMARK                         _______ _______ _______ _____ _____    ______ ____
ROOT
ATOM      1  N   UNL     1       2.747  -1.884   4.600  0.00  0.00    -0.210 N 
ATOM      2  C   UNL     1       4.101  -2.110   4.638  0.00  0.00    +0.229 C 
ATOM      3  O   UNL     1       4.933  -1.755   3.832  0.00  0.00    -0.275 OA
ATOM      4  C   UNL     1       4.315  -2.862   5.850  0.00  0.00    +0.077 C 
ATOM      5  C   UNL     1       5.384  -3.201   6.804  0.00  0.00    -0.027 C 
ATOM      6  N   UNL     1       4.615  -3.848   7.923  0.00  0.00    +0.395 N 
ATOM      7  C   UNL     1       3.205  -3.360   7.849  0.00  0.00    +0.045 C 
ATOM      8  C   UNL     1       3.233  -2.227   6.812  0.00  0.00    +0.086 C 
ATOM      9  C   UNL     1       2.133  -2.156   5.790  0.00  0.00    +0.229 C 
ATOM     10  O   UNL     1       0.946  -2.311   5.982  0.00  0.00    -0.275 OA
ATOM     11  C   UNL     1       2.275  -4.492   7.409  0.00  0.00    +0.002 C 
ATOM     12  H   UNL     1       4.635  -4.851   7.816  0.00  0.00    -0.083 HD
ATOM     13  H   UNL     1       5.020  -3.589   8.810  0.00  0.00    -0.083 HD
ENDROOT
BRANCH   1  17
ATOM     14  C   UNL     1       0.731  -0.503   1.223  0.00  0.00    -0.048 A 
ATOM     15  C   UNL     1       2.098  -0.709   1.175  0.00  0.00    +0.005 A 
ATOM     16  C   UNL     1       2.768  -1.167   2.292  0.00  0.00    +0.024 A 
ATOM     17  C   UNL     1       2.069  -1.419   3.465  0.00  0.00    +0.044 A 
ATOM     18  C   UNL     1       0.697  -1.211   3.510  0.00  0.00    +0.024 A 
ATOM     19  C   UNL     1       0.033  -0.749   2.391  0.00  0.00    +0.005 A 
BRANCH  14  21
ATOM     20  C   UNL     1      -0.019   1.526   0.010  0.00  0.00    +0.009 C 
ATOM     21  C   UNL     1       0.002  -0.004   0.002  0.00  0.00    +0.032 C 
ENDBRANCH  14  21
ENDBRANCH   1  17
BRANCH   5  22
ATOM     22  C   UNL     1       6.363  -4.170   6.193  0.00  0.00    -0.061 A 
ATOM     23  C   UNL     1       6.052  -5.517   6.134  0.00  0.00    +0.002 A 
ATOM     24  C   UNL     1       6.942  -6.410   5.575  0.00  0.00    +0.008 A 
ATOM     25  C   UNL     1       8.161  -5.952   5.069  0.00  0.00    -0.025 A 
ATOM     26  C   UNL     1       8.469  -4.590   5.132  0.00  0.00    +0.008 A 
ATOM     27  C   UNL     1       7.566  -3.708   5.689  0.00  0.00    +0.002 A 
BRANCH  25  28
ATOM     28  C   UNL     1       9.118  -6.900   4.471  0.00  0.00    +0.008 C 
ATOM     29  C   UNL     1      10.289  -6.456   3.985  0.00  0.00    +0.008 C 
BRANCH  29  30
ATOM     30  C   UNL     1      11.246  -7.404   3.388  0.00  0.00    -0.025 A 
ATOM     31  C   UNL     1      10.936  -8.765   3.319  0.00  0.00    +0.008 A 
ATOM     32  C   UNL     1      11.837  -9.646   2.758  0.00  0.00    +0.001 A 
ATOM     33  C   UNL     1      13.044  -9.185   2.263  0.00  0.00    +0.000 A 
ATOM     34  C   UNL     1      13.357  -7.839   2.327  0.00  0.00    +0.001 A 
ATOM     35  C   UNL     1      12.465  -6.945   2.881  0.00  0.00    +0.008 A 
ENDBRANCH  29  30
ENDBRANCH  25  28
ENDBRANCH   5  22
BRANCH   7  36
ATOM     36  C   UNL     1       2.771  -2.817   9.186  0.00  0.00    +0.346 C 
ATOM     37  O   UNL     1       3.536  -2.848  10.135  0.00  0.00    -0.248 OA
ATOM     38  O   UNL     1       1.654  -2.345   9.319  0.00  0.00    -0.248 OA
ENDBRANCH   7  36
TORSDOF 6
