REMARK  Name = ZINC22803850
REMARK  7 active torsions:
REMARK  status: ('A' for Active; 'I' for Inactive)
REMARK    1  A    between atoms: C_1  and  N_2
REMARK    2  A    between atoms: N_2  and  C_3
REMARK    3  A    between atoms: C_9  and  C_11
REMARK    4  A    between atoms: C_11  and  N_12
REMARK    5  A    between atoms: N_15  and  C_18
REMARK    6  A    between atoms: C_18  and  C_19
REMARK    7  A    between atoms: C_25  and  C_30
REMARK                            x       y       z     vdW  Elec       q    Type
REMARK                         _______ _______ _______ _____ _____    ______ ____
ROOT
ATOM      1  N   UNL     1      -0.020  -0.860  -3.591  0.00  0.00    -0.298 NA
ATOM      2  C   UNL     1       1.246  -1.604  -3.650  0.00  0.00    +0.066 C 
ATOM      3  C   UNL     1       1.185  -2.620  -4.792  0.00  0.00    -0.063 C 
ATOM      4  N   UNL     1       0.951  -1.918  -6.060  0.00  0.00    +0.386 N 
ATOM      5  C   UNL     1      -0.329  -1.200  -5.996  0.00  0.00    -0.063 C 
ATOM      6  C   UNL     1      -0.280  -0.171  -4.864  0.00  0.00    +0.066 C 
ATOM      7  H   UNL     1       1.698  -1.260  -6.223  0.00  0.00    -0.081 HD
ENDROOT
BRANCH   1   8
ATOM      8  C   UNL     1      -0.023   0.089  -2.470  0.00  0.00    +0.180 C 
BRANCH   8  11
ATOM      9  C   UNL     1      -0.018   1.461   0.010  0.00  0.00    +0.132 C 
ATOM     10  N   UNL     1       0.002  -0.004   0.002  0.00  0.00    -0.300 N 
ATOM     11  C   UNL     1       0.000  -0.672  -1.169  0.00  0.00    +0.230 C 
ATOM     12  O   UNL     1       0.017  -1.884  -1.175  0.00  0.00    -0.274 OA
BRANCH  10  13
ATOM     13  C   UNL     1       0.024  -0.743   1.267  0.00  0.00    +0.076 C 
ATOM     14  C   UNL     1       1.276  -0.361   2.059  0.00  0.00    +0.022 C 
ATOM     15  C   UNL     1       1.299  -1.133   3.380  0.00  0.00    +0.002 C 
ATOM     16  C   UNL     1       0.052  -0.785   4.196  0.00  0.00    +0.000 C 
ATOM     17  C   UNL     1      -1.199  -1.167   3.404  0.00  0.00    +0.002 C 
ATOM     18  C   UNL     1      -1.222  -0.395   2.083  0.00  0.00    +0.022 C 
ENDBRANCH  10  13
ENDBRANCH   8  11
ENDBRANCH   1   8
BRANCH   4  19
ATOM     19  C   UNL     1       0.911  -2.892  -7.159  0.00  0.00    -0.003 C 
BRANCH  19  20
ATOM     20  C   UNL     1       0.794  -2.164  -8.473  0.00  0.00    +0.094 A 
ATOM     21  N   UNL     1       0.734  -2.875  -9.628  0.00  0.00    -0.312 N 
ATOM     22  H   UNL     1       0.768  -3.844  -9.591  0.00  0.00    +0.170 HD
ATOM     23  C   UNL     1       0.629  -2.263 -10.822  0.00  0.00    +0.260 A 
ATOM     24  O   UNL     1       0.577  -2.916 -11.850  0.00  0.00    -0.267 OA
ATOM     25  C   UNL     1       0.580  -0.834 -10.866  0.00  0.00    +0.080 A 
ATOM     26  C   UNL     1       0.469   0.050 -12.021  0.00  0.00    +0.010 A 
ATOM     27  C   UNL     1       0.440   1.391 -11.815  0.00  0.00    +0.057 A 
ATOM     28  S   UNL     1       0.562   1.538 -10.043  0.00  0.00    -0.076 S 
ATOM     29  C   UNL     1       0.648  -0.183  -9.623  0.00  0.00    +0.116 A 
ATOM     30  N   UNL     1       0.746  -0.858  -8.481  0.00  0.00    -0.229 NA
BRANCH  26  31
ATOM     31  C   UNL     1       0.390  -0.503 -13.389  0.00  0.00    +0.021 A 
ATOM     32  C   UNL     1      -0.504  -0.216 -14.386  0.00  0.00    +0.016 A 
ATOM     33  C   UNL     1      -0.379  -0.867 -15.595  0.00  0.00    +0.008 A 
ATOM     34  C   UNL     1       0.621  -1.768 -15.761  0.00  0.00    +0.046 A 
ATOM     35  S   UNL     1       1.439  -1.716 -14.175  0.00  0.00    -0.097 S 
ENDBRANCH  26  31
ENDBRANCH  19  20
ENDBRANCH   4  19
TORSDOF 6
