REMARK  Name = ZINC02124077
REMARK  7 active torsions:
REMARK  status: ('A' for Active; 'I' for Inactive)
REMARK    1  A    between atoms: C_1  and  C_2
REMARK    2  A    between atoms: C_2  and  N_3
REMARK    3  A    between atoms: C_14  and  C_16
REMARK    4  A    between atoms: C_17  and  C_18
REMARK    5  A    between atoms: C_19  and  C_32
REMARK    6  A    between atoms: C_19  and  C_33
REMARK    7  A    between atoms: C_29  and  O_31
REMARK                            x       y       z     vdW  Elec       q    Type
REMARK                         _______ _______ _______ _____ _____    ______ ____
ROOT
ATOM      1  C   UNL     1       6.046  -1.693  -2.405  0.00  0.00    +0.008 C 
ATOM      2  C   UNL     1       7.021  -1.580  -1.514  0.00  0.00    +0.024 C 
ENDROOT
BRANCH   2   3
ATOM      3  C   UNL     1       8.437  -1.922  -1.899  0.00  0.00    +0.159 C 
ATOM      4  C   UNL     1       8.946  -3.108  -1.070  0.00  0.00    +0.037 C 
ATOM      5  C   UNL     1       9.021  -4.241  -2.056  0.00  0.00    -0.016 A 
ATOM      6  C   UNL     1       9.326  -5.572  -1.840  0.00  0.00    +0.006 A 
ATOM      7  C   UNL     1       9.308  -6.414  -2.945  0.00  0.00    +0.000 A 
ATOM      8  C   UNL     1       8.998  -5.941  -4.203  0.00  0.00    +0.002 A 
ATOM      9  C   UNL     1       8.698  -4.609  -4.431  0.00  0.00    +0.023 A 
ATOM     10  C   UNL     1       8.718  -3.747  -3.329  0.00  0.00    +0.036 A 
ATOM     11  N   UNL     1       8.493  -2.389  -3.299  0.00  0.00    -0.301 N 
ATOM     12  C   UNL     1       8.392  -1.438  -4.419  0.00  0.00    +0.117 C 
ATOM     13  C   UNL     1       9.540  -0.435  -4.235  0.00  0.00    +0.114 C 
ATOM     14  C   UNL     1       9.758  -0.118  -2.789  0.00  0.00    +0.186 C 
ATOM     15  N   UNL     1       9.291  -0.746  -1.788  0.00  0.00    -0.224 NA
ATOM     16  C   UNL     1      10.332  -2.805  -0.496  0.00  0.00    +0.020 C 
ATOM     17  C   UNL     1       7.960  -3.440   0.052  0.00  0.00    +0.020 C 
BRANCH  14  18
ATOM     18  O   UNL     1      10.519   0.963  -2.520  0.00  0.00    -0.496 OA
ATOM     19  H   UNL     1      10.637   1.136  -1.576  0.00  0.00    +0.293 HD
ENDBRANCH  14  18
ENDBRANCH   2   3
BRANCH   1  31
ATOM     20  N   UNL     1       0.688  -0.476  -1.203  0.00  0.00    -0.340 N 
ATOM     21  C   UNL     1       0.070  -0.736  -2.414  0.00  0.00    +0.050 A 
ATOM     22  C   UNL     1      -1.255  -0.642  -2.828  0.00  0.00    +0.026 A 
ATOM     23  C   UNL     1      -1.599  -0.971  -4.122  0.00  0.00    +0.002 A 
ATOM     24  C   UNL     1      -0.633  -1.399  -5.021  0.00  0.00    +0.001 A 
ATOM     25  C   UNL     1       0.684  -1.499  -4.629  0.00  0.00    +0.010 A 
ATOM     26  C   UNL     1       1.045  -1.168  -3.325  0.00  0.00    +0.008 A 
ATOM     27  C   UNL     1       2.328  -1.163  -2.598  0.00  0.00    +0.008 A 
ATOM     28  C   UNL     1       2.046  -0.721  -1.295  0.00  0.00    +0.050 A 
ATOM     29  C   UNL     1       3.081  -0.607  -0.369  0.00  0.00    +0.027 A 
ATOM     30  C   UNL     1       4.370  -0.922  -0.730  0.00  0.00    +0.010 A 
ATOM     31  C   UNL     1       4.657  -1.358  -2.027  0.00  0.00    -0.024 A 
ATOM     32  C   UNL     1       3.631  -1.485  -2.960  0.00  0.00    +0.018 A 
BRANCH  20  34
ATOM     33  C   UNL     1      -0.019   1.526   0.010  0.00  0.00    +0.027 C 
ATOM     34  C   UNL     1       0.002  -0.004   0.002  0.00  0.00    +0.119 C 
ENDBRANCH  20  34
ENDBRANCH   1  31
TORSDOF 4
