REMARK  Name = ZINC63182475
REMARK  8 active torsions:
REMARK  status: ('A' for Active; 'I' for Inactive)
REMARK    1  A    between atoms: C_1  and  C_2
REMARK    2  A    between atoms: C_4  and  C_31
REMARK    3  A    between atoms: C_6  and  N_8
REMARK    4  A    between atoms: C_9  and  C_11
REMARK    5  A    between atoms: C_11  and  C_13
REMARK    6  A    between atoms: C_11  and  N_23
REMARK    7  A    between atoms: C_13  and  C_14
REMARK    8  A    between atoms: C_24  and  C_26
REMARK                            x       y       z     vdW  Elec       q    Type
REMARK                         _______ _______ _______ _____ _____    ______ ____
ROOT
ATOM      1  C   UNL     1       0.280  -2.900   4.854  0.00  0.00    +0.163 C 
ENDROOT
BRANCH   1   3
ATOM      2  N   UNL     1       0.052  -2.797   2.393  0.00  0.00    -0.284 N 
ATOM      3  C   UNL     1       0.150  -2.134   3.562  0.00  0.00    +0.238 C 
ATOM      4  O   UNL     1       0.134  -0.922   3.575  0.00  0.00    -0.273 OA
ATOM      5  H   UNL     1      -0.012  -3.765   2.388  0.00  0.00    +0.155 HD
BRANCH   2  11
ATOM      6  C   UNL     1      -1.512  -2.365  -2.248  0.00  0.00    +0.044 C 
ATOM      7  C   UNL     1      -0.707  -1.857  -1.080  0.00  0.00    -0.048 A 
ATOM      8  C   UNL     1       0.025  -0.690  -1.201  0.00  0.00    +0.006 A 
ATOM      9  C   UNL     1       0.765  -0.220  -0.131  0.00  0.00    -0.048 A 
ATOM     10  C   UNL     1       0.776  -0.917   1.061  0.00  0.00    +0.026 A 
ATOM     11  C   UNL     1       0.043  -2.089   1.186  0.00  0.00    +0.034 A 
ATOM     12  C   UNL     1      -0.704  -2.555   0.112  0.00  0.00    +0.026 A 
ATOM     13  C   UNL     1       1.561   1.052  -0.268  0.00  0.00    +0.044 C 
ENDBRANCH   2  11
ENDBRANCH   1   3
BRANCH   1  14
ATOM     14  N   UNL     1       0.837  -2.024   5.887  0.00  0.00    -0.299 N 
ATOM     15  C   UNL     1       0.184  -0.898   6.240  0.00  0.00    +0.251 C 
ATOM     16  O   UNL     1      -0.868  -0.610   5.700  0.00  0.00    -0.270 OA
ATOM     17  H   UNL     1       1.676  -2.253   6.317  0.00  0.00    +0.150 HD
BRANCH  15  18
ATOM     18  C   UNL     1       0.742  -0.021   7.274  0.00  0.00    +0.074 A 
ATOM     19  C   UNL     1       0.233   1.164   7.781  0.00  0.00    +0.021 A 
ATOM     20  C   UNL     1       0.989   1.769   8.757  0.00  0.00    +0.008 A 
ATOM     21  C   UNL     1       2.149   1.186   9.148  0.00  0.00    +0.046 A 
ATOM     22  S   UNL     1       2.246  -0.206   8.212  0.00  0.00    -0.092 S 
ENDBRANCH  15  18
ENDBRANCH   1  14
BRANCH   1  23
ATOM     23  C   UNL     1      -1.099  -3.395   5.294  0.00  0.00    +0.065 C 
BRANCH  23  24
ATOM     24  C   UNL     1      -0.954  -4.263   6.517  0.00  0.00    -0.039 C 
ATOM     25  C   UNL     1      -1.085  -3.879   7.807  0.00  0.00    -0.001 A 
ATOM     26  C   UNL     1      -1.389  -2.587   8.434  0.00  0.00    +0.010 A 
ATOM     27  C   UNL     1      -1.455  -2.511   9.783  0.00  0.00    +0.001 A 
ATOM     28  C   UNL     1      -1.239  -3.632  10.595  0.00  0.00    +0.002 A 
ATOM     29  C   UNL     1      -0.956  -4.853  10.093  0.00  0.00    +0.026 A 
ATOM     30  C   UNL     1      -0.863  -5.048   8.688  0.00  0.00    +0.043 A 
ATOM     31  N   UNL     1      -0.604  -6.114   7.970  0.00  0.00    -0.380 N 
ATOM     32  C   UNL     1      -0.639  -5.742   6.551  0.00  0.00    +0.144 C 
ATOM     33  H   UNL     1      -0.423  -7.001   8.318  0.00  0.00    +0.160 HD
ENDBRANCH  23  24
ENDBRANCH   1  23
TORSDOF 6
