REMARK  Name = ZINC39694720
REMARK  6 active torsions:
REMARK  status: ('A' for Active; 'I' for Inactive)
REMARK    1  A    between atoms: C_1  and  C_2
REMARK    2  A    between atoms: C_4  and  C_35
REMARK    3  A    between atoms: C_6  and  C_8
REMARK    4  A    between atoms: C_8  and  N_9
REMARK    5  A    between atoms: C_10  and  C_12
REMARK    6  A    between atoms: C_23  and  C_25
REMARK                            x       y       z     vdW  Elec       q    Type
REMARK                         _______ _______ _______ _____ _____    ______ ____
ROOT
ATOM      1  C   UNL     1       2.776  -4.467   4.206  0.00  0.00    +0.100 C 
ATOM      2  C   UNL     1       3.744  -5.245   3.287  0.00  0.00    +0.121 C 
ATOM      3  N   UNL     1       4.615  -6.002   4.217  0.00  0.00    -0.296 N 
ATOM      4  C   UNL     1       3.700  -6.458   5.290  0.00  0.00    +0.115 C 
ATOM      5  C   UNL     1       2.749  -5.267   5.519  0.00  0.00    -0.004 C 
ATOM      6  C   UNL     1       1.336  -5.768   5.804  0.00  0.00    -0.010 C 
ATOM      7  C   UNL     1       1.323  -6.510   7.144  0.00  0.00    -0.082 C 
ATOM      8  N   UNL     1       1.768  -5.605   8.211  0.00  0.00    +0.379 N 
ATOM      9  C   UNL     1       3.160  -5.202   7.978  0.00  0.00    -0.082 C 
ATOM     10  C   UNL     1       3.251  -4.405   6.673  0.00  0.00    -0.010 C 
ATOM     11  C   UNL     1       5.940  -6.226   4.110  0.00  0.00    +0.247 C 
ATOM     12  O   UNL     1       6.580  -5.677   3.235  0.00  0.00    -0.270 OA
ATOM     13  H   UNL     1       1.179  -4.786   8.223  0.00  0.00    -0.086 HD
ATOM     14  H   UNL     1       1.700  -6.077   9.100  0.00  0.00    -0.086 HD
ENDROOT
BRANCH  11  15
ATOM     15  C   UNL     1       6.614  -7.138   5.058  0.00  0.00    +0.037 A 
ATOM     16  C   UNL     1       5.862  -8.101   5.754  0.00  0.00    +0.013 A 
ATOM     17  C   UNL     1       6.458  -8.950   6.629  0.00  0.00    +0.009 A 
ATOM     18  C   UNL     1       7.845  -8.873   6.850  0.00  0.00    -0.018 A 
ATOM     19  C   UNL     1       8.484  -9.741   7.751  0.00  0.00    +0.008 A 
ATOM     20  C   UNL     1       9.829  -9.643   7.944  0.00  0.00    +0.001 A 
ATOM     21  C   UNL     1      10.585  -8.693   7.261  0.00  0.00    +0.001 A 
ATOM     22  C   UNL     1      10.001  -7.835   6.380  0.00  0.00    +0.008 A 
ATOM     23  C   UNL     1       8.614  -7.906   6.154  0.00  0.00    -0.017 A 
ATOM     24  C   UNL     1       7.982  -7.041   5.249  0.00  0.00    +0.021 A 
ENDBRANCH  11  15
BRANCH   1  26
ATOM     25  N   UNL     1       0.590  -3.367   3.843  0.00  0.00    -0.311 N 
ATOM     26  C   UNL     1       1.399  -4.416   3.595  0.00  0.00    +0.218 C 
ATOM     27  O   UNL     1       1.020  -5.318   2.879  0.00  0.00    -0.275 OA
ATOM     28  H   UNL     1       0.893  -2.646   4.416  0.00  0.00    +0.149 HD
BRANCH  25  29
ATOM     29  C   UNL     1      -0.748  -3.318   3.249  0.00  0.00    +0.139 C 
BRANCH  29  35
ATOM     30  C   UNL     1      -3.680  -0.870   6.483  0.00  0.00    +0.044 C 
ATOM     31  C   UNL     1      -2.846  -0.881   5.228  0.00  0.00    -0.050 A 
ATOM     32  C   UNL     1      -2.719   0.269   4.472  0.00  0.00    +0.006 A 
ATOM     33  C   UNL     1      -1.954   0.259   3.321  0.00  0.00    -0.050 A 
ATOM     34  C   UNL     1      -1.317  -0.902   2.925  0.00  0.00    +0.008 A 
ATOM     35  C   UNL     1      -1.443  -2.052   3.681  0.00  0.00    -0.030 A 
ATOM     36  C   UNL     1      -2.204  -2.041   4.835  0.00  0.00    +0.008 A 
ATOM     37  C   UNL     1      -1.817   1.513   2.497  0.00  0.00    +0.044 C 
ENDBRANCH  29  35
ENDBRANCH  25  29
ENDBRANCH   1  26
TORSDOF 4
