REMARK  Name = ZINC03245507
REMARK  8 active torsions:
REMARK  status: ('A' for Active; 'I' for Inactive)
REMARK    1  A    between atoms: C_2  and  C_3
REMARK    2  A    between atoms: C_3  and  N_4
REMARK    3  A    between atoms: C_17  and  S_18
REMARK    4  A    between atoms: S_18  and  C_19
REMARK    5  A    between atoms: C_19  and  C_20
REMARK    6  A    between atoms: N_22  and  C_23
REMARK    7  A    between atoms: C_26  and  S_29
REMARK    8  A    between atoms: S_29  and  N_32
REMARK                            x       y       z     vdW  Elec       q    Type
REMARK                         _______ _______ _______ _____ _____    ______ ____
ROOT
ATOM      1  S   UNL     1       1.744   3.502   0.001  0.00  0.00    -0.076 S 
ENDROOT
BRANCH   1  15
ATOM      2  N   UNL     1       1.806  -1.669  -0.050  0.00  0.00    -0.273 N 
ATOM      3  C   UNL     1       3.143  -1.848  -0.056  0.00  0.00    +0.263 A 
ATOM      4  O   UNL     1       3.616  -2.968  -0.068  0.00  0.00    -0.267 OA
ATOM      5  C   UNL     1       4.019  -0.663  -0.047  0.00  0.00    +0.064 A 
ATOM      6  C   UNL     1       5.407  -0.790  -0.053  0.00  0.00    +0.015 A 
ATOM      7  C   UNL     1       6.195   0.343  -0.046  0.00  0.00    +0.001 A 
ATOM      8  C   UNL     1       5.613   1.600  -0.031  0.00  0.00    +0.002 A 
ATOM      9  C   UNL     1       4.239   1.739  -0.025  0.00  0.00    +0.027 A 
ATOM     10  C   UNL     1       3.432   0.611  -0.033  0.00  0.00    +0.064 A 
ATOM     11  N   UNL     1       2.043   0.723  -0.027  0.00  0.00    -0.256 N 
ATOM     12  C   UNL     1       1.256  -0.396  -0.035  0.00  0.00    +0.240 A 
ATOM     13  N   UNL     1       0.001  -0.004  -0.026  0.00  0.00    -0.109 NA
ATOM     14  N   UNL     1      -0.018   1.396  -0.012  0.00  0.00    -0.120 NA
ATOM     15  C   UNL     1       1.223   1.819  -0.013  0.00  0.00    +0.198 A 
BRANCH   2  16
ATOM     16  C   UNL     1       0.922  -2.837  -0.057  0.00  0.00    +0.155 C 
BRANCH  16  18
ATOM     17  C   UNL     1       0.850  -4.443  -1.894  0.00  0.00    +0.005 C 
ATOM     18  C   UNL     1       0.613  -3.223  -1.481  0.00  0.00    -0.013 C 
ENDBRANCH  16  18
ENDBRANCH   2  16
ENDBRANCH   1  15
BRANCH   1  19
ATOM     19  C   UNL     1       0.192   4.441   0.016  0.00  0.00    +0.173 C 
BRANCH  19  20
ATOM     20  C   UNL     1       0.498   5.917   0.029  0.00  0.00    +0.227 C 
ATOM     21  O   UNL     1       1.649   6.297   0.028  0.00  0.00    -0.275 OA
ATOM     22  N   UNL     1      -0.508   6.814   0.042  0.00  0.00    -0.285 N 
ATOM     23  H   UNL     1      -1.428   6.512  -0.025  0.00  0.00    +0.155 HD
BRANCH  22  24
ATOM     24  C   UNL     1      -0.226   8.180   0.151  0.00  0.00    +0.034 A 
ATOM     25  C   UNL     1      -1.085   9.013   0.855  0.00  0.00    +0.025 A 
ATOM     26  C   UNL     1      -0.801  10.360   0.967  0.00  0.00    +0.030 A 
ATOM     27  C   UNL     1       0.331  10.881   0.368  0.00  0.00    +0.105 A 
ATOM     28  C   UNL     1       1.186  10.055  -0.339  0.00  0.00    +0.030 A 
ATOM     29  C   UNL     1       0.910   8.706  -0.449  0.00  0.00    +0.025 A 
BRANCH  27  30
ATOM     30  S   UNL     1       0.687  12.601   0.507  0.00  0.00    +0.056 S 
ATOM     31  O   UNL     1       0.024  13.060   1.677  0.00  0.00    -0.153 OA
ATOM     32  O   UNL     1       2.088  12.743   0.321  0.00  0.00    -0.153 OA
BRANCH  30  33
ATOM     33  N   UNL     1      -0.040  13.356  -0.775  0.00  0.00    -0.204 NA
ATOM     34  H   UNL     1      -0.348  14.272  -0.688  0.00  0.00    +0.144 HD
ATOM     35  H   UNL     1      -0.157  12.883  -1.614  0.00  0.00    +0.144 HD
ENDBRANCH  30  33
ENDBRANCH  27  30
ENDBRANCH  22  24
ENDBRANCH  19  20
ENDBRANCH   1  19
TORSDOF 8
