REMARK  Name = ZINC12659251
REMARK  11 active torsions:
REMARK  status: ('A' for Active; 'I' for Inactive)
REMARK    1  A    between atoms: C_1  and  C_2
REMARK    2  A    between atoms: C_2  and  C_3
REMARK    3  A    between atoms: C_2  and  O_4
REMARK    4  A    between atoms: O_4  and  C_5
REMARK    5  A    between atoms: C_8  and  C_11
REMARK    6  A    between atoms: C_12  and  C_13
REMARK    7  A    between atoms: C_12  and  N_24
REMARK    8  A    between atoms: N_15  and  C_16
REMARK    9  A    between atoms: C_19  and  O_22
REMARK   10  A    between atoms: O_22  and  C_23
REMARK   11  A    between atoms: C_25  and  C_27
REMARK                            x       y       z     vdW  Elec       q    Type
REMARK                         _______ _______ _______ _____ _____    ______ ____
ROOT
ATOM      1  C   UNL     1       3.750  -4.654   1.266  0.00  0.00    +0.036 C 
ATOM      2  C   UNL     1       2.659  -3.988   0.817  0.00  0.00    +0.097 C 
ENDROOT
BRANCH   1   6
ATOM      3  C   UNL     1       4.229  -8.775   0.386  0.00  0.00    +0.121 A 
ATOM      4  C   UNL     1       5.348  -7.967   0.547  0.00  0.00    +0.046 A 
ATOM      5  C   UNL     1       5.198  -6.628   0.832  0.00  0.00    +0.011 A 
ATOM      6  C   UNL     1       3.916  -6.082   0.961  0.00  0.00    -0.023 A 
ATOM      7  C   UNL     1       2.792  -6.902   0.803  0.00  0.00    +0.011 A 
ATOM      8  C   UNL     1       2.954  -8.238   0.513  0.00  0.00    +0.046 A 
BRANCH   3   9
ATOM      9  O   UNL     1       4.383 -10.095   0.105  0.00  0.00    -0.489 OA
BRANCH   9  11
ATOM     10  C   UNL     1       6.396 -10.771   1.258  0.00  0.00    +0.051 C 
ATOM     11  C   UNL     1       5.718 -10.564  -0.097  0.00  0.00    +0.167 C 
ATOM     12  C   UNL     1       5.682 -11.891  -0.858  0.00  0.00    +0.051 C 
ENDBRANCH   9  11
ENDBRANCH   3   9
ENDBRANCH   1   6
BRANCH   2  13
ATOM     13  C   UNL     1       2.413  -2.607   1.250  0.00  0.00    +0.262 C 
ATOM     14  O   UNL     1       3.121  -2.100   2.100  0.00  0.00    -0.268 OA
ATOM     15  N   UNL     1       1.402  -1.900   0.705  0.00  0.00    -0.280 N 
ATOM     16  H   UNL     1       0.788  -2.329   0.088  0.00  0.00    +0.155 HD
BRANCH  15  17
ATOM     17  C   UNL     1       1.239  -0.548   1.030  0.00  0.00    +0.034 A 
ATOM     18  C   UNL     1       0.615   0.311   0.135  0.00  0.00    +0.027 A 
ATOM     19  C   UNL     1       0.454   1.644   0.457  0.00  0.00    +0.047 A 
ATOM     20  C   UNL     1       0.915   2.125   1.674  0.00  0.00    +0.120 A 
ATOM     21  C   UNL     1       1.538   1.267   2.568  0.00  0.00    +0.047 A 
ATOM     22  C   UNL     1       1.700  -0.066   2.248  0.00  0.00    +0.027 A 
BRANCH  20  23
ATOM     23  O   UNL     1       0.756   3.438   1.989  0.00  0.00    -0.495 OA
ATOM     24  C   UNL     1       1.254   3.865   3.259  0.00  0.00    +0.277 C 
ENDBRANCH  20  23
ENDBRANCH  15  17
ENDBRANCH   2  13
BRANCH   2  25
ATOM     25  N   UNL     1       1.767  -4.617  -0.059  0.00  0.00    -0.277 N 
ATOM     26  C   UNL     1       0.510  -4.890   0.341  0.00  0.00    +0.249 C 
ATOM     27  O   UNL     1       0.150  -4.588   1.463  0.00  0.00    -0.270 OA
ATOM     28  H   UNL     1       2.054  -4.856  -0.954  0.00  0.00    +0.155 HD
BRANCH  26  29
ATOM     29  C   UNL     1      -0.431  -5.556  -0.583  0.00  0.00    +0.051 A 
ATOM     30  C   UNL     1      -0.023  -5.899  -1.873  0.00  0.00    +0.014 A 
ATOM     31  C   UNL     1      -0.905  -6.525  -2.729  0.00  0.00    +0.001 A 
ATOM     32  C   UNL     1      -2.195  -6.805  -2.315  0.00  0.00    +0.001 A 
ATOM     33  C   UNL     1      -2.609  -6.464  -1.040  0.00  0.00    +0.016 A 
ATOM     34  C   UNL     1      -1.735  -5.841  -0.171  0.00  0.00    +0.030 A 
ATOM     35 BR   UNL     1      -2.303  -5.374   1.571  0.00  0.00    -0.050 Br
ENDBRANCH  26  29
ENDBRANCH   2  25
TORSDOF 8
