REMARK  Name = ZINC64002432
REMARK  6 active torsions:
REMARK  status: ('A' for Active; 'I' for Inactive)
REMARK    1  A    between atoms: C_1  and  C_2
REMARK    2  A    between atoms: C_7  and  C_12
REMARK    3  A    between atoms: C_26  and  N_32
REMARK    4  A    between atoms: C_28  and  O_30
REMARK    5  A    between atoms: O_30  and  C_31
REMARK    6  A    between atoms: C_33  and  C_35
REMARK                            x       y       z     vdW  Elec       q    Type
REMARK                         _______ _______ _______ _____ _____    ______ ____
ROOT
ATOM      1  C   UNL     1      -1.156  -5.200   1.853  0.00  0.00    +0.242 C 
ATOM      2  O   UNL     1      -2.119  -5.224   1.115  0.00  0.00    -0.273 OA
ATOM      3  N   UNL     1      -1.181  -5.883   3.014  0.00  0.00    -0.299 N 
ATOM      4  C   UNL     1      -0.024  -5.859   3.920  0.00  0.00    +0.109 C 
ATOM      5  C   UNL     1       0.395  -7.302   4.223  0.00  0.00    +0.033 C 
ATOM      6  C   UNL     1      -0.810  -8.079   4.745  0.00  0.00    +0.027 C 
ATOM      7  C   UNL     1      -1.927  -8.101   3.705  0.00  0.00    +0.033 C 
ATOM      8  C   UNL     1      -2.366  -6.660   3.400  0.00  0.00    +0.109 C 
ATOM      9  C   UNL     1      -0.407  -9.488   5.111  0.00  0.00    -0.034 A 
ATOM     10  C   UNL     1      -0.183 -10.598   4.314  0.00  0.00    +0.004 A 
ATOM     11  C   UNL     1       0.182 -11.802   4.884  0.00  0.00    +0.000 A 
ATOM     12  C   UNL     1       0.325 -11.901   6.255  0.00  0.00    +0.000 A 
ATOM     13  C   UNL     1       0.102 -10.795   7.053  0.00  0.00    +0.006 A 
ATOM     14  C   UNL     1      -0.265  -9.588   6.484  0.00  0.00    -0.021 A 
ATOM     15  C   UNL     1      -0.563  -8.250   7.128  0.00  0.00    +0.133 C 
ATOM     16  C   UNL     1      -1.320  -7.442   6.051  0.00  0.00    +0.153 C 
ENDROOT
BRANCH   1  23
ATOM     17  C   UNL     1      -0.018   1.503   0.010  0.00  0.00    +0.044 C 
ATOM     18  C   UNL     1       0.002  -0.004   0.002  0.00  0.00    -0.050 A 
ATOM     19  C   UNL     1       0.005  -0.680  -1.226  0.00  0.00    +0.005 A 
ATOM     20  C   UNL     1       0.023  -2.026  -1.317  0.00  0.00    +0.026 A 
ATOM     21  C   UNL     1       0.039  -2.826  -0.141  0.00  0.00    +0.043 A 
ATOM     22  N   UNL     1       0.057  -4.126   0.030  0.00  0.00    -0.370 N 
ATOM     23  C   UNL     1       0.067  -4.408   1.470  0.00  0.00    +0.190 C 
ATOM     24  C   UNL     1       0.052  -3.060   2.156  0.00  0.00    +0.016 C 
ATOM     25  C   UNL     1       0.036  -2.137   1.168  0.00  0.00    -0.003 A 
ATOM     26  C   UNL     1       0.022  -0.669   1.180  0.00  0.00    +0.013 A 
ATOM     27  H   UNL     1       0.062  -4.790  -0.677  0.00  0.00    +0.161 HD
ENDBRANCH   1  23
BRANCH  15  28
ATOM     28  N   UNL     1       0.684  -7.572   7.491  0.00  0.00    -0.302 N 
ATOM     29  C   UNL     1       1.267  -7.826   8.680  0.00  0.00    +0.245 C 
ATOM     30  O   UNL     1       0.759  -8.618   9.449  0.00  0.00    -0.270 OA
ATOM     31  H   UNL     1       1.090  -6.940   6.877  0.00  0.00    +0.150 HD
BRANCH  29  32
ATOM     32  C   UNL     1       2.528  -7.141   9.048  0.00  0.00    +0.040 A 
ATOM     33  C   UNL     1       3.126  -6.222   8.180  0.00  0.00    +0.033 A 
ATOM     34  C   UNL     1       4.301  -5.605   8.563  0.00  0.00    +0.111 A 
ATOM     35  N   UNL     1       4.857  -5.873   9.728  0.00  0.00    -0.263 NA
ATOM     36  C   UNL     1       4.327  -6.732  10.575  0.00  0.00    +0.111 A 
ATOM     37  C   UNL     1       3.149  -7.390  10.275  0.00  0.00    +0.033 A 
ENDBRANCH  29  32
ENDBRANCH  15  28
BRANCH  16  38
ATOM     38  O   UNL     1      -2.732  -7.616   6.184  0.00  0.00    -0.377 OA
ATOM     39  C   UNL     1      -3.380  -6.570   6.910  0.00  0.00    +0.194 C 
ENDBRANCH  16  38
TORSDOF 4
