REMARK  Name = ZINC38679995
REMARK  11 active torsions:
REMARK  status: ('A' for Active; 'I' for Inactive)
REMARK    1  A    between atoms: C_1  and  C_2
REMARK    2  A    between atoms: C_2  and  C_3
REMARK    3  A    between atoms: C_6  and  O_9
REMARK    4  A    between atoms: O_9  and  C_10
REMARK    5  A    between atoms: C_10  and  C_12
REMARK    6  A    between atoms: C_10  and  C_13
REMARK    7  A    between atoms: C_13  and  O_15
REMARK    8  A    between atoms: O_15  and  C_16
REMARK    9  A    between atoms: C_23  and  N_37
REMARK   10  A    between atoms: C_24  and  C_35
REMARK   11  A    between atoms: C_25  and  C_27
REMARK                            x       y       z     vdW  Elec       q    Type
REMARK                         _______ _______ _______ _____ _____    ______ ____
ROOT
ATOM      1  C   UNL     1       2.966  -4.421   8.136  0.00  0.00    +0.135 A 
ATOM      2  C   UNL     1       4.141  -4.862   7.544  0.00  0.00    +0.047 A 
ATOM      3  C   UNL     1       4.929  -5.796   8.187  0.00  0.00    +0.012 A 
ATOM      4  C   UNL     1       4.551  -6.297   9.421  0.00  0.00    +0.008 A 
ATOM      5  C   UNL     1       3.377  -5.860  10.016  0.00  0.00    +0.138 A 
ATOM      6  C   UNL     1       2.587  -4.915   9.373  0.00  0.00    +0.093 A 
ATOM      7  O   UNL     1       2.990  -6.338  11.224  0.00  0.00    -0.441 OA
ATOM      8  C   UNL     1       3.503  -7.492  11.683  0.00  0.00    +0.199 C 
ATOM      9  C   UNL     1       4.654  -8.010  11.194  0.00  0.00    +0.098 C 
ATOM     10  C   UNL     1       5.423  -7.315  10.105  0.00  0.00    +0.101 C 
ENDROOT
BRANCH  10  11
ATOM     11  C   UNL     1       6.622  -6.624  10.703  0.00  0.00    +0.002 A 
ATOM     12  C   UNL     1       6.448  -5.641  11.660  0.00  0.00    +0.046 A 
ATOM     13  C   UNL     1       7.548  -5.007  12.208  0.00  0.00    +0.020 A 
ATOM     14  C   UNL     1       8.822  -5.356  11.800  0.00  0.00    +0.003 A 
ATOM     15  C   UNL     1       8.997  -6.339  10.844  0.00  0.00    +0.020 A 
ATOM     16  C   UNL     1       7.897  -6.978  10.299  0.00  0.00    +0.046 A 
ATOM     17 CL   UNL     1       8.116  -8.218   9.105  0.00  0.00    -0.083 Cl
ATOM     18 CL   UNL     1       4.848  -5.201  12.172  0.00  0.00    -0.083 Cl
ENDBRANCH  10  11
BRANCH   8  19
ATOM     19  N   UNL     1       2.840  -8.165  12.679  0.00  0.00    -0.328 N 
ATOM     20  H   UNL     1       2.014  -7.807  13.040  0.00  0.00    +0.145 HD
ATOM     21  H   UNL     1       3.197  -9.000  13.021  0.00  0.00    +0.145 HD
ENDBRANCH   8  19
BRANCH   9  22
ATOM     22  C   UNL     1       5.150  -9.244  11.725  0.00  0.00    +0.101 C 
ATOM     23  N   UNL     1       5.543 -10.223  12.146  0.00  0.00    -0.191 NA
ENDBRANCH   9  22
BRANCH   1  24
ATOM     24  O   UNL     1       2.189  -3.501   7.504  0.00  0.00    -0.423 OA
BRANCH  24  25
ATOM     25  C   UNL     1       1.570  -3.870   6.371  0.00  0.00    +0.353 C 
ATOM     26  O   UNL     1       1.632  -5.016   5.995  0.00  0.00    -0.246 OA
BRANCH  25  27
ATOM     27  C   UNL     1       0.798  -2.854   5.569  0.00  0.00    +0.279 C 
ATOM     28  C   UNL     1       1.761  -1.798   5.022  0.00  0.00    +0.064 C 
BRANCH  27  29
ATOM     29  O   UNL     1       0.140  -3.506   4.482  0.00  0.00    -0.478 OA
BRANCH  29  33
ATOM     30  C   UNL     1      -3.153  -1.609   2.876  0.00  0.00    -0.047 A 
ATOM     31  C   UNL     1      -2.515  -1.071   3.979  0.00  0.00    +0.007 A 
ATOM     32  C   UNL     1      -1.413  -1.704   4.519  0.00  0.00    +0.046 A 
ATOM     33  C   UNL     1      -0.945  -2.881   3.953  0.00  0.00    +0.122 A 
ATOM     34  C   UNL     1      -1.586  -3.420   2.847  0.00  0.00    +0.046 A 
ATOM     35  C   UNL     1      -2.692  -2.785   2.314  0.00  0.00    +0.007 A 
BRANCH  30  37
ATOM     36  C   UNL     1      -5.625  -1.436   2.966  0.00  0.00    +0.009 C 
ATOM     37  C   UNL     1      -4.355  -0.915   2.289  0.00  0.00    +0.032 C 
ENDBRANCH  30  37
ENDBRANCH  29  33
ENDBRANCH  27  29
ENDBRANCH  25  27
ENDBRANCH  24  25
ENDBRANCH   1  24
TORSDOF 9
