REMARK  Name = ZINC04084343
REMARK  6 active torsions:
REMARK  status: ('A' for Active; 'I' for Inactive)
REMARK    1  A    between atoms: C_1  and  C_2
REMARK    2  A    between atoms: C_2  and  C_3
REMARK    3  A    between atoms: C_3  and  C_5
REMARK    4  A    between atoms: C_3  and  C_6
REMARK    5  A    between atoms: N_14  and  C_17
REMARK    6  A    between atoms: C_17  and  C_18
REMARK                            x       y       z     vdW  Elec       q    Type
REMARK                         _______ _______ _______ _____ _____    ______ ____
ROOT
ATOM      1  C   UNL     1      -1.829   0.909  -4.251  0.00  0.00    -0.054 C 
ATOM      2  C   UNL     1      -2.221   1.656  -2.958  0.00  0.00    +0.073 C 
ATOM      3  C   UNL     1      -1.343   2.939  -2.957  0.00  0.00    +0.088 C 
ATOM      4  C   UNL     1      -0.434   2.739  -1.766  0.00  0.00    +0.225 C 
ATOM      5  O   UNL     1       0.422   3.515  -1.399  0.00  0.00    -0.275 OA
ATOM      6  N   UNL     1      -0.721   1.571  -1.179  0.00  0.00    -0.237 N 
ATOM      7  C   UNL     1      -1.705   0.880  -1.767  0.00  0.00    +0.224 C 
ATOM      8  O   UNL     1      -2.119  -0.198  -1.401  0.00  0.00    -0.275 OA
ATOM      9  C   UNL     1      -0.527   2.850  -4.253  0.00  0.00    +0.050 C 
ATOM     10  C   UNL     1      -0.314   4.205  -4.865  0.00  0.00    -0.028 A 
ATOM     11  C   UNL     1      -1.168   5.185  -5.320  0.00  0.00    +0.004 A 
ATOM     12  C   UNL     1      -0.658   6.358  -5.848  0.00  0.00    +0.000 A 
ATOM     13  C   UNL     1       0.711   6.544  -5.915  0.00  0.00    +0.002 A 
ATOM     14  C   UNL     1       1.570   5.566  -5.460  0.00  0.00    +0.023 A 
ATOM     15  C   UNL     1       1.065   4.381  -4.928  0.00  0.00    +0.036 A 
ATOM     16  N   UNL     1       1.719   3.261  -4.413  0.00  0.00    -0.286 N 
ATOM     17  C   UNL     1       0.855   2.315  -3.995  0.00  0.00    +0.211 C 
ATOM     18  O   UNL     1       1.137   1.242  -3.506  0.00  0.00    -0.277 OA
ATOM     19  H   UNL     1       2.684   3.173  -4.361  0.00  0.00    +0.155 HD
ATOM     20  N   UNL     1      -1.284   1.960  -5.115  0.00  0.00    +0.394 N 
ATOM     21  H   UNL     1      -2.046   2.473  -5.573  0.00  0.00    -0.083 HD
ATOM     22  H   UNL     1      -0.670   1.550  -5.828  0.00  0.00    -0.083 HD
ENDROOT
BRANCH   1  23
ATOM     23  C   UNL     1      -3.058   0.251  -4.880  0.00  0.00    -0.028 C 
ATOM     24  C   UNL     1      -4.075   1.329  -5.262  0.00  0.00    +0.006 C 
BRANCH  23  26
ATOM     25  C   UNL     1      -3.844  -1.281  -6.690  0.00  0.00    +0.004 C 
ATOM     26  C   UNL     1      -2.639  -0.521  -6.132  0.00  0.00    -0.002 C 
ENDBRANCH  23  26
ENDBRANCH   1  23
BRANCH   6  27
ATOM     27  C   UNL     1      -0.013   1.086   0.008  0.00  0.00    +0.151 C 
BRANCH  27  28
ATOM     28  C   UNL     1      -0.718   1.572   1.248  0.00  0.00    -0.030 A 
ATOM     29  C   UNL     1      -0.360   2.779   1.819  0.00  0.00    +0.005 A 
ATOM     30  C   UNL     1      -1.010   3.227   2.954  0.00  0.00    +0.000 A 
ATOM     31  C   UNL     1      -2.012   2.463   3.523  0.00  0.00    +0.000 A 
ATOM     32  C   UNL     1      -2.366   1.254   2.955  0.00  0.00    +0.000 A 
ATOM     33  C   UNL     1      -1.719   0.808   1.818  0.00  0.00    +0.005 A 
ENDBRANCH  27  28
ENDBRANCH   6  27
TORSDOF 4
