REMARK  Name = ZINC34786395
REMARK  9 active torsions:
REMARK  status: ('A' for Active; 'I' for Inactive)
REMARK    1  A    between atoms: C_1  and  C_2
REMARK    2  A    between atoms: C_5  and  N_8
REMARK    3  A    between atoms: N_8  and  N_9
REMARK    4  A    between atoms: N_9  and  N_32
REMARK    5  A    between atoms: C_20  and  C_25
REMARK    6  A    between atoms: C_22  and  C_24
REMARK    7  A    between atoms: C_28  and  C_30
REMARK    8  A    between atoms: C_28  and  C_31
REMARK    9  A    between atoms: N_32  and  C_33
REMARK                            x       y       z     vdW  Elec       q    Type
REMARK                         _______ _______ _______ _____ _____    ______ ____
ROOT
ATOM      1  N   UNL     1       0.068  -5.135   1.291  0.00  0.00    -0.166 N 
ATOM      2  C   UNL     1      -1.026  -5.826   1.780  0.00  0.00    +0.167 A 
ATOM      3  C   UNL     1      -2.276  -5.768   1.103  0.00  0.00    +0.054 A 
ATOM      4  C   UNL     1      -2.626  -5.043  -0.117  0.00  0.00    -0.020 A 
ATOM      5  C   UNL     1      -3.898  -5.156  -0.557  0.00  0.00    +0.021 A 
ATOM      6  S   UNL     1      -4.696  -6.221   0.611  0.00  0.00    -0.071 S 
ATOM      7  C   UNL     1      -3.319  -6.512   1.691  0.00  0.00    +0.116 A 
ATOM      8  N   UNL     1      -3.133  -7.208   2.795  0.00  0.00    -0.203 NA
ATOM      9  C   UNL     1      -1.947  -7.225   3.383  0.00  0.00    +0.254 A 
ATOM     10  N   UNL     1      -0.920  -6.551   2.880  0.00  0.00    -0.192 NA
ATOM     11  N   UNL     1      -1.772  -7.967   4.551  0.00  0.00    -0.202 N 
ATOM     12  C   UNL     1      -2.721  -8.712   5.176  0.00  0.00    +0.045 A 
ATOM     13  C   UNL     1      -2.150  -9.270   6.268  0.00  0.00    +0.048 A 
ATOM     14  C   UNL     1      -0.813  -8.858   6.314  0.00  0.00    +0.061 A 
ATOM     15  N   UNL     1      -0.584  -8.084   5.285  0.00  0.00    -0.169 NA
ATOM     16  C   UNL     1       0.193  -9.245   7.367  0.00  0.00    +0.067 C 
ATOM     17  C   UNL     1      -4.152  -8.883   4.734  0.00  0.00    +0.066 C 
ATOM     18  C   UNL     1      -4.475  -4.505  -1.775  0.00  0.00    +0.203 C 
ATOM     19  O   UNL     1      -3.553  -3.495  -2.215  0.00  0.00    -0.368 OA
ATOM     20  C   UNL     1      -2.202  -3.957  -2.301  0.00  0.00    +0.068 C 
ATOM     21  C   UNL     1      -1.633  -4.184  -0.897  0.00  0.00    +0.071 C 
ATOM     22  C   UNL     1      -2.163  -5.271  -3.083  0.00  0.00    +0.041 C 
ATOM     23  C   UNL     1      -1.354  -2.911  -3.028  0.00  0.00    +0.041 C 
ENDROOT
BRANCH   1  24
ATOM     24  N   UNL     1       0.011  -3.742   1.151  0.00  0.00    -0.249 N 
ATOM     25  H   UNL     1      -0.060  -3.345   0.269  0.00  0.00    +0.172 HD
BRANCH  24  30
ATOM     26  C   UNL     1       0.201  -0.423   5.745  0.00  0.00    +0.044 C 
ATOM     27  C   UNL     1       0.150  -1.305   4.525  0.00  0.00    -0.050 A 
ATOM     28  C   UNL     1       0.088  -0.737   3.265  0.00  0.00    +0.005 A 
ATOM     29  C   UNL     1       0.042  -1.542   2.144  0.00  0.00    +0.025 A 
ATOM     30  C   UNL     1       0.058  -2.924   2.283  0.00  0.00    +0.046 A 
ATOM     31  C   UNL     1       0.120  -3.492   3.549  0.00  0.00    +0.025 A 
ATOM     32  C   UNL     1       0.171  -2.680   4.666  0.00  0.00    +0.005 A 
ENDBRANCH  24  30
ENDBRANCH   1  24
BRANCH   1  33
ATOM     33  N   UNL     1       1.203  -5.811   0.943  0.00  0.00    -0.218 NA
ATOM     34  H   UNL     1       1.610  -5.426   0.104  0.00  0.00    +0.146 HD
BRANCH  33  35
ATOM     35  C   UNL     1       2.173  -5.813   2.046  0.00  0.00    +0.075 C 
ATOM     36  C   UNL     1       3.187  -4.686   1.836  0.00  0.00    +0.020 C 
ATOM     37  C   UNL     1       4.197  -4.689   2.985  0.00  0.00    +0.002 C 
ATOM     38  C   UNL     1       4.928  -6.033   3.018  0.00  0.00    +0.000 C 
ATOM     39  C   UNL     1       3.914  -7.159   3.228  0.00  0.00    +0.002 C 
ATOM     40  C   UNL     1       2.904  -7.157   2.079  0.00  0.00    +0.020 C 
ENDBRANCH  33  35
ENDBRANCH   1  33
TORSDOF 4
