REMARK  Name = ZINC39664625
REMARK  8 active torsions:
REMARK  status: ('A' for Active; 'I' for Inactive)
REMARK    1  A    between atoms: C_1  and  N_2
REMARK    2  A    between atoms: N_2  and  C_3
REMARK    3  A    between atoms: N_2  and  C_4
REMARK    4  A    between atoms: C_4  and  C_5
REMARK    5  A    between atoms: C_5  and  C_7
REMARK    6  A    between atoms: C_5  and  N_13
REMARK    7  A    between atoms: C_14  and  C_16
REMARK    8  A    between atoms: C_27  and  C_29
REMARK                            x       y       z     vdW  Elec       q    Type
REMARK                         _______ _______ _______ _____ _____    ______ ____
ROOT
ATOM      1  C   UNL     1      -0.001   5.742   1.416  0.00  0.00    +0.100 C 
ATOM      2  C   UNL     1       0.932   5.328   0.256  0.00  0.00    +0.121 C 
ATOM      3  N   UNL     1       0.016   4.888  -0.823  0.00  0.00    -0.296 N 
ATOM      4  C   UNL     1      -1.111   5.848  -0.764  0.00  0.00    +0.115 C 
ATOM      5  C   UNL     1      -1.340   6.085   0.742  0.00  0.00    -0.004 C 
ATOM      6  C   UNL     1      -2.443   5.166   1.258  0.00  0.00    -0.010 C 
ATOM      7  C   UNL     1      -3.775   5.565   0.616  0.00  0.00    -0.082 C 
ATOM      8  N   UNL     1      -4.080   6.962   0.946  0.00  0.00    +0.379 N 
ATOM      9  C   UNL     1      -3.063   7.848   0.366  0.00  0.00    -0.082 C 
ATOM     10  C   UNL     1      -1.701   7.545   0.998  0.00  0.00    -0.010 C 
ATOM     11  C   UNL     1       0.173   3.848  -1.667  0.00  0.00    +0.247 C 
ATOM     12  O   UNL     1      -0.755   3.484  -2.362  0.00  0.00    -0.270 OA
ATOM     13  H   UNL     1      -4.987   7.204   0.574  0.00  0.00    -0.086 HD
ATOM     14  H   UNL     1      -4.091   7.075   1.949  0.00  0.00    -0.086 HD
ENDROOT
BRANCH  11  15
ATOM     15  C   UNL     1       1.474   3.151  -1.747  0.00  0.00    +0.042 A 
ATOM     16  C   UNL     1       2.081   2.665  -0.588  0.00  0.00    +0.051 A 
ATOM     17  C   UNL     1       3.297   2.014  -0.669  0.00  0.00    +0.127 A 
ATOM     18  C   UNL     1       3.914   1.844  -1.897  0.00  0.00    +0.076 A 
ATOM     19  C   UNL     1       3.317   2.324  -3.051  0.00  0.00    +0.127 A 
ATOM     20  C   UNL     1       2.098   2.972  -2.982  0.00  0.00    +0.051 A 
ATOM     21  F   UNL     1       3.924   2.155  -4.246  0.00  0.00    -0.205 F 
ATOM     22  F   UNL     1       3.886   1.543   0.452  0.00  0.00    -0.205 F 
ENDBRANCH  11  15
BRANCH   1  24
ATOM     23  N   UNL     1      -0.446   4.845   3.678  0.00  0.00    -0.310 N 
ATOM     24  C   UNL     1      -0.178   4.597   2.380  0.00  0.00    +0.219 C 
ATOM     25  O   UNL     1      -0.079   3.454   1.989  0.00  0.00    -0.275 OA
ATOM     26  H   UNL     1      -0.613   5.754   3.974  0.00  0.00    +0.149 HD
BRANCH  23  27
ATOM     27  C   UNL     1      -0.483   3.743   4.642  0.00  0.00    +0.087 C 
BRANCH  27  28
ATOM     28  C   UNL     1      -1.411   4.098   5.775  0.00  0.00    -0.029 A 
ATOM     29  C   UNL     1      -1.426   5.385   6.278  0.00  0.00    +0.005 A 
ATOM     30  C   UNL     1      -2.277   5.711   7.318  0.00  0.00    +0.000 A 
ATOM     31  C   UNL     1      -3.113   4.749   7.854  0.00  0.00    +0.000 A 
ATOM     32  C   UNL     1      -3.098   3.462   7.350  0.00  0.00    +0.000 A 
ATOM     33  C   UNL     1      -2.251   3.137   6.308  0.00  0.00    +0.005 A 
ENDBRANCH  27  28
BRANCH  27  34
ATOM     34  C   UNL     1       0.923   3.497   5.191  0.00  0.00    -0.052 C 
BRANCH  34  36
ATOM     35  C   UNL     1      -0.007   1.330   5.632  0.00  0.00    -0.097 C 
ATOM     36  N   UNL     1       0.889   2.377   6.141  0.00  0.00    +0.377 N 
ATOM     37  C   UNL     1       2.243   1.829   6.300  0.00  0.00    -0.097 C 
ATOM     38  H   UNL     1       0.552   2.703   7.034  0.00  0.00    -0.083 HD
ENDBRANCH  34  36
ENDBRANCH  27  34
ENDBRANCH  23  27
ENDBRANCH   1  24
TORSDOF 6
