REMARK  Name = ZINC61389454
REMARK  13 active torsions:
REMARK  status: ('A' for Active; 'I' for Inactive)
REMARK    1  A    between atoms: C_1  and  C_2
REMARK    2  A    between atoms: C_2  and  O_4
REMARK    3  A    between atoms: O_4  and  C_5
REMARK    4  A    between atoms: C_10  and  C_46
REMARK    5  A    between atoms: C_13  and  C_32
REMARK    6  A    between atoms: C_21  and  C_27
REMARK    7  A    between atoms: C_23  and  C_26
REMARK    8  A    between atoms: C_33  and  O_42
REMARK    9  A    between atoms: C_36  and  O_41
REMARK   10  A    between atoms: C_38  and  C_39
REMARK   11  A    between atoms: C_38  and  C_40
REMARK   12  A    between atoms: O_42  and  C_43
REMARK   13  A    between atoms: C_43  and  C_45
REMARK                            x       y       z     vdW  Elec       q    Type
REMARK                         _______ _______ _______ _____ _____    ______ ____
ROOT
ATOM      1  C   UNL     1      -1.261  -2.315  -0.056  0.00  0.00    +0.186 C 
ATOM      2  C   UNL     1      -1.016  -2.801  -1.463  0.00  0.00    +0.050 C 
ATOM      3  C   UNL     1      -2.238  -3.183  -2.276  0.00  0.00    +0.010 C 
ATOM      4  C   UNL     1      -3.234  -4.001  -1.487  0.00  0.00    +0.012 C 
ATOM      5  C   UNL     1      -3.552  -3.463  -0.103  0.00  0.00    +0.011 C 
ATOM      6  C   UNL     1      -2.368  -3.000   0.712  0.00  0.00    +0.041 C 
ATOM      7  C   UNL     1      -2.782  -2.179   1.946  0.00  0.00    +0.125 C 
ATOM      8  C   UNL     1      -1.773  -1.909   3.061  0.00  0.00    +0.260 C 
ATOM      9  O   UNL     1      -2.712  -2.992   3.152  0.00  0.00    -0.352 OA
ATOM     10  C   UNL     1      -2.093  -0.765   4.007  0.00  0.00    +0.340 C 
ATOM     11  O   UNL     1      -1.270  -0.403   4.821  0.00  0.00    -0.248 OA
ATOM     12  O   UNL     1      -3.290  -0.175   3.941  0.00  0.00    -0.454 OA
ATOM     13  C   UNL     1      -4.376  -0.829   3.302  0.00  0.00    +0.218 C 
ATOM     14  C   UNL     1      -4.014  -1.289   1.892  0.00  0.00    +0.042 C 
ATOM     15  C   UNL     1      -5.157  -2.055   1.237  0.00  0.00    +0.014 C 
ATOM     16  C   UNL     1      -4.711  -2.480  -0.167  0.00  0.00    +0.006 C 
ATOM     17  C   UNL     1      -3.730  -0.017   1.106  0.00  0.00    +0.018 C 
ATOM     18  C   UNL     1      -1.705  -4.269   1.357  0.00  0.00    +0.018 C 
ATOM     19  C   UNL     1      -4.502  -4.251  -2.308  0.00  0.00    +0.185 C 
ATOM     20  C   UNL     1      -5.097  -2.973  -2.863  0.00  0.00    +0.077 C 
ATOM     21  C   UNL     1      -4.100  -2.295  -3.794  0.00  0.00    +0.124 C 
ATOM     22  C   UNL     1      -2.753  -2.051  -3.129  0.00  0.00    -0.005 C 
ATOM     23  C   UNL     1      -2.814  -0.707  -2.397  0.00  0.00    +0.014 C 
ATOM     24  C   UNL     1      -1.742  -1.833  -4.291  0.00  0.00    +0.014 C 
ATOM     25  C   UNL     1      -2.630  -5.429  -1.338  0.00  0.00    +0.015 C 
ENDROOT
BRANCH  13  26
ATOM     26  C   UNL     1      -5.534   0.131   3.209  0.00  0.00    +0.031 A 
ATOM     27  C   UNL     1      -6.899  -0.173   3.417  0.00  0.00    +0.048 A 
ATOM     28  C   UNL     1      -7.584   0.970   3.236  0.00  0.00    +0.195 A 
ATOM     29  O   UNL     1      -6.712   1.945   2.931  0.00  0.00    -0.471 OA
ATOM     30  C   UNL     1      -5.466   1.442   2.919  0.00  0.00    +0.202 A 
ENDBRANCH  13  26
BRANCH  21  31
ATOM     31  O   UNL     1      -4.654  -1.022  -4.179  0.00  0.00    -0.391 OA
ATOM     32  H   UNL     1      -5.501  -1.085  -4.641  0.00  0.00    +0.210 HD
ENDBRANCH  21  31
BRANCH   1  33
ATOM     33  O   UNL     1      -1.316  -0.896   0.001  0.00  0.00    -0.461 OA
BRANCH  33  35
ATOM     34  C   UNL     1      -0.123   1.263   0.109  0.00  0.00    +0.136 C 
ATOM     35  C   UNL     1      -0.144  -0.243   0.048  0.00  0.00    +0.304 C 
ATOM     36  O   UNL     1       0.894  -0.862   0.041  0.00  0.00    -0.251 OA
ENDBRANCH  33  35
ENDBRANCH   1  33
BRANCH  19  37
ATOM     37  O   UNL     1      -5.456  -4.979  -1.532  0.00  0.00    -0.461 OA
BRANCH  37  38
ATOM     38  C   UNL     1      -6.293  -5.790  -2.199  0.00  0.00    +0.304 C 
ATOM     39  O   UNL     1      -6.217  -5.878  -3.402  0.00  0.00    -0.251 OA
ATOM     40  C   UNL     1      -7.325  -6.590  -1.448  0.00  0.00    +0.136 C 
ENDBRANCH  37  38
ENDBRANCH  19  37
TORSDOF 6
