REMARK  Name = ZINC15736363
REMARK  11 active torsions:
REMARK  status: ('A' for Active; 'I' for Inactive)
REMARK    1  A    between atoms: C_1  and  C_2
REMARK    2  A    between atoms: C_4  and  C_35
REMARK    3  A    between atoms: C_6  and  N_8
REMARK    4  A    between atoms: C_12  and  C_18
REMARK    5  A    between atoms: C_18  and  C_19
REMARK    6  A    between atoms: C_19  and  C_20
REMARK    7  A    between atoms: N_22  and  C_23
REMARK    8  A    between atoms: C_23  and  C_24
REMARK    9  A    between atoms: C_24  and  C_25
REMARK   10  A    between atoms: C_28  and  S_31
REMARK   11  A    between atoms: S_31  and  N_34
REMARK                            x       y       z     vdW  Elec       q    Type
REMARK                         _______ _______ _______ _____ _____    ______ ____
ROOT
ATOM      1  C   UNL     1       0.755   6.604   0.063  0.00  0.00    +0.086 C 
ENDROOT
BRANCH   1   6
ATOM      2  N   UNL     1      -0.017   1.395   0.010  0.00  0.00    -0.280 N 
ATOM      3  C   UNL     1       1.172   2.099   0.054  0.00  0.00    +0.113 A 
ATOM      4  C   UNL     1       1.200   3.427   0.062  0.00  0.00    +0.112 A 
ATOM      5  N   UNL     1       0.031   4.165   0.026  0.00  0.00    -0.281 N 
ATOM      6  C   UNL     1      -0.248   5.481   0.024  0.00  0.00    +0.138 A 
ATOM      7  N   UNL     1      -1.554   5.609  -0.020  0.00  0.00    -0.134 NA
ATOM      8  N   UNL     1      -2.111   4.448  -0.045  0.00  0.00    -0.124 NA
ATOM      9  C   UNL     1      -1.181   3.520  -0.018  0.00  0.00    +0.227 A 
ATOM     10  C   UNL     1      -1.197   2.052  -0.032  0.00  0.00    +0.301 A 
ATOM     11  O   UNL     1      -2.249   1.441  -0.076  0.00  0.00    -0.263 OA
BRANCH   2  17
ATOM     12  C   UNL     1      -0.993  -2.863   2.265  0.00  0.00    +0.044 C 
ATOM     13  C   UNL     1      -0.465  -2.094   1.082  0.00  0.00    -0.048 A 
ATOM     14  C   UNL     1       0.041  -2.771  -0.013  0.00  0.00    +0.006 A 
ATOM     15  C   UNL     1       0.527  -2.068  -1.100  0.00  0.00    -0.048 A 
ATOM     16  C   UNL     1       0.509  -0.687  -1.096  0.00  0.00    +0.029 A 
ATOM     17  C   UNL     1       0.002  -0.004   0.002  0.00  0.00    +0.050 A 
ATOM     18  C   UNL     1      -0.481  -0.713   1.095  0.00  0.00    +0.029 A 
ATOM     19  C   UNL     1       1.076  -2.810  -2.291  0.00  0.00    +0.044 C 
ENDBRANCH   2  17
ENDBRANCH   1   6
BRANCH   1  20
ATOM     20  C   UNL     1       1.144   6.992  -1.365  0.00  0.00    +0.103 C 
BRANCH  20  21
ATOM     21  C   UNL     1       2.148   8.115  -1.325  0.00  0.00    +0.213 C 
ATOM     22  O   UNL     1       2.516   8.562  -0.259  0.00  0.00    -0.276 OA
ATOM     23  N   UNL     1       2.637   8.623  -2.474  0.00  0.00    -0.315 N 
ATOM     24  H   UNL     1       2.342   8.266  -3.326  0.00  0.00    +0.149 HD
BRANCH  23  25
ATOM     25  C   UNL     1       3.613   9.715  -2.435  0.00  0.00    +0.109 C 
BRANCH  25  26
ATOM     26  C   UNL     1       4.001  10.102  -3.863  0.00  0.00    +0.054 C 
BRANCH  26  27
ATOM     27  C   UNL     1       5.005  11.226  -3.823  0.00  0.00    -0.046 A 
ATOM     28  C   UNL     1       4.574  12.539  -3.837  0.00  0.00    +0.005 A 
ATOM     29  C   UNL     1       5.494  13.569  -3.796  0.00  0.00    +0.029 A 
ATOM     30  C   UNL     1       6.847  13.287  -3.751  0.00  0.00    +0.105 A 
ATOM     31  C   UNL     1       7.278  11.973  -3.742  0.00  0.00    +0.029 A 
ATOM     32  C   UNL     1       6.358  10.943  -3.779  0.00  0.00    +0.005 A 
BRANCH  30  33
ATOM     33  S   UNL     1       8.020  14.600  -3.703  0.00  0.00    +0.056 S 
ATOM     34  O   UNL     1       7.344  15.730  -3.170  0.00  0.00    -0.153 OA
ATOM     35  O   UNL     1       9.199  14.070  -3.113  0.00  0.00    -0.153 OA
BRANCH  33  36
ATOM     36  N   UNL     1       8.402  14.973  -5.270  0.00  0.00    -0.204 NA
ATOM     37  H   UNL     1       8.656  15.879  -5.505  0.00  0.00    +0.144 HD
ATOM     38  H   UNL     1       8.371  14.285  -5.954  0.00  0.00    +0.144 HD
ENDBRANCH  33  36
ENDBRANCH  30  33
ENDBRANCH  26  27
ENDBRANCH  25  26
ENDBRANCH  23  25
ENDBRANCH  20  21
ENDBRANCH   1  20
TORSDOF 9
