REMARK  Name = ZINC13786326
REMARK  8 active torsions:
REMARK  status: ('A' for Active; 'I' for Inactive)
REMARK    1  A    between atoms: C_1  and  C_2
REMARK    2  A    between atoms: N_5  and  S_11
REMARK    3  A    between atoms: C_7  and  C_10
REMARK    4  A    between atoms: S_11  and  C_14
REMARK    5  A    between atoms: C_18  and  C_20
REMARK    6  A    between atoms: N_24  and  C_25
REMARK    7  A    between atoms: N_31  and  C_32
REMARK    8  A    between atoms: C_32  and  C_33
REMARK                            x       y       z     vdW  Elec       q    Type
REMARK                         _______ _______ _______ _____ _____    ______ ____
ROOT
ATOM      1  C   UNL     1       3.937  -4.467  -0.147  0.00  0.00    +0.058 A 
ATOM      2  C   UNL     1       4.582  -3.620  -0.975  0.00  0.00    +0.075 A 
ATOM      3  S   UNL     1       3.724  -2.083  -0.683  0.00  0.00    -0.059 S 
ATOM      4  C   UNL     1       2.562  -2.676   0.537  0.00  0.00    +0.152 A 
ATOM      5  N   UNL     1       1.617  -2.015   1.179  0.00  0.00    -0.336 N 
ATOM      6  N   UNL     1       2.908  -4.003   0.627  0.00  0.00    -0.316 N 
ATOM      7  H   UNL     1       1.032  -2.516   1.964  0.00  0.00    +0.168 HD
ENDROOT
BRANCH   1  12
ATOM      8  C   UNL     1       6.056  -7.565  -0.016  0.00  0.00    +0.106 A 
ATOM      9  C   UNL     1       5.088  -8.551   0.055  0.00  0.00    +0.028 A 
ATOM     10  C   UNL     1       3.747  -8.213   0.060  0.00  0.00    +0.003 A 
ATOM     11  C   UNL     1       3.366  -6.888  -0.005  0.00  0.00    +0.010 A 
ATOM     12  C   UNL     1       4.337  -5.889  -0.077  0.00  0.00    +0.001 A 
ATOM     13  C   UNL     1       5.689  -6.237  -0.088  0.00  0.00    +0.038 A 
BRANCH   8  14
ATOM     14  S   UNL     1       7.762  -8.007  -0.021  0.00  0.00    +0.061 S 
ATOM     15  O   UNL     1       8.476  -6.875   0.457  0.00  0.00    -0.153 OA
ATOM     16  O   UNL     1       7.853  -9.282   0.600  0.00  0.00    -0.153 OA
BRANCH  14  20
ATOM     17  C   UNL     1       9.297 -11.122  -3.766  0.00  0.00    +0.039 C 
ATOM     18  C   UNL     1       9.439  -9.855  -2.921  0.00  0.00    +0.131 C 
ATOM     19  C   UNL     1       8.104  -9.533  -2.250  0.00  0.00    +0.140 C 
ATOM     20  N   UNL     1       8.209  -8.216  -1.601  0.00  0.00    -0.172 NA
ATOM     21  C   UNL     1       8.729  -7.093  -2.397  0.00  0.00    +0.140 C 
ATOM     22  C   UNL     1      10.039  -7.535  -3.059  0.00  0.00    +0.131 C 
ATOM     23  O   UNL     1       9.822  -8.762  -3.759  0.00  0.00    -0.371 OA
ATOM     24  C   UNL     1      10.503  -6.459  -4.043  0.00  0.00    +0.039 C 
ENDBRANCH  14  20
ENDBRANCH   8  14
ENDBRANCH   1  12
BRANCH   5  25
ATOM     25  C   UNL     1       1.365  -0.708   0.868  0.00  0.00    +0.041 A 
ATOM     26  C   UNL     1       0.494  -0.390  -0.177  0.00  0.00    +0.025 A 
ATOM     27  C   UNL     1       0.244   0.931  -0.485  0.00  0.00    +0.002 A 
ATOM     28  C   UNL     1       0.854   1.941   0.239  0.00  0.00    +0.000 A 
ATOM     29  C   UNL     1       1.718   1.634   1.276  0.00  0.00    +0.002 A 
ATOM     30  C   UNL     1       1.977   0.317   1.595  0.00  0.00    +0.025 A 
ENDBRANCH   5  25
BRANCH   6  31
ATOM     31  C   UNL     1       2.192  -4.902   1.535  0.00  0.00    +0.159 C 
BRANCH  31  32
ATOM     32  C   UNL     1       1.817  -4.156   2.789  0.00  0.00    -0.028 A 
ATOM     33  C   UNL     1       2.681  -4.140   3.868  0.00  0.00    +0.005 A 
ATOM     34  C   UNL     1       2.339  -3.453   5.018  0.00  0.00    +0.000 A 
ATOM     35  C   UNL     1       1.129  -2.788   5.091  0.00  0.00    +0.000 A 
ATOM     36  C   UNL     1       0.263  -2.808   4.014  0.00  0.00    +0.000 A 
ATOM     37  C   UNL     1       0.607  -3.492   2.863  0.00  0.00    +0.005 A 
ENDBRANCH  31  32
ENDBRANCH   6  31
TORSDOF 6
