REMARK  Name = ZINC20699126
REMARK  6 active torsions:
REMARK  status: ('A' for Active; 'I' for Inactive)
REMARK    1  A    between atoms: C_1  and  C_2
REMARK    2  A    between atoms: C_2  and  C_3
REMARK    3  A    between atoms: C_3  and  C_5
REMARK    4  A    between atoms: C_3  and  O_6
REMARK    5  A    between atoms: O_6  and  C_7
REMARK    6  A    between atoms: C_20  and  C_23
REMARK                            x       y       z     vdW  Elec       q    Type
REMARK                         _______ _______ _______ _____ _____    ______ ____
ROOT
ATOM      1  C   UNL     1      -4.305  10.128   0.020  0.00  0.00    +0.121 A 
ATOM      2  C   UNL     1      -3.285  10.370  -0.888  0.00  0.00    +0.047 A 
ATOM      3  C   UNL     1      -2.262   9.453  -1.027  0.00  0.00    +0.027 A 
ATOM      4  C   UNL     1      -2.256   8.295  -0.260  0.00  0.00    +0.032 A 
ATOM      5  C   UNL     1      -3.272   8.047   0.650  0.00  0.00    -0.016 A 
ATOM      6  C   UNL     1      -4.297   8.974   0.783  0.00  0.00    +0.051 A 
ATOM      7  C   UNL     1      -3.304   6.815   1.498  0.00  0.00    +0.049 C 
ATOM      8  C   UNL     1      -4.332   5.828   0.999  0.00  0.00    -0.023 C 
ATOM      9  C   UNL     1      -3.896   4.602   1.156  0.00  0.00    -0.030 C 
ATOM     10  C   UNL     1      -2.518   4.604   1.788  0.00  0.00    +0.033 C 
ATOM     11  C   UNL     1      -1.978   6.030   1.469  0.00  0.00    +0.029 C 
ATOM     12  C   UNL     1      -1.421   5.997   0.043  0.00  0.00    +0.105 C 
ATOM     13  N   UNL     1      -1.210   7.374  -0.416  0.00  0.00    -0.336 N 
ATOM     14  H   UNL     1      -0.251   7.662  -0.869  0.00  0.00    +0.147 HD
ENDROOT
BRANCH  12  15
ATOM     15  C   UNL     1      -0.110   5.255   0.030  0.00  0.00    -0.019 A 
ATOM     16  C   UNL     1       0.557   5.023   1.194  0.00  0.00    +0.006 A 
ATOM     17  C   UNL     1       1.770   4.338   1.201  0.00  0.00    +0.001 A 
ATOM     18  C   UNL     1       2.324   3.881   0.045  0.00  0.00    +0.008 A 
ATOM     19  C   UNL     1       1.665   4.100  -1.176  0.00  0.00    -0.018 A 
ATOM     20  C   UNL     1       0.430   4.797  -1.184  0.00  0.00    -0.013 A 
ATOM     21  C   UNL     1      -0.229   5.017  -2.405  0.00  0.00    +0.009 A 
ATOM     22  C   UNL     1       0.328   4.565  -3.562  0.00  0.00    +0.001 A 
ATOM     23  C   UNL     1       1.538   3.875  -3.554  0.00  0.00    +0.001 A 
ATOM     24  C   UNL     1       2.205   3.643  -2.390  0.00  0.00    +0.008 A 
ENDBRANCH  12  15
BRANCH   1  25
ATOM     25  O   UNL     1      -5.315  11.027   0.161  0.00  0.00    -0.489 OA
BRANCH  25  26
ATOM     26  C   UNL     1      -5.325  12.137  -0.739  0.00  0.00    +0.170 C 
ATOM     27  C   UNL     1      -4.422  13.245  -0.193  0.00  0.00    +0.052 C 
BRANCH  26  29
ATOM     28  C   UNL     1      -7.631  11.602  -1.540  0.00  0.00    +0.007 C 
ATOM     29  C   UNL     1      -6.754  12.667  -0.879  0.00  0.00    +0.041 C 
ENDBRANCH  26  29
ENDBRANCH  25  26
ENDBRANCH   1  25
TORSDOF 4
