REMARK  Name = ZINC36514536
REMARK  17 active torsions:
REMARK  status: ('A' for Active; 'I' for Inactive)
REMARK    1  A    between atoms: C_1  and  C_2
REMARK    2  A    between atoms: C_2  and  C_3
REMARK    3  A    between atoms: C_3  and  C_4
REMARK    4  A    between atoms: C_4  and  C_5
REMARK    5  A    between atoms: C_5  and  C_6
REMARK    6  A    between atoms: C_6  and  N_7
REMARK    7  A    between atoms: N_7  and  C_8
REMARK    8  A    between atoms: C_8  and  C_10
REMARK    9  A    between atoms: C_8  and  C_17
REMARK   10  A    between atoms: C_15  and  O_16
REMARK   11  A    between atoms: N_19  and  C_20
REMARK   12  A    between atoms: C_20  and  C_21
REMARK   13  A    between atoms: C_20  and  C_22
REMARK   14  A    between atoms: C_20  and  C_23
REMARK   15  A    between atoms: C_24  and  C_26
REMARK   16  A    between atoms: C_27  and  O_33
REMARK   17  A    between atoms: C_31  and  O_32
REMARK                            x       y       z     vdW  Elec       q    Type
REMARK                         _______ _______ _______ _____ _____    ______ ____
ROOT
ATOM      1  N   UNL     1       2.351  -4.584   3.770  0.00  0.00    -0.282 N 
ATOM      2  C   UNL     1       3.637  -4.916   4.000  0.00  0.00    +0.255 C 
ATOM      3  O   UNL     1       3.946  -5.466   5.040  0.00  0.00    -0.270 OA
ENDROOT
BRANCH   2   4
ATOM      4  C   UNL     1       4.667  -4.613   2.993  0.00  0.00    +0.119 A 
ATOM      5  C   UNL     1       5.352  -3.389   3.030  0.00  0.00    +0.133 A 
ATOM      6  C   UNL     1       6.320  -3.114   2.078  0.00  0.00    +0.046 A 
ATOM      7  C   UNL     1       6.612  -4.041   1.094  0.00  0.00    +0.007 A 
ATOM      8  C   UNL     1       5.942  -5.250   1.048  0.00  0.00    +0.046 A 
ATOM      9  C   UNL     1       4.975  -5.548   1.994  0.00  0.00    +0.133 A 
BRANCH   9  10
ATOM     10  O   UNL     1       4.324  -6.737   1.951  0.00  0.00    -0.506 OA
ATOM     11  H   UNL     1       3.519  -6.726   1.415  0.00  0.00    +0.292 HD
ENDBRANCH   9  10
BRANCH   5  12
ATOM     12  O   UNL     1       5.067  -2.478   3.994  0.00  0.00    -0.506 OA
ATOM     13  H   UNL     1       5.600  -2.574   4.795  0.00  0.00    +0.292 HD
ENDBRANCH   5  12
ENDBRANCH   2   4
BRANCH   1  14
ATOM     14  C   UNL     1       1.960  -4.021   2.475  0.00  0.00    +0.109 C 
BRANCH  14  15
ATOM     15  C   UNL     1       2.078  -2.496   2.526  0.00  0.00    +0.019 C 
BRANCH  15  16
ATOM     16  C   UNL     1       1.670  -1.908   1.174  0.00  0.00    +0.002 C 
BRANCH  16  17
ATOM     17  C   UNL     1       1.787  -0.383   1.225  0.00  0.00    -0.000 C 
BRANCH  17  19
ATOM     18  C   UNL     1       1.496   1.730  -0.076  0.00  0.00    +0.004 C 
ATOM     19  C   UNL     1       1.379   0.205  -0.127  0.00  0.00    -0.003 C 
ENDBRANCH  17  19
ENDBRANCH  16  17
ENDBRANCH  15  16
ENDBRANCH  14  15
ENDBRANCH   1  14
BRANCH   1  20
ATOM     20  C   UNL     1       1.344  -4.787   4.814  0.00  0.00    +0.196 C 
BRANCH  20  21
ATOM     21  C   UNL     1       1.244  -6.255   5.138  0.00  0.00    +0.023 A 
ATOM     22  C   UNL     1       1.825  -6.750   6.290  0.00  0.00    +0.009 A 
ATOM     23  C   UNL     1       1.734  -8.097   6.588  0.00  0.00    +0.001 A 
ATOM     24  C   UNL     1       1.062  -8.953   5.734  0.00  0.00    +0.004 A 
ATOM     25  C   UNL     1       0.480  -8.463   4.581  0.00  0.00    +0.046 A 
ATOM     26  C   UNL     1       0.565  -7.110   4.283  0.00  0.00    +0.122 A 
BRANCH  26  27
ATOM     27  O   UNL     1      -0.012  -6.625   3.152  0.00  0.00    -0.506 OA
ATOM     28  H   UNL     1       0.570  -6.633   2.379  0.00  0.00    +0.292 HD
ENDBRANCH  26  27
ENDBRANCH  20  21
BRANCH  20  29
ATOM     29  C   UNL     1       1.743  -4.025   6.052  0.00  0.00    +0.239 C 
ATOM     30  O   UNL     1       2.768  -3.377   6.061  0.00  0.00    -0.273 OA
ATOM     31  N   UNL     1       0.962  -4.065   7.149  0.00  0.00    -0.309 N 
ATOM     32  H   UNL     1       0.142  -4.583   7.142  0.00  0.00    +0.149 HD
BRANCH  31  33
ATOM     33  C   UNL     1       1.350  -3.325   8.352  0.00  0.00    +0.026 C 
ATOM     34  C   UNL     1       1.451  -1.834   8.023  0.00  0.00    +0.031 C 
ATOM     35  C   UNL     1       0.298  -3.536   9.443  0.00  0.00    +0.031 C 
ATOM     36  C   UNL     1       2.706  -3.831   8.847  0.00  0.00    +0.031 C 
ENDBRANCH  31  33
ENDBRANCH  20  29
ENDBRANCH   1  20
TORSDOF 13
