REMARK  Name = ZINC13063702
REMARK  14 active torsions:
REMARK  status: ('A' for Active; 'I' for Inactive)
REMARK    1  A    between atoms: C_1  and  C_2
REMARK    2  A    between atoms: C_2  and  C_3
REMARK    3  A    between atoms: C_10  and  C_15
REMARK    4  A    between atoms: C_15  and  N_74
REMARK    5  A    between atoms: C_16  and  C_17
REMARK    6  A    between atoms: C_16  and  N_74
REMARK    7  A    between atoms: C_23  and  C_25
REMARK    8  A    between atoms: C_23  and  C_27
REMARK    9  A    between atoms: C_23  and  N_74
REMARK   10  A    between atoms: C_25  and  C_26
REMARK   11  A    between atoms: N_31  and  C_32
REMARK   12  A    between atoms: C_32  and  C_33
REMARK   13  A    between atoms: C_36  and  O_39
REMARK   14  A    between atoms: O_39  and  C_40
REMARK                            x       y       z     vdW  Elec       q    Type
REMARK                         _______ _______ _______ _____ _____    ______ ____
ROOT
ATOM      1  N   UNL     1      -0.651   3.501   1.322  0.00  0.00    +0.391 N 
ATOM      2  H   UNL     1      -1.193   3.542   0.451  0.00  0.00    -0.080 HD
ENDROOT
BRANCH   1   3
ATOM      3  C   UNL     1      -1.465   4.060   2.421  0.00  0.00    -0.036 C 
BRANCH   3  11
ATOM      4  C   UNL     1      -6.144   0.216   3.696  0.00  0.00    -0.047 A 
ATOM      5  C   UNL     1      -7.064   0.802   2.838  0.00  0.00    +0.005 A 
ATOM      6  C   UNL     1      -6.718   1.895   2.074  0.00  0.00    +0.026 A 
ATOM      7  C   UNL     1      -5.432   2.420   2.163  0.00  0.00    +0.049 A 
ATOM      8  C   UNL     1      -4.501   1.823   3.034  0.00  0.00    -0.001 A 
ATOM      9  C   UNL     1      -4.876   0.714   3.800  0.00  0.00    +0.013 A 
ATOM     10  C   UNL     1      -3.150   2.379   3.117  0.00  0.00    +0.017 A 
ATOM     11  C   UNL     1      -2.846   3.459   2.356  0.00  0.00    +0.001 A 
ATOM     12  C   UNL     1      -3.816   4.020   1.498  0.00  0.00    +0.251 A 
ATOM     13  O   UNL     1      -3.521   4.988   0.818  0.00  0.00    -0.268 OA
ATOM     14  N   UNL     1      -5.058   3.513   1.411  0.00  0.00    -0.322 N 
ATOM     15  H   UNL     1      -5.701   3.922   0.810  0.00  0.00    +0.169 HD
BRANCH   4  17
ATOM     16  C   UNL     1      -7.114  -0.506   5.861  0.00  0.00    +0.009 C 
ATOM     17  C   UNL     1      -6.547  -0.979   4.521  0.00  0.00    +0.032 C 
ENDBRANCH   4  17
ENDBRANCH   3  11
ENDBRANCH   1   3
BRANCH   1  18
ATOM     18  C   UNL     1      -0.313   2.091   1.610  0.00  0.00    -0.045 C 
BRANCH  18  19
ATOM     19  C   UNL     1       0.150   1.422   0.314  0.00  0.00    +0.102 C 
ATOM     20  C   UNL     1       0.401  -0.085   0.546  0.00  0.00    +0.032 C 
ATOM     21  C   UNL     1       1.637  -0.398  -0.325  0.00  0.00    +0.030 C 
ATOM     22  C   UNL     1       1.988   0.956  -0.981  0.00  0.00    +0.160 C 
ATOM     23  O   UNL     1       1.431   1.951  -0.094  0.00  0.00    -0.378 OA
ENDBRANCH  18  19
ENDBRANCH   1  18
BRANCH   1  24
ATOM     24  C   UNL     1       0.586   4.292   1.156  0.00  0.00    +0.003 C 
BRANCH  24  25
ATOM     25  C   UNL     1       1.393   4.284   2.429  0.00  0.00    +0.138 A 
ATOM     26  N   UNL     1       0.934   4.433   3.647  0.00  0.00    -0.115 NA
ATOM     27  N   UNL     1       1.932   4.366   4.460  0.00  0.00    -0.023 NA
ATOM     28  N   UNL     1       3.016   4.179   3.791  0.00  0.00    -0.044 NA
ATOM     29  N   UNL     1       2.725   4.117   2.535  0.00  0.00    -0.226 N 
BRANCH  29  30
ATOM     30  C   UNL     1       3.666   3.909   1.432  0.00  0.00    +0.182 C 
BRANCH  30  31
ATOM     31  C   UNL     1       4.174   5.242   0.946  0.00  0.00    -0.026 A 
ATOM     32  C   UNL     1       3.505   5.909  -0.064  0.00  0.00    +0.009 A 
ATOM     33  C   UNL     1       3.965   7.133  -0.507  0.00  0.00    +0.046 A 
ATOM     34  C   UNL     1       5.105   7.689   0.055  0.00  0.00    +0.120 A 
ATOM     35  C   UNL     1       5.778   7.016   1.064  0.00  0.00    +0.046 A 
ATOM     36  C   UNL     1       5.311   5.794   1.507  0.00  0.00    +0.009 A 
BRANCH  34  37
ATOM     37  O   UNL     1       5.563   8.892  -0.384  0.00  0.00    -0.495 OA
ATOM     38  C   UNL     1       4.820   9.528  -1.425  0.00  0.00    +0.277 C 
ENDBRANCH  34  37
ENDBRANCH  30  31
ENDBRANCH  29  30
ENDBRANCH  24  25
BRANCH  24  39
ATOM     39  C   UNL     1       0.210   5.732   0.800  0.00  0.00    -0.011 C 
ATOM     40  C   UNL     1      -0.534   5.748  -0.537  0.00  0.00    +0.002 C 
ENDBRANCH  24  39
ENDBRANCH   1  24
TORSDOF 11
