REMARK  Name = ZINC38775825
REMARK  7 active torsions:
REMARK  status: ('A' for Active; 'I' for Inactive)
REMARK    1  A    between atoms: C_1  and  S_2
REMARK    2  A    between atoms: S_2  and  C_3
REMARK    3  A    between atoms: C_3  and  C_4
REMARK    4  A    between atoms: C_4  and  C_5
REMARK    5  A    between atoms: C_5  and  C_7
REMARK    6  A    between atoms: C_5  and  N_24
REMARK    7  A    between atoms: C_25  and  C_27
REMARK                            x       y       z     vdW  Elec       q    Type
REMARK                         _______ _______ _______ _____ _____    ______ ____
ROOT
ATOM      1  C   UNL     1      -3.356  -2.382   0.021  0.00  0.00    +0.160 C 
ENDROOT
BRANCH   1   2
ATOM      2  C   UNL     1      -3.488  -3.862  -0.232  0.00  0.00    +0.236 C 
ATOM      3  O   UNL     1      -3.757  -4.612   0.682  0.00  0.00    -0.274 OA
ATOM      4  N   UNL     1      -3.306  -4.351  -1.475  0.00  0.00    -0.300 N 
ATOM      5  C   UNL     1      -2.868  -3.474  -2.569  0.00  0.00    +0.106 C 
ATOM      6  C   UNL     1      -1.622  -4.083  -3.220  0.00  0.00    +0.009 C 
ATOM      7  C   UNL     1      -1.925  -5.520  -3.647  0.00  0.00    -0.037 C 
ATOM      8  C   UNL     1      -2.291  -6.358  -2.422  0.00  0.00    +0.009 C 
ATOM      9  C   UNL     1      -3.537  -5.774  -1.760  0.00  0.00    +0.106 C 
ATOM     10  C   UNL     1      -0.699  -6.122  -4.335  0.00  0.00    +0.140 C 
ATOM     11  C   UNL     1      -1.141  -7.490  -4.845  0.00  0.00    +0.042 C 
ATOM     12  N   UNL     1      -0.328  -8.335  -4.341  0.00  0.00    -0.243 NA
ATOM     13  C   UNL     1       0.545  -7.743  -3.488  0.00  0.00    +0.216 C 
ATOM     14  N   UNL     1       0.384  -6.439  -3.403  0.00  0.00    -0.264 NA
ATOM     15  C   UNL     1      -2.395  -7.657  -5.665  0.00  0.00    +0.034 C 
ATOM     16  C   UNL     1      -3.496  -6.883  -4.915  0.00  0.00    -0.076 C 
ATOM     17  N   UNL     1      -3.043  -5.526  -4.601  0.00  0.00    +0.385 N 
ATOM     18  H   UNL     1      -3.813  -5.007  -4.207  0.00  0.00    -0.085 HD
ATOM     19  H   UNL     1      -2.749  -5.074  -5.454  0.00  0.00    -0.085 HD
ENDBRANCH   1   2
BRANCH   1  20
ATOM     20  N   UNL     1      -4.169  -2.011   1.183  0.00  0.00    -0.300 N 
ATOM     21  C   UNL     1      -4.622  -0.749   1.312  0.00  0.00    +0.245 C 
ATOM     22  O   UNL     1      -4.356   0.083   0.466  0.00  0.00    -0.270 OA
ATOM     23  H   UNL     1      -4.381  -2.675   1.858  0.00  0.00    +0.150 HD
BRANCH  21  24
ATOM     24  C   UNL     1      -5.442  -0.375   2.484  0.00  0.00    +0.037 A 
ATOM     25  C   UNL     1      -5.741  -1.339   3.463  0.00  0.00    +0.013 A 
ATOM     26  C   UNL     1      -6.492  -1.020   4.547  0.00  0.00    +0.009 A 
ATOM     27  C   UNL     1      -6.982   0.289   4.703  0.00  0.00    -0.018 A 
ATOM     28  C   UNL     1      -7.761   0.643   5.817  0.00  0.00    +0.008 A 
ATOM     29  C   UNL     1      -8.222   1.919   5.941  0.00  0.00    +0.001 A 
ATOM     30  C   UNL     1      -7.933   2.883   4.978  0.00  0.00    +0.001 A 
ATOM     31  C   UNL     1      -7.181   2.578   3.885  0.00  0.00    +0.008 A 
ATOM     32  C   UNL     1      -6.688   1.271   3.723  0.00  0.00    -0.017 A 
ATOM     33  C   UNL     1      -5.905   0.924   2.612  0.00  0.00    +0.021 A 
ENDBRANCH  21  24
ENDBRANCH   1  20
BRANCH   1  34
ATOM     34  C   UNL     1      -1.890  -2.040   0.295  0.00  0.00    +0.042 C 
BRANCH  34  35
ATOM     35  C   UNL     1      -1.733  -0.522   0.410  0.00  0.00    +0.071 C 
BRANCH  35  37
ATOM     36  C   UNL     1       0.020   1.694   0.842  0.00  0.00    +0.084 C 
ATOM     37  S   UNL     1       0.005  -0.117   0.734  0.00  0.00    -0.164 S 
ENDBRANCH  35  37
ENDBRANCH  34  35
ENDBRANCH   1  34
TORSDOF 6
