REMARK  Name = ZINC01885035
REMARK  9 active torsions:
REMARK  status: ('A' for Active; 'I' for Inactive)
REMARK    1  A    between atoms: C_1  and  C_2
REMARK    2  A    between atoms: C_2  and  O_3
REMARK    3  A    between atoms: O_3  and  C_4
REMARK    4  A    between atoms: C_4  and  C_6
REMARK    5  A    between atoms: C_10  and  N_11
REMARK    6  A    between atoms: N_11  and  C_12
REMARK    7  A    between atoms: C_13  and  C_14
REMARK    8  A    between atoms: C_13  and  C_16
REMARK    9  A    between atoms: C_18  and  C_21
REMARK                            x       y       z     vdW  Elec       q    Type
REMARK                         _______ _______ _______ _____ _____    ______ ____
ROOT
ATOM      1  C   UNL     1      -3.822  -2.873   3.559  0.00  0.00    +0.094 C 
ATOM      2  C   UNL     1      -3.331  -2.786   4.827  0.00  0.00    +0.098 C 
ENDROOT
BRANCH   2   3
ATOM      3  C   UNL     1      -1.992  -2.214   5.063  0.00  0.00    +0.120 A 
ATOM      4  N   UNL     1      -0.827  -2.563   4.538  0.00  0.00    -0.238 NA
ATOM      5  C   UNL     1       0.289  -1.934   4.865  0.00  0.00    +0.086 A 
ATOM      6  C   UNL     1       0.239  -0.900   5.764  0.00  0.00    +0.075 A 
ATOM      7  S   UNL     1      -1.512  -0.859   6.125  0.00  0.00    -0.074 S 
BRANCH   5   8
ATOM      8  C   UNL     1       1.581  -2.342   4.267  0.00  0.00    +0.086 A 
ATOM      9  C   UNL     1       1.656  -3.372   3.360  0.00  0.00    +0.028 A 
ATOM     10  C   UNL     1       2.978  -3.704   2.823  0.00  0.00    +0.019 A 
ATOM     11  C   UNL     1       3.111  -4.545   1.712  0.00  0.00    +0.026 A 
ATOM     12  C   UNL     1       4.366  -4.838   1.227  0.00  0.00    +0.019 A 
ATOM     13  C   UNL     1       5.496  -4.304   1.833  0.00  0.00    +0.019 A 
ATOM     14  C   UNL     1       5.380  -3.474   2.930  0.00  0.00    +0.048 A 
ATOM     15  C   UNL     1       4.125  -3.167   3.436  0.00  0.00    +0.139 A 
ATOM     16  O   UNL     1       3.993  -2.359   4.516  0.00  0.00    -0.422 OA
ATOM     17  C   UNL     1       2.838  -1.657   4.616  0.00  0.00    +0.347 A 
ATOM     18  O   UNL     1       2.837  -0.498   4.986  0.00  0.00    -0.244 OA
ATOM     19 BR   UNL     1       4.553  -5.974  -0.273  0.00  0.00    -0.050 Br
ENDBRANCH   5   8
ENDBRANCH   2   3
BRANCH   1  20
ATOM     20  N   UNL     1      -3.037  -2.519   2.497  0.00  0.00    -0.313 N 
ATOM     21  H   UNL     1      -2.160  -2.134   2.649  0.00  0.00    +0.152 HD
BRANCH  20  26
ATOM     22  C   UNL     1      -2.842  -2.412   0.017  0.00  0.00    +0.091 A 
ATOM     23  C   UNL     1      -3.544  -2.717  -1.218  0.00  0.00    -0.021 A 
ATOM     24  C   UNL     1      -4.769  -3.257  -1.040  0.00  0.00    -0.004 A 
ATOM     25  S   UNL     1      -4.967  -3.350   0.716  0.00  0.00    -0.077 S 
ATOM     26  C   UNL     1      -3.494  -2.709   1.206  0.00  0.00    +0.084 A 
ATOM     27  C   UNL     1      -5.732  -3.676  -2.107  0.00  0.00    +0.043 C 
ATOM     28  C   UNL     1      -5.278  -3.055  -3.437  0.00  0.00    +0.005 C 
ATOM     29  C   UNL     1      -3.778  -3.308  -3.615  0.00  0.00    +0.005 C 
ATOM     30  C   UNL     1      -2.985  -2.468  -2.612  0.00  0.00    +0.037 C 
BRANCH  22  31
ATOM     31  C   UNL     1      -1.502  -1.823   0.008  0.00  0.00    +0.342 C 
ATOM     32  O   UNL     1      -0.521  -2.542  -0.004  0.00  0.00    -0.245 OA
BRANCH  31  33
ATOM     33  O   UNL     1      -1.355  -0.482   0.012  0.00  0.00    -0.461 OA
BRANCH  33  35
ATOM     34  C   UNL     1      -0.053   1.554   0.009  0.00  0.00    +0.048 C 
ATOM     35  C   UNL     1      -0.019   0.025   0.003  0.00  0.00    +0.229 C 
ENDBRANCH  33  35
ENDBRANCH  31  33
ENDBRANCH  22  31
ENDBRANCH  20  26
ENDBRANCH   1  20
BRANCH   2  36
ATOM     36  C   UNL     1      -4.115  -3.251   5.932  0.00  0.00    +0.103 C 
ATOM     37  N   UNL     1      -4.737  -3.620   6.808  0.00  0.00    -0.191 NA
ENDBRANCH   2  36
TORSDOF 8
