REMARK  Name = ZINC33757957
REMARK  9 active torsions:
REMARK  status: ('A' for Active; 'I' for Inactive)
REMARK    1  A    between atoms: C_1  and  C_2
REMARK    2  A    between atoms: C_7  and  N_8
REMARK    3  A    between atoms: C_9  and  C_11
REMARK    4  A    between atoms: C_13  and  C_33
REMARK    5  A    between atoms: C_15  and  C_23
REMARK    6  A    between atoms: C_17  and  C_21
REMARK    7  A    between atoms: C_17  and  O_22
REMARK    8  A    between atoms: N_25  and  C_26
REMARK    9  A    between atoms: C_31  and  C_32
REMARK                            x       y       z     vdW  Elec       q    Type
REMARK                         _______ _______ _______ _____ _____    ______ ____
ROOT
ATOM      1  C   UNL     1      -2.877   2.854   2.097  0.00  0.00    +0.149 C 
ATOM      2  C   UNL     1      -2.917   3.474   0.696  0.00  0.00    +0.053 C 
ATOM      3  C   UNL     1      -1.555   3.296   0.023  0.00  0.00    +0.115 C 
ATOM      4  C   UNL     1      -0.486   4.062   0.804  0.00  0.00    +0.082 C 
ATOM      5  C   UNL     1      -0.355   3.463   2.209  0.00  0.00    +0.110 C 
ATOM      6  C   UNL     1      -1.721   3.461   2.859  0.00  0.00    +0.148 C 
ATOM      7  O   UNL     1      -1.883   3.932   3.959  0.00  0.00    -0.296 OA
ATOM      8  C   UNL     1       0.855   3.952   0.076  0.00  0.00    +0.042 C 
ENDROOT
BRANCH   2   9
ATOM      9  C   UNL     1      -3.978   2.790  -0.127  0.00  0.00    -0.042 A 
ATOM     10  C   UNL     1      -4.017   1.410  -0.194  0.00  0.00    +0.005 A 
ATOM     11  C   UNL     1      -4.994   0.782  -0.945  0.00  0.00    +0.020 A 
ATOM     12  C   UNL     1      -5.925   1.535  -1.637  0.00  0.00    +0.041 A 
ATOM     13  C   UNL     1      -5.881   2.917  -1.574  0.00  0.00    +0.020 A 
ATOM     14  C   UNL     1      -4.908   3.543  -0.819  0.00  0.00    +0.005 A 
ATOM     15 CL   UNL     1      -7.147   0.748  -2.585  0.00  0.00    -0.084 Cl
ENDBRANCH   2   9
BRANCH   1  17
ATOM     16  N   UNL     1      -4.349   2.712   4.079  0.00  0.00    -0.285 N 
ATOM     17  C   UNL     1      -4.168   3.147   2.817  0.00  0.00    +0.228 C 
ATOM     18  O   UNL     1      -5.044   3.775   2.260  0.00  0.00    -0.275 OA
ATOM     19  H   UNL     1      -3.529   2.208   4.611  0.00  0.00    +0.155 HD
BRANCH  16  26
ATOM     20  C   UNL     1      -5.150   0.822   6.050  0.00  0.00    +0.045 C 
ATOM     21  C   UNL     1      -6.011   2.003   5.682  0.00  0.00    -0.029 A 
ATOM     22  C   UNL     1      -7.226   2.195   6.311  0.00  0.00    +0.005 A 
ATOM     23  C   UNL     1      -8.019   3.275   5.970  0.00  0.00    +0.000 A 
ATOM     24  C   UNL     1      -7.597   4.168   5.002  0.00  0.00    +0.002 A 
ATOM     25  C   UNL     1      -6.382   3.985   4.374  0.00  0.00    +0.023 A 
ATOM     26  C   UNL     1      -5.582   2.901   4.714  0.00  0.00    +0.036 A 
ENDBRANCH  16  26
ENDBRANCH   1  17
BRANCH   3  27
ATOM     27  C   UNL     1      -1.200   1.831  -0.008  0.00  0.00    +0.224 C 
ATOM     28  O   UNL     1      -1.068   1.217   1.029  0.00  0.00    -0.275 OA
ATOM     29  N   UNL     1      -1.028   1.205  -1.189  0.00  0.00    -0.285 N 
ATOM     30  H   UNL     1      -1.080   1.776  -2.128  0.00  0.00    +0.155 HD
BRANCH  29  31
ATOM     31  C   UNL     1      -0.784  -0.173  -1.221  0.00  0.00    +0.036 A 
ATOM     32  C   UNL     1      -0.131  -0.789  -0.162  0.00  0.00    +0.023 A 
ATOM     33  C   UNL     1       0.108  -2.148  -0.196  0.00  0.00    +0.002 A 
ATOM     34  C   UNL     1      -0.302  -2.896  -1.285  0.00  0.00    +0.000 A 
ATOM     35  C   UNL     1      -0.953  -2.286  -2.341  0.00  0.00    +0.005 A 
ATOM     36  C   UNL     1      -1.200  -0.928  -2.310  0.00  0.00    -0.029 A 
ATOM     37  C   UNL     1      -1.915  -0.265  -3.459  0.00  0.00    +0.045 C 
ENDBRANCH  29  31
ENDBRANCH   3  27
BRANCH   4  38
ATOM     38  O   UNL     1      -0.863   5.436   0.905  0.00  0.00    -0.388 OA
ATOM     39  H   UNL     1      -0.213   6.147   1.436  0.00  0.00    +0.210 HD
ENDBRANCH   4  38
TORSDOF 6
