REMARK  Name = ZINC00856598
REMARK  10 active torsions:
REMARK  status: ('A' for Active; 'I' for Inactive)
REMARK    1  A    between atoms: C_1  and  O_2
REMARK    2  A    between atoms: O_2  and  C_3
REMARK    3  A    between atoms: C_6  and  C_9
REMARK    4  A    between atoms: C_14  and  C_24
REMARK    5  A    between atoms: C_26  and  O_34
REMARK    6  A    between atoms: C_27  and  O_32
REMARK    7  A    between atoms: C_28  and  O_30
REMARK    8  A    between atoms: O_30  and  C_31
REMARK    9  A    between atoms: O_32  and  C_33
REMARK   10  A    between atoms: O_34  and  C_35
REMARK                            x       y       z     vdW  Elec       q    Type
REMARK                         _______ _______ _______ _____ _____    ______ ____
ROOT
ATOM      1  C   UNL     1      -6.747   1.514   5.720  0.00  0.00    +0.032 C 
ATOM      2  C   UNL     1      -7.924   1.521   4.746  0.00  0.00    +0.059 C 
ATOM      3  C   UNL     1      -7.464   1.069   3.371  0.00  0.00    +0.017 C 
ATOM      4  C   UNL     1      -6.468   0.175   3.244  0.00  0.00    +0.036 C 
ATOM      5  C   UNL     1      -5.925  -0.367   1.944  0.00  0.00    +0.136 C 
ATOM      6  N   UNL     1      -6.726  -0.055   0.779  0.00  0.00    -0.331 N 
ATOM      7  C   UNL     1      -6.889   1.262   0.353  0.00  0.00    +0.049 A 
ATOM      8  C   UNL     1      -6.396   1.695  -0.867  0.00  0.00    +0.025 A 
ATOM      9  C   UNL     1      -6.541   3.024  -1.226  0.00  0.00    +0.002 A 
ATOM     10  C   UNL     1      -7.169   3.915  -0.374  0.00  0.00    +0.002 A 
ATOM     11  C   UNL     1      -7.678   3.481   0.838  0.00  0.00    +0.025 A 
ATOM     12  C   UNL     1      -7.554   2.148   1.188  0.00  0.00    +0.052 A 
ATOM     13  N   UNL     1      -8.141   1.622   2.333  0.00  0.00    -0.316 N 
ATOM     14  C   UNL     1      -5.827  -0.344   4.393  0.00  0.00    +0.163 C 
ATOM     15  O   UNL     1      -4.942  -1.165   4.251  0.00  0.00    -0.292 OA
ATOM     16  C   UNL     1      -6.201   0.082   5.781  0.00  0.00    +0.088 C 
ATOM     17  H   UNL     1      -7.155  -0.773   0.289  0.00  0.00    +0.147 HD
ATOM     18  H   UNL     1      -9.108   1.653   2.395  0.00  0.00    +0.152 HD
ENDROOT
BRANCH   1  22
ATOM     19  C   UNL     1      -8.068   2.730   9.598  0.00  0.00    +0.120 A 
ATOM     20  C   UNL     1      -7.090   3.458   8.937  0.00  0.00    +0.046 A 
ATOM     21  C   UNL     1      -6.664   3.063   7.684  0.00  0.00    +0.007 A 
ATOM     22  C   UNL     1      -7.213   1.943   7.088  0.00  0.00    -0.043 A 
ATOM     23  C   UNL     1      -8.193   1.218   7.742  0.00  0.00    +0.007 A 
ATOM     24  C   UNL     1      -8.617   1.606   8.998  0.00  0.00    +0.046 A 
BRANCH  19  26
ATOM     25  C   UNL     1      -9.499   2.319  11.452  0.00  0.00    +0.277 C 
ATOM     26  O   UNL     1      -8.488   3.116  10.831  0.00  0.00    -0.495 OA
ENDBRANCH  19  26
ENDBRANCH   1  22
BRANCH   5  27
ATOM     27  C   UNL     1      -4.541   0.193   1.735  0.00  0.00    -0.016 A 
ATOM     28  C   UNL     1      -3.452  -0.657   1.699  0.00  0.00    +0.055 A 
ATOM     29  C   UNL     1      -2.177  -0.145   1.507  0.00  0.00    +0.165 A 
ATOM     30  C   UNL     1      -1.996   1.224   1.350  0.00  0.00    +0.204 A 
ATOM     31  C   UNL     1      -3.094   2.075   1.392  0.00  0.00    +0.165 A 
ATOM     32  C   UNL     1      -4.365   1.556   1.580  0.00  0.00    +0.055 A 
BRANCH  31  33
ATOM     33  O   UNL     1      -2.921   3.416   1.244  0.00  0.00    -0.491 OA
ATOM     34  C   UNL     1      -4.077   4.241   1.408  0.00  0.00    +0.277 C 
ENDBRANCH  31  33
BRANCH  30  35
ATOM     35  O   UNL     1      -0.747   1.729   1.161  0.00  0.00    -0.488 OA
ATOM     36  C   UNL     1      -0.291   1.845  -0.188  0.00  0.00    +0.277 C 
ENDBRANCH  30  35
BRANCH  29  37
ATOM     37  O   UNL     1      -1.106  -0.982   1.471  0.00  0.00    -0.491 OA
ATOM     38  C   UNL     1      -1.367  -2.377   1.639  0.00  0.00    +0.277 C 
ENDBRANCH  29  37
ENDBRANCH   5  27
TORSDOF 6
