REMARK  Name = ZINC02130621
REMARK  6 active torsions:
REMARK  status: ('A' for Active; 'I' for Inactive)
REMARK    1  A    between atoms: C_1  and  C_2
REMARK    2  A    between atoms: C_16  and  C_18
REMARK    3  A    between atoms: C_18  and  C_19
REMARK    4  A    between atoms: C_19  and  C_20
REMARK    5  A    between atoms: N_25  and  C_28
REMARK    6  A    between atoms: C_28  and  C_29
REMARK                            x       y       z     vdW  Elec       q    Type
REMARK                         _______ _______ _______ _____ _____    ______ ____
ROOT
ATOM      1  C   UNL     1       2.829  -1.954  -0.632  0.00  0.00    +0.047 C 
ATOM      2  C   UNL     1       1.381  -1.567  -0.469  0.00  0.00    -0.011 A 
ATOM      3  C   UNL     1       0.412  -2.547  -0.392  0.00  0.00    +0.046 A 
ATOM      4  C   UNL     1      -0.920  -2.201  -0.242  0.00  0.00    +0.020 A 
ATOM      5  C   UNL     1      -1.281  -0.867  -0.170  0.00  0.00    +0.006 A 
ATOM      6  C   UNL     1      -0.317   0.113  -0.246  0.00  0.00    -0.027 A 
ATOM      7  C   UNL     1       1.026  -0.223  -0.397  0.00  0.00    +0.040 A 
ATOM      8  N   UNL     1       1.810   0.932  -0.449  0.00  0.00    -0.286 N 
ATOM      9  C   UNL     1       1.071   2.053  -0.343  0.00  0.00    +0.211 C 
ATOM     10  O   UNL     1       1.480   3.195  -0.356  0.00  0.00    -0.277 OA
ATOM     11  C   UNL     1      -0.362   1.614  -0.204  0.00  0.00    +0.050 C 
ATOM     12  C   UNL     1      -0.979   2.125   1.103  0.00  0.00    +0.088 C 
ATOM     13  C   UNL     1      -2.453   2.460   0.738  0.00  0.00    +0.073 C 
ATOM     14  C   UNL     1      -2.584   2.087  -0.754  0.00  0.00    -0.057 C 
ATOM     15  C   UNL     1      -3.248   1.477   1.566  0.00  0.00    +0.224 C 
ATOM     16  O   UNL     1      -4.458   1.396   1.587  0.00  0.00    -0.275 OA
ATOM     17  N   UNL     1      -2.410   0.710   2.273  0.00  0.00    -0.237 N 
ATOM     18  C   UNL     1      -1.114   0.986   2.087  0.00  0.00    +0.225 C 
ATOM     19  O   UNL     1      -0.192   0.411   2.624  0.00  0.00    -0.275 OA
ATOM     20 CL   UNL     1       0.865  -4.220  -0.484  0.00  0.00    -0.083 Cl
ATOM     21  H   UNL     1       2.774   0.928  -0.550  0.00  0.00    +0.155 HD
ATOM     22  N   UNL     1      -1.209   2.149  -1.256  0.00  0.00    +0.394 N 
ATOM     23  H   UNL     1      -1.116   1.583  -2.108  0.00  0.00    -0.083 HD
ATOM     24  H   UNL     1      -0.949   3.121  -1.461  0.00  0.00    -0.083 HD
ENDROOT
BRANCH  14  25
ATOM     25  C   UNL     1      -3.487   3.089  -1.476  0.00  0.00    -0.006 C 
BRANCH  25  26
ATOM     26  C   UNL     1      -3.640   2.675  -2.941  0.00  0.00    +0.094 C 
BRANCH  26  27
ATOM     27  C   UNL     1      -4.530   3.662  -3.652  0.00  0.00    +0.210 C 
ATOM     28  O   UNL     1      -4.996   4.604  -3.046  0.00  0.00    -0.276 OA
ATOM     29  N   UNL     1      -4.809   3.497  -4.960  0.00  0.00    -0.329 N 
ATOM     30  H   UNL     1      -4.436   2.744  -5.444  0.00  0.00    +0.145 HD
ATOM     31  H   UNL     1      -5.381   4.133  -5.418  0.00  0.00    +0.145 HD
ENDBRANCH  26  27
ENDBRANCH  25  26
ENDBRANCH  14  25
BRANCH  17  32
ATOM     32  C   UNL     1      -2.874  -0.346   3.176  0.00  0.00    +0.151 C 
BRANCH  32  33
ATOM     33  C   UNL     1      -3.083   0.227   4.554  0.00  0.00    -0.030 A 
ATOM     34  C   UNL     1      -2.043   0.234   5.465  0.00  0.00    +0.005 A 
ATOM     35  C   UNL     1      -2.233   0.764   6.727  0.00  0.00    +0.000 A 
ATOM     36  C   UNL     1      -3.466   1.278   7.082  0.00  0.00    +0.000 A 
ATOM     37  C   UNL     1      -4.508   1.266   6.173  0.00  0.00    +0.000 A 
ATOM     38  C   UNL     1      -4.316   0.740   4.909  0.00  0.00    +0.005 A 
ENDBRANCH  32  33
ENDBRANCH  17  32
TORSDOF 5
