REMARK  Name = ZINC08789074
REMARK  4 active torsions:
REMARK  status: ('A' for Active; 'I' for Inactive)
REMARK    1  A    between atoms: C_4  and  N_7
REMARK    2  A    between atoms: C_12  and  C_28
REMARK    3  A    between atoms: C_28  and  C_29
REMARK    4  A    between atoms: C_32  and  O_35
REMARK                            x       y       z     vdW  Elec       q    Type
REMARK                         _______ _______ _______ _____ _____    ______ ____
ROOT
ATOM      1  N   UNL     1      -0.016   1.334   0.009  0.00  0.00    -0.210 N 
ATOM      2  C   UNL     1       0.003  -0.004   0.047  0.00  0.00    +0.228 C 
ATOM      3  O   UNL     1      -0.976  -0.717   0.100  0.00  0.00    -0.275 OA
ATOM      4  C   UNL     1       1.435  -0.487   0.013  0.00  0.00    +0.074 C 
ATOM      5  C   UNL     1       1.792  -1.120   1.375  0.00  0.00    -0.053 C 
ATOM      6  C   UNL     1       3.022   0.864   1.286  0.00  0.00    +0.050 C 
ATOM      7  C   UNL     1       2.257   0.831  -0.043  0.00  0.00    +0.088 C 
ATOM      8  C   UNL     1       1.193   1.905  -0.044  0.00  0.00    +0.229 C 
ATOM      9  O   UNL     1       1.402   3.098  -0.088  0.00  0.00    -0.275 OA
ATOM     10  C   UNL     1       4.429   0.364   1.124  0.00  0.00    -0.028 A 
ATOM     11  C   UNL     1       4.968  -0.827   0.691  0.00  0.00    +0.004 A 
ATOM     12  C   UNL     1       6.341  -0.993   0.653  0.00  0.00    +0.000 A 
ATOM     13  C   UNL     1       7.170   0.041   1.051  0.00  0.00    +0.002 A 
ATOM     14  C   UNL     1       6.635   1.236   1.484  0.00  0.00    +0.023 A 
ATOM     15  C   UNL     1       5.253   1.411   1.525  0.00  0.00    +0.036 A 
ATOM     16  N   UNL     1       4.484   2.508   1.918  0.00  0.00    -0.286 N 
ATOM     17  C   UNL     1       3.163   2.268   1.806  0.00  0.00    +0.211 C 
ATOM     18  O   UNL     1       2.262   3.036   2.073  0.00  0.00    -0.277 OA
ATOM     19  H   UNL     1       4.857   3.346   2.235  0.00  0.00    +0.155 HD
ATOM     20  N   UNL     1       2.258   0.011   2.180  0.00  0.00    +0.394 N 
ATOM     21  H   UNL     1       2.853  -0.321   2.948  0.00  0.00    -0.083 HD
ATOM     22  H   UNL     1       1.458   0.527   2.565  0.00  0.00    -0.083 HD
ENDROOT
BRANCH   1  26
ATOM     23  C   UNL     1      -3.553   3.541   0.038  0.00  0.00    +0.000 A 
ATOM     24  C   UNL     1      -2.694   3.599   1.120  0.00  0.00    +0.002 A 
ATOM     25  C   UNL     1      -1.522   2.869   1.114  0.00  0.00    +0.024 A 
ATOM     26  C   UNL     1      -1.206   2.076   0.019  0.00  0.00    +0.044 A 
ATOM     27  C   UNL     1      -2.067   2.023  -1.068  0.00  0.00    +0.024 A 
ATOM     28  C   UNL     1      -3.241   2.752  -1.054  0.00  0.00    +0.002 A 
ENDBRANCH   1  26
BRANCH   5  29
ATOM     29  C   UNL     1       0.558  -1.779   1.995  0.00  0.00    +0.020 C 
BRANCH  29  30
ATOM     30  C   UNL     1       0.954  -2.494   3.261  0.00  0.00    -0.049 A 
ATOM     31  C   UNL     1       1.345  -3.820   3.211  0.00  0.00    +0.007 A 
ATOM     32  C   UNL     1       1.714  -4.476   4.369  0.00  0.00    +0.045 A 
ATOM     33  C   UNL     1       1.681  -3.808   5.584  0.00  0.00    +0.117 A 
ATOM     34  C   UNL     1       1.282  -2.480   5.633  0.00  0.00    +0.045 A 
ATOM     35  C   UNL     1       0.920  -1.826   4.471  0.00  0.00    +0.007 A 
BRANCH  33  36
ATOM     36  O   UNL     1       2.037  -4.454   6.726  0.00  0.00    -0.507 OA
ATOM     37  H   UNL     1       1.302  -4.896   7.173  0.00  0.00    +0.292 HD
ENDBRANCH  33  36
ENDBRANCH  29  30
ENDBRANCH   5  29
TORSDOF 4
