REMARK  Name = ZINC08623165
REMARK  7 active torsions:
REMARK  status: ('A' for Active; 'I' for Inactive)
REMARK    1  A    between atoms: C_1  and  C_2
REMARK    2  A    between atoms: C_4  and  C_30
REMARK    3  A    between atoms: C_6  and  C_8
REMARK    4  A    between atoms: C_16  and  C_18
REMARK    5  A    between atoms: C_18  and  N_19
REMARK    6  A    between atoms: N_22  and  C_23
REMARK    7  A    between atoms: C_23  and  C_24
REMARK                            x       y       z     vdW  Elec       q    Type
REMARK                         _______ _______ _______ _____ _____    ______ ____
ROOT
ATOM      1  C   UNL     1       2.985  -3.973  -2.739  0.00  0.00    +0.024 C 
ATOM      2  C   UNL     1       3.040  -2.455  -2.546  0.00  0.00    -0.068 C 
ATOM      3  C   UNL     1       5.153  -2.625  -1.375  0.00  0.00    -0.078 C 
ATOM      4  C   UNL     1       5.159  -4.148  -1.534  0.00  0.00    -0.015 C 
ATOM      5  C   UNL     1       3.709  -4.648  -1.567  0.00  0.00    -0.007 C 
ATOM      6  C   UNL     1       3.019  -4.234  -0.262  0.00  0.00    -0.010 C 
ATOM      7  C   UNL     1       3.073  -2.708  -0.137  0.00  0.00    -0.051 C 
ATOM      8  N   UNL     1       3.766  -2.119  -1.302  0.00  0.00    +0.383 N 
ATOM      9  H   UNL     1       3.789  -1.098  -1.195  0.00  0.00    -0.081 HD
ENDROOT
BRANCH   1  15
ATOM     10  C   UNL     1      -0.405  -7.319  -1.633  0.00  0.00    +0.088 C 
ATOM     11  C   UNL     1      -0.056  -5.993  -2.258  0.00  0.00    +0.127 A 
ATOM     12  N   UNL     1      -1.012  -5.275  -2.811  0.00  0.00    -0.232 NA
ATOM     13  C   UNL     1      -0.740  -4.099  -3.373  0.00  0.00    +0.076 A 
ATOM     14  C   UNL     1       0.579  -3.636  -3.366  0.00  0.00    +0.052 A 
ATOM     15  C   UNL     1       1.548  -4.425  -2.773  0.00  0.00    +0.047 A 
ATOM     16  N   UNL     1       1.198  -5.586  -2.240  0.00  0.00    -0.237 NA
BRANCH  13  17
ATOM     17  C   UNL     1      -1.818  -3.293  -3.995  0.00  0.00    +0.014 A 
ATOM     18  C   UNL     1      -1.938  -1.937  -3.697  0.00  0.00    +0.011 A 
ATOM     19  C   UNL     1      -2.944  -1.192  -4.278  0.00  0.00    +0.001 A 
ATOM     20  C   UNL     1      -3.832  -1.788  -5.156  0.00  0.00    +0.001 A 
ATOM     21  C   UNL     1      -3.718  -3.134  -5.456  0.00  0.00    +0.016 A 
ATOM     22  C   UNL     1      -2.712  -3.888  -4.884  0.00  0.00    +0.027 A 
ATOM     23 BR   UNL     1      -2.553  -5.726  -5.301  0.00  0.00    -0.050 Br
ENDBRANCH  13  17
ENDBRANCH   1  15
BRANCH   7  24
ATOM     24  C   UNL     1       1.649  -2.151  -0.071  0.00  0.00    +0.090 C 
BRANCH  24  25
ATOM     25  N   UNL     1       1.698  -0.687  -0.052  0.00  0.00    -0.301 N 
ATOM     26  C   UNL     1       0.564   0.023   0.103  0.00  0.00    +0.300 C 
ATOM     27  O   UNL     1      -0.510  -0.546   0.135  0.00  0.00    -0.253 OA
ATOM     28  N   UNL     1       0.619   1.365   0.221  0.00  0.00    -0.295 N 
ATOM     29  H   UNL     1       2.548  -0.229  -0.151  0.00  0.00    +0.150 HD
ATOM     30  H   UNL     1       1.476   1.819   0.195  0.00  0.00    +0.151 HD
BRANCH  28  31
ATOM     31  C   UNL     1      -0.615   2.138   0.384  0.00  0.00    +0.141 C 
BRANCH  31  32
ATOM     32  C   UNL     1      -0.279   3.603   0.493  0.00  0.00    -0.030 A 
ATOM     33  C   UNL     1      -0.043   4.167   1.733  0.00  0.00    +0.005 A 
ATOM     34  C   UNL     1       0.269   5.510   1.833  0.00  0.00    +0.000 A 
ATOM     35  C   UNL     1       0.336   6.290   0.694  0.00  0.00    +0.000 A 
ATOM     36  C   UNL     1       0.095   5.727  -0.545  0.00  0.00    +0.000 A 
ATOM     37  C   UNL     1      -0.213   4.383  -0.646  0.00  0.00    +0.005 A 
ENDBRANCH  31  32
ENDBRANCH  28  31
ENDBRANCH  24  25
ENDBRANCH   7  24
TORSDOF 6
