REMARK  Name = ZINC20592279
REMARK  7 active torsions:
REMARK  status: ('A' for Active; 'I' for Inactive)
REMARK    1  A    between atoms: C_1  and  S_2
REMARK    2  A    between atoms: S_2  and  C_3
REMARK    3  A    between atoms: C_3  and  C_4
REMARK    4  A    between atoms: C_4  and  C_5
REMARK    5  A    between atoms: C_5  and  C_7
REMARK    6  A    between atoms: C_5  and  N_24
REMARK    7  A    between atoms: C_25  and  C_27
REMARK                            x       y       z     vdW  Elec       q    Type
REMARK                         _______ _______ _______ _____ _____    ______ ____
ROOT
ATOM      1  C   UNL     1       1.983  -3.777  -2.945  0.00  0.00    +0.236 C 
ATOM      2  O   UNL     1       1.608  -4.477  -3.862  0.00  0.00    -0.274 OA
ATOM      3  N   UNL     1       2.653  -4.323  -1.911  0.00  0.00    -0.300 N 
ATOM      4  C   UNL     1       3.013  -3.512  -0.740  0.00  0.00    +0.110 C 
ATOM      5  C   UNL     1       2.488  -4.206   0.521  0.00  0.00    +0.047 C 
ATOM      6  C   UNL     1       3.012  -5.642   0.564  0.00  0.00    +0.064 C 
ATOM      7  C   UNL     1       2.512  -6.413  -0.659  0.00  0.00    +0.047 C 
ATOM      8  C   UNL     1       3.031  -5.743  -1.929  0.00  0.00    +0.110 C 
ATOM      9  C   UNL     1       2.531  -6.320   1.821  0.00  0.00    +0.057 A 
ATOM     10  H   UNL     1       2.862  -8.100   4.364  0.00  0.00    +0.166 HD
ATOM     11  C   UNL     1       3.327  -7.088   2.600  0.00  0.00    +0.039 A 
ATOM     12  N   UNL     1       2.570  -7.529   3.638  0.00  0.00    -0.349 N 
ATOM     13  C   UNL     1       1.327  -7.018   3.464  0.00  0.00    +0.171 A 
ATOM     14  N   UNL     1       1.317  -6.296   2.373  0.00  0.00    -0.348 N 
ATOM     15  C   UNL     1       4.779  -7.357   2.295  0.00  0.00    +0.070 C 
ATOM     16  C   UNL     1       5.031  -6.970   0.830  0.00  0.00    +0.088 C 
ATOM     17  N   UNL     1       4.483  -5.631   0.572  0.00  0.00    -0.305 NA
ATOM     18  H   UNL     1       4.847  -5.252  -0.289  0.00  0.00    +0.123 HD
ATOM     19  H   UNL     1       0.549  -5.819   2.021  0.00  0.00    +0.166 HD
ENDROOT
BRANCH   1  20
ATOM     20  C   UNL     1       1.700  -2.297  -2.963  0.00  0.00    +0.160 C 
BRANCH  20  21
ATOM     21  N   UNL     1       1.567  -1.842  -4.349  0.00  0.00    -0.297 N 
ATOM     22  C   UNL     1       1.813  -0.554  -4.662  0.00  0.00    +0.280 C 
ATOM     23  O   UNL     1       2.147   0.230  -3.793  0.00  0.00    -0.267 OA
ATOM     24  H   UNL     1       1.302  -2.467  -5.041  0.00  0.00    +0.150 HD
BRANCH  22  25
ATOM     25  C   UNL     1       1.680  -0.099  -6.048  0.00  0.00    +0.191 A 
ATOM     26  C   UNL     1       1.904   1.171  -6.501  0.00  0.00    +0.056 A 
ATOM     27  C   UNL     1       1.659   1.156  -7.882  0.00  0.00    +0.058 A 
ATOM     28  C   UNL     1       1.301  -0.107  -8.210  0.00  0.00    +0.171 A 
ATOM     29  O   UNL     1       1.321  -0.861  -7.102  0.00  0.00    -0.444 OA
ATOM     30 BR   UNL     1       0.854  -0.711  -9.945  0.00  0.00    -0.008 Br
ENDBRANCH  22  25
ENDBRANCH  20  21
BRANCH  20  31
ATOM     31  C   UNL     1       0.400  -2.017  -2.207  0.00  0.00    +0.042 C 
BRANCH  31  32
ATOM     32  C   UNL     1       0.187  -0.506  -2.100  0.00  0.00    +0.071 C 
BRANCH  32  34
ATOM     33  C   UNL     1      -1.460   1.636  -1.165  0.00  0.00    +0.084 C 
ATOM     34  S   UNL     1      -1.355  -0.175  -1.204  0.00  0.00    -0.164 S 
ENDBRANCH  32  34
ENDBRANCH  31  32
ENDBRANCH  20  31
ENDBRANCH   1  20
TORSDOF 6
