REMARK  Name = ZINC64502423
REMARK  6 active torsions:
REMARK  status: ('A' for Active; 'I' for Inactive)
REMARK    1  A    between atoms: C_1  and  C_2
REMARK    2  A    between atoms: C_2  and  C_3
REMARK    3  A    between atoms: C_2  and  C_4
REMARK    4  A    between atoms: N_6  and  C_7
REMARK    5  A    between atoms: C_12  and  N_17
REMARK    6  A    between atoms: C_18  and  C_20
REMARK                            x       y       z     vdW  Elec       q    Type
REMARK                         _______ _______ _______ _____ _____    ______ ____
ROOT
ATOM      1  C   UNL     1       0.999  -0.653   3.632  0.00  0.00    +0.224 C 
ATOM      2  N   UNL     1       0.202  -0.449   4.849  0.00  0.00    -0.316 N 
ATOM      3  C   UNL     1       0.728   0.390   5.830  0.00  0.00    +0.044 A 
ATOM      4  C   UNL     1       0.111   0.703   7.054  0.00  0.00    +0.047 A 
ATOM      5  C   UNL     1       0.715   1.549   7.963  0.00  0.00    +0.035 A 
ATOM      6  C   UNL     1       1.952   2.119   7.695  0.00  0.00    +0.024 A 
ATOM      7  C   UNL     1       2.579   1.825   6.496  0.00  0.00    +0.018 A 
ATOM      8  C   UNL     1       1.973   0.981   5.593  0.00  0.00    +0.032 A 
ATOM      9  S   UNL     1       2.469   0.390   3.988  0.00  0.00    -0.082 S 
ATOM     10  H   UNL     1      -0.658  -0.882   4.966  0.00  0.00    +0.149 HD
ENDROOT
BRANCH   1  13
ATOM     11  C   UNL     1       0.739  -0.477   1.216  0.00  0.00    +0.218 C 
ATOM     12  O   UNL     1       1.738  -1.151   1.088  0.00  0.00    -0.275 OA
ATOM     13  N   UNL     1       0.285  -0.171   2.447  0.00  0.00    -0.288 N 
ATOM     14  H   UNL     1      -0.515   0.368   2.550  0.00  0.00    +0.151 HD
BRANCH  11  16
ATOM     15  C   UNL     1      -0.030   1.549   0.010  0.00  0.00    +0.017 C 
ATOM     16  C   UNL     1       0.004   0.020  -0.003  0.00  0.00    +0.069 C 
ATOM     17  C   UNL     1       0.722  -0.464  -1.264  0.00  0.00    +0.017 C 
ENDBRANCH  11  16
ENDBRANCH   1  13
BRANCH   5  18
ATOM     18  N   UNL     1       0.070   1.837   9.173  0.00  0.00    -0.283 N 
ATOM     19  C   UNL     1       0.792   2.011  10.297  0.00  0.00    +0.244 C 
ATOM     20  O   UNL     1       2.004   2.001  10.247  0.00  0.00    -0.273 OA
ATOM     21  H   UNL     1      -0.897   1.912   9.201  0.00  0.00    +0.155 HD
BRANCH  19  22
ATOM     22  C   UNL     1       0.094   2.218  11.617  0.00  0.00    +0.190 C 
ATOM     23  C   UNL     1      -0.733   1.001  11.966  0.00  0.00    +0.016 C 
ATOM     24  C   UNL     1      -0.232   0.529  13.131  0.00  0.00    -0.002 A 
ATOM     25  C   UNL     1      -0.593  -0.613  13.978  0.00  0.00    +0.029 A 
ATOM     26  C   UNL     1       0.109  -0.837  15.113  0.00  0.00    +0.042 A 
ATOM     27  C   UNL     1       1.172  -0.006  15.498  0.00  0.00    +0.022 A 
ATOM     28  C   UNL     1       1.562   1.062  14.771  0.00  0.00    +0.027 A 
ATOM     29  C   UNL     1       0.893   1.391  13.560  0.00  0.00    +0.043 A 
ATOM     30  N   UNL     1       1.080   2.359  12.694  0.00  0.00    -0.370 N 
ATOM     31 CL   UNL     1      -0.316  -2.187  16.118  0.00  0.00    -0.084 Cl
ATOM     32  H   UNL     1       1.757   3.052  12.755  0.00  0.00    +0.161 HD
ENDBRANCH  19  22
ENDBRANCH   5  18
TORSDOF 4
