REMARK  Name = ZINC36627900
REMARK  10 active torsions:
REMARK  status: ('A' for Active; 'I' for Inactive)
REMARK    1  A    between atoms: C_1  and  C_2
REMARK    2  A    between atoms: C_2  and  C_3
REMARK    3  A    between atoms: C_2  and  N_4
REMARK    4  A    between atoms: N_4  and  C_5
REMARK    5  A    between atoms: N_4  and  S_6
REMARK    6  A    between atoms: S_6  and  C_9
REMARK    7  A    between atoms: C_13  and  C_15
REMARK    8  A    between atoms: N_17  and  N_18
REMARK    9  A    between atoms: C_19  and  C_21
REMARK   10  A    between atoms: C_21  and  C_22
REMARK                            x       y       z     vdW  Elec       q    Type
REMARK                         _______ _______ _______ _____ _____    ______ ____
ROOT
ATOM      1  C   UNL     1       0.857  -5.909  -3.418  0.00  0.00    +0.262 C 
ATOM      2  O   UNL     1       0.495  -7.069  -3.383  0.00  0.00    -0.269 OA
ATOM      3  N   UNL     1       1.139  -5.326  -4.599  0.00  0.00    -0.230 N 
ATOM      4  H   UNL     1       1.428  -4.401  -4.627  0.00  0.00    +0.173 HD
ENDROOT
BRANCH   1   9
ATOM      5  C   UNL     1       1.523  -3.092  -1.026  0.00  0.00    +0.106 A 
ATOM      6  C   UNL     1       1.233  -3.693   0.187  0.00  0.00    +0.030 A 
ATOM      7  C   UNL     1       0.820  -5.012   0.231  0.00  0.00    +0.022 A 
ATOM      8  C   UNL     1       0.696  -5.739  -0.937  0.00  0.00    +0.053 A 
ATOM      9  C   UNL     1       0.987  -5.138  -2.164  0.00  0.00    +0.058 A 
ATOM     10  C   UNL     1       1.397  -3.804  -2.200  0.00  0.00    +0.043 A 
ATOM     11 CL   UNL     1       0.178  -7.396  -0.880  0.00  0.00    -0.083 Cl
BRANCH   5  12
ATOM     12  S   UNL     1       2.048  -1.411  -1.069  0.00  0.00    +0.061 S 
ATOM     13  O   UNL     1       2.776  -1.244  -2.278  0.00  0.00    -0.153 OA
ATOM     14  O   UNL     1       2.612  -1.128   0.204  0.00  0.00    -0.153 OA
BRANCH  12  15
ATOM     15  N   UNL     1       0.688  -0.476  -1.203  0.00  0.00    -0.177 NA
ATOM     16  C   UNL     1       0.170  -0.122  -2.527  0.00  0.00    +0.132 C 
BRANCH  15  18
ATOM     17  C   UNL     1      -0.019   1.526   0.010  0.00  0.00    +0.025 C 
ATOM     18  C   UNL     1       0.002  -0.004   0.002  0.00  0.00    +0.073 C 
ATOM     19  C   UNL     1      -1.433  -0.534   0.013  0.00  0.00    +0.025 C 
ENDBRANCH  15  18
ENDBRANCH  12  15
ENDBRANCH   5  12
ENDBRANCH   1   9
BRANCH   3  20
ATOM     20  N   UNL     1       1.016  -6.057  -5.788  0.00  0.00    -0.234 N 
ATOM     21  C   UNL     1       1.298  -5.474  -6.970  0.00  0.00    +0.230 C 
ATOM     22  O   UNL     1       1.659  -4.317  -7.005  0.00  0.00    -0.274 OA
ATOM     23  H   UNL     1       0.727  -6.983  -5.761  0.00  0.00    +0.173 HD
BRANCH  21  24
ATOM     24  C   UNL     1       1.165  -6.260  -8.249  0.00  0.00    +0.104 C 
BRANCH  24  25
ATOM     25  C   UNL     1       1.542  -5.371  -9.436  0.00  0.00    -0.020 C 
ATOM     26  C   UNL     1       0.609  -4.160  -9.482  0.00  0.00    +0.011 C 
ATOM     27  C   UNL     1       0.986  -3.271 -10.669  0.00  0.00    -0.010 C 
ATOM     28  C   UNL     1       0.851  -4.069 -11.967  0.00  0.00    +0.007 C 
ATOM     29  C   UNL     1       1.784  -5.280 -11.921  0.00  0.00    -0.010 C 
ATOM     30  C   UNL     1       1.407  -6.169 -10.734  0.00  0.00    +0.011 C 
ATOM     31  C   UNL     1       3.230  -4.805 -11.762  0.00  0.00    +0.007 C 
ATOM     32  C   UNL     1       3.365  -4.006 -10.464  0.00  0.00    -0.010 C 
ATOM     33  C   UNL     1       2.432  -2.795 -10.511  0.00  0.00    +0.007 C 
ATOM     34  C   UNL     1       2.987  -4.896  -9.277  0.00  0.00    +0.011 C 
ENDBRANCH  24  25
ENDBRANCH  21  24
ENDBRANCH   3  20
TORSDOF 7
