REMARK  Name = ZINC08940425
REMARK  8 active torsions:
REMARK  status: ('A' for Active; 'I' for Inactive)
REMARK    1  A    between atoms: C_1  and  C_2
REMARK    2  A    between atoms: C_2  and  C_4
REMARK    3  A    between atoms: C_4  and  C_6
REMARK    4  A    between atoms: C_4  and  N_13
REMARK    5  A    between atoms: C_6  and  C_7
REMARK    6  A    between atoms: C_14  and  C_16
REMARK    7  A    between atoms: C_16  and  N_59
REMARK    8  A    between atoms: C_19  and  N_22
REMARK                            x       y       z     vdW  Elec       q    Type
REMARK                         _______ _______ _______ _____ _____    ______ ____
ROOT
ATOM      1  C   UNL     1      -2.230  -1.064   6.083  0.00  0.00    -0.076 C 
ATOM      2  C   UNL     1      -2.238  -0.826   7.595  0.00  0.00    +0.006 C 
ATOM      3  C   UNL     1      -1.354  -1.874   8.276  0.00  0.00    +0.089 C 
ATOM      4  C   UNL     1       0.062  -1.790   7.699  0.00  0.00    +0.006 C 
ATOM      5  C   UNL     1       0.003  -2.001   6.184  0.00  0.00    -0.076 C 
ATOM      6  N   UNL     1      -0.843  -0.946   5.585  0.00  0.00    +0.386 N 
ATOM      7  H   UNL     1      -0.470  -0.028   5.854  0.00  0.00    -0.081 HD
ENDROOT
BRANCH   3   8
ATOM      8  N   UNL     1      -1.310  -1.617   9.718  0.00  0.00    -0.289 N 
ATOM      9  C   UNL     1      -1.721  -2.497  10.716  0.00  0.00    +0.070 A 
ATOM     10  C   UNL     1      -2.254  -3.777  10.695  0.00  0.00    +0.028 A 
ATOM     11  C   UNL     1      -2.571  -4.409  11.882  0.00  0.00    +0.002 A 
ATOM     12  C   UNL     1      -2.357  -3.771  13.091  0.00  0.00    +0.002 A 
ATOM     13  C   UNL     1      -1.826  -2.496  13.122  0.00  0.00    +0.028 A 
ATOM     14  C   UNL     1      -1.506  -1.853  11.936  0.00  0.00    +0.067 A 
ATOM     15  N   UNL     1      -0.971  -0.602  11.642  0.00  0.00    -0.306 N 
ATOM     16  H   UNL     1      -0.717   0.074  12.290  0.00  0.00    +0.170 HD
ATOM     17  C   UNL     1      -0.861  -0.491  10.304  0.00  0.00    +0.328 A 
ATOM     18  O   UNL     1      -0.424   0.480   9.715  0.00  0.00    -0.247 OA
ENDBRANCH   3   8
BRANCH   6  19
ATOM     19  C   UNL     1      -0.824  -1.059   4.112  0.00  0.00    +0.019 C 
BRANCH  19  21
ATOM     20  N   UNL     1       0.855  -0.837   2.310  0.00  0.00    -0.307 N 
ATOM     21  C   UNL     1       0.554  -0.704   3.617  0.00  0.00    +0.197 C 
ATOM     22  O   UNL     1       1.393  -0.299   4.394  0.00  0.00    -0.278 OA
ATOM     23  H   UNL     1       0.184  -1.161   1.688  0.00  0.00    +0.149 HD
BRANCH  20  24
ATOM     24  C   UNL     1       2.195  -0.492   1.827  0.00  0.00    +0.143 C 
BRANCH  24  26
ATOM     25  C   UNL     1       3.597   1.660   1.364  0.00  0.00    +0.088 C 
ATOM     26  C   UNL     1       2.261   0.987   1.544  0.00  0.00    +0.151 C 
ATOM     27  O   UNL     1       1.244   1.632   1.462  0.00  0.00    -0.296 OA
ENDBRANCH  24  26
BRANCH  24  28
ATOM     28  C   UNL     1       2.491  -1.271   0.544  0.00  0.00    +0.065 C 
BRANCH  28  29
ATOM     29  C   UNL     1       2.546  -2.745   0.853  0.00  0.00    -0.045 A 
ATOM     30  C   UNL     1       1.397  -3.510   0.777  0.00  0.00    +0.004 A 
ATOM     31  C   UNL     1       1.448  -4.863   1.054  0.00  0.00    +0.000 A 
ATOM     32  C   UNL     1       2.647  -5.450   1.413  0.00  0.00    +0.000 A 
ATOM     33  C   UNL     1       3.795  -4.684   1.494  0.00  0.00    +0.000 A 
ATOM     34  C   UNL     1       3.744  -3.331   1.216  0.00  0.00    +0.004 A 
ENDBRANCH  28  29
ENDBRANCH  24  28
ENDBRANCH  20  24
ENDBRANCH  19  21
ENDBRANCH   6  19
TORSDOF 7
