REMARK  Name = ZINC51330761
REMARK  3 active torsions:
REMARK  status: ('A' for Active; 'I' for Inactive)
REMARK    1  A    between atoms: C_8  and  C_11
REMARK    2  A    between atoms: N_15  and  C_19
REMARK    3  A    between atoms: C_22  and  O_25
REMARK                            x       y       z     vdW  Elec       q    Type
REMARK                         _______ _______ _______ _____ _____    ______ ____
ROOT
ATOM      1  C   UNL     1       2.598  -4.162   1.215  0.00  0.00    +0.027 C 
ATOM      2  C   UNL     1       3.824  -4.720   0.990  0.00  0.00    +0.077 C 
ATOM      3  C   UNL     1       4.217  -6.139   0.953  0.00  0.00    +0.263 C 
ATOM      4  O   UNL     1       3.409  -7.031   1.138  0.00  0.00    -0.269 OA
ATOM      5  N   UNL     1       5.491  -6.397   0.709  0.00  0.00    -0.224 N 
ATOM      6  C   UNL     1       6.383  -5.406   0.504  0.00  0.00    +0.125 C 
ATOM      7  S   UNL     1       8.059  -5.534   0.177  0.00  0.00    -0.027 S 
ATOM      8  S   UNL     1       5.391  -3.929   0.650  0.00  0.00    -0.061 S 
ENDROOT
BRANCH   1  16
ATOM      9  C   UNL     1      -0.027   1.338   1.543  0.00  0.00    +0.001 A 
ATOM     10  C   UNL     1       0.873   1.968   0.699  0.00  0.00    +0.004 A 
ATOM     11  C   UNL     1       1.882   1.250   0.083  0.00  0.00    +0.046 A 
ATOM     12  C   UNL     1       1.997  -0.110   0.308  0.00  0.00    +0.128 A 
ATOM     13  C   UNL     1       1.085  -0.751   1.166  0.00  0.00    +0.017 A 
ATOM     14  C   UNL     1       0.071  -0.018   1.782  0.00  0.00    +0.011 A 
ATOM     15  C   UNL     1       1.232  -2.197   1.390  0.00  0.00    +0.018 C 
ATOM     16  C   UNL     1       2.412  -2.778   1.039  0.00  0.00    -0.009 C 
ATOM     17  C   UNL     1       3.517  -1.932   0.463  0.00  0.00    +0.264 C 
ATOM     18  O   UNL     1       2.974  -0.841  -0.282  0.00  0.00    -0.487 OA
ENDBRANCH   1  16
BRANCH   5  19
ATOM     19  C   UNL     1       5.925  -7.730   0.663  0.00  0.00    +0.043 A 
ATOM     20  C   UNL     1       6.357  -8.361   1.821  0.00  0.00    +0.027 A 
ATOM     21  C   UNL     1       6.783  -9.673   1.775  0.00  0.00    +0.047 A 
ATOM     22  C   UNL     1       6.779 -10.362   0.571  0.00  0.00    +0.117 A 
ATOM     23  C   UNL     1       6.347  -9.733  -0.587  0.00  0.00    +0.047 A 
ATOM     24  C   UNL     1       5.915  -8.422  -0.541  0.00  0.00    +0.027 A 
BRANCH  22  25
ATOM     25  O   UNL     1       7.199 -11.654   0.526  0.00  0.00    -0.507 OA
ATOM     26  H   UNL     1       6.496 -12.302   0.672  0.00  0.00    +0.292 HD
ENDBRANCH  22  25
ENDBRANCH   5  19
TORSDOF 3
