REMARK  Name = ZINC22056490
REMARK  8 active torsions:
REMARK  status: ('A' for Active; 'I' for Inactive)
REMARK    1  A    between atoms: C_1  and  C_2
REMARK    2  A    between atoms: C_5  and  O_38
REMARK    3  A    between atoms: C_7  and  C_11
REMARK    4  A    between atoms: C_11  and  C_13
REMARK    5  A    between atoms: C_11  and  C_14
REMARK    6  A    between atoms: C_15  and  C_37
REMARK    7  A    between atoms: C_29  and  C_36
REMARK    8  A    between atoms: C_32  and  O_35
REMARK                            x       y       z     vdW  Elec       q    Type
REMARK                         _______ _______ _______ _____ _____    ______ ____
ROOT
ATOM      1  C   UNL     1       1.093   2.002   0.069  0.00  0.00    -0.065 C 
ATOM      2  C   UNL     1      -0.191   1.627   0.216  0.00  0.00    -0.048 C 
ATOM      3  C   UNL     1      -0.315   0.155   0.258  0.00  0.00    -0.045 C 
ATOM      4  C   UNL     1      -1.025  -0.668   0.998  0.00  0.00    -0.018 C 
ATOM      5  C   UNL     1      -0.539  -2.058   0.758  0.00  0.00    +0.026 C 
ATOM      6  C   UNL     1       0.011  -2.029  -0.690  0.00  0.00    +0.008 C 
ATOM      7  C   UNL     1       0.533  -0.615  -0.773  0.00  0.00    +0.023 C 
ATOM      8  C   UNL     1       1.973  -0.387  -0.364  0.00  0.00    +0.013 C 
ATOM      9  C   UNL     1       2.238   1.055   0.028  0.00  0.00    +0.032 C 
ATOM     10  C   UNL     1       1.028  -3.166  -0.764  0.00  0.00    +0.032 C 
ATOM     11  C   UNL     1       0.256  -4.424  -0.432  0.00  0.00    -0.027 C 
ATOM     12  C   UNL     1      -0.843  -4.447   0.270  0.00  0.00    -0.065 C 
ATOM     13  C   UNL     1      -1.483  -3.218   0.881  0.00  0.00    -0.004 C 
ATOM     14  C   UNL     1      -1.801  -3.498   2.353  0.00  0.00    +0.014 C 
ATOM     15  C   UNL     1      -2.642  -4.770   2.467  0.00  0.00    +0.032 C 
ATOM     16  C   UNL     1      -1.829  -5.965   1.965  0.00  0.00    +0.119 C 
ATOM     17  C   UNL     1      -1.533  -5.782   0.474  0.00  0.00    +0.062 C 
ATOM     18  C   UNL     1      -2.779  -2.901   0.133  0.00  0.00    +0.016 C 
ATOM     19  C   UNL     1      -1.351   2.584   0.319  0.00  0.00    +0.044 C 
ENDROOT
BRANCH   1  20
ATOM     20  C   UNL     1       1.388   3.474  -0.064  0.00  0.00    +0.000 C 
ATOM     21  C   UNL     1       2.075   3.737  -1.406  0.00  0.00    +0.010 C 
BRANCH  20  26
ATOM     22  C   UNL     1       3.704   5.796   4.663  0.00  0.00    +0.005 C 
ATOM     23  C   UNL     1       2.775   5.415   3.509  0.00  0.00    -0.029 C 
ATOM     24  C   UNL     1       3.393   5.872   2.184  0.00  0.00    +0.031 C 
ATOM     25  C   UNL     1       2.487   5.434   1.030  0.00  0.00    +0.101 C 
ATOM     26  C   UNL     1       2.309   3.914   1.075  0.00  0.00    -0.036 C 
ATOM     27  N   UNL     1       1.715   3.528   2.362  0.00  0.00    +0.383 N 
ATOM     28  C   UNL     1       2.590   3.896   3.482  0.00  0.00    -0.079 C 
ATOM     29  H   UNL     1       0.749   4.040   2.487  0.00  0.00    -0.085 HD
ATOM     30  H   UNL     1       1.558   2.440   2.381  0.00  0.00    -0.085 HD
BRANCH  25  31
ATOM     31  O   UNL     1       3.084   5.807  -0.214  0.00  0.00    -0.393 OA
ATOM     32  H   UNL     1       2.574   5.574  -1.161  0.00  0.00    +0.210 HD
ENDBRANCH  25  31
ENDBRANCH  20  26
ENDBRANCH   1  20
BRANCH  16  33
ATOM     33  O   UNL     1      -0.599  -6.044   2.689  0.00  0.00    -0.391 OA
ATOM     34  H   UNL     1       0.121  -6.845   2.465  0.00  0.00    +0.210 HD
ENDBRANCH  16  33
TORSDOF 4
