REMARK  Name = ZINC02188794
REMARK  10 active torsions:
REMARK  status: ('A' for Active; 'I' for Inactive)
REMARK    1  A    between atoms: C_1  and  C_2
REMARK    2  A    between atoms: C_2  and  O_3
REMARK    3  A    between atoms: O_3  and  C_4
REMARK    4  A    between atoms: C_4  and  C_6
REMARK    5  A    between atoms: C_10  and  N_11
REMARK    6  A    between atoms: C_14  and  C_21
REMARK    7  A    between atoms: C_16  and  C_19
REMARK    8  A    between atoms: C_17  and  N_18
REMARK    9  A    between atoms: C_31  and  C_33
REMARK   10  A    between atoms: C_31  and  C_34
REMARK                            x       y       z     vdW  Elec       q    Type
REMARK                         _______ _______ _______ _____ _____    ______ ____
ROOT
ATOM      1  N   UNL     1       1.628   3.382   0.692  0.00  0.00    -0.254 N 
ATOM      2  C   UNL     1       1.383   2.203   0.037  0.00  0.00    +0.025 C 
ATOM      3  C   UNL     1       2.380   1.541  -0.586  0.00  0.00    +0.025 C 
ATOM      4  C   UNL     1       3.784   2.091  -0.601  0.00  0.00    +0.097 C 
ATOM      5  C   UNL     1       3.974   3.122   0.473  0.00  0.00    +0.077 C 
ATOM      6  C   UNL     1       2.910   3.721   1.067  0.00  0.00    +0.107 C 
ATOM      7  C   UNL     1       2.141   0.321  -1.243  0.00  0.00    +0.162 C 
ATOM      8  O   UNL     1       3.059  -0.243  -1.805  0.00  0.00    -0.292 OA
ATOM      9  C   UNL     1       0.770  -0.298  -1.264  0.00  0.00    +0.086 C 
ATOM     10  C   UNL     1       0.008   0.135  -0.008  0.00  0.00    -0.023 C 
ATOM     11  C   UNL     1      -0.027   1.664   0.035  0.00  0.00    +0.058 C 
ATOM     12  C   UNL     1       0.722  -0.398   1.236  0.00  0.00    +0.011 C 
ATOM     13  C   UNL     1      -1.421  -0.411  -0.055  0.00  0.00    +0.011 C 
ENDROOT
BRANCH   1  18
ATOM     14  C   UNL     1      -0.158   4.345   2.151  0.00  0.00    +0.091 A 
ATOM     15  C   UNL     1      -1.217   5.339   2.193  0.00  0.00    -0.021 A 
ATOM     16  C   UNL     1      -1.370   6.066   1.065  0.00  0.00    -0.004 A 
ATOM     17  S   UNL     1      -0.129   5.454  -0.040  0.00  0.00    -0.077 S 
ATOM     18  C   UNL     1       0.578   4.242   0.978  0.00  0.00    +0.092 A 
ATOM     19  C   UNL     1      -2.371   7.152   0.819  0.00  0.00    +0.043 C 
ATOM     20  C   UNL     1      -3.451   7.069   1.908  0.00  0.00    +0.005 C 
ATOM     21  C   UNL     1      -2.768   6.949   3.273  0.00  0.00    +0.005 C 
ATOM     22  C   UNL     1      -2.110   5.574   3.405  0.00  0.00    +0.037 C 
BRANCH  14  23
ATOM     23  C   UNL     1       0.123   3.484   3.302  0.00  0.00    +0.342 C 
ATOM     24  O   UNL     1       0.996   3.790   4.092  0.00  0.00    -0.245 OA
BRANCH  23  25
ATOM     25  O   UNL     1      -0.586   2.352   3.486  0.00  0.00    -0.461 OA
BRANCH  25  27
ATOM     26  C   UNL     1      -1.143   0.309   4.689  0.00  0.00    +0.048 C 
ATOM     27  C   UNL     1      -0.338   1.610   4.709  0.00  0.00    +0.229 C 
ENDBRANCH  25  27
ENDBRANCH  23  25
ENDBRANCH  14  23
ENDBRANCH   1  18
BRANCH   4  28
ATOM     28  C   UNL     1       4.053   2.721  -1.943  0.00  0.00    -0.035 A 
ATOM     29  C   UNL     1       3.268   3.770  -2.383  0.00  0.00    +0.007 A 
ATOM     30  C   UNL     1       3.517   4.352  -3.612  0.00  0.00    +0.038 A 
ATOM     31  C   UNL     1       4.547   3.877  -4.406  0.00  0.00    +0.123 A 
ATOM     32  C   UNL     1       5.330   2.823  -3.966  0.00  0.00    +0.038 A 
ATOM     33  C   UNL     1       5.082   2.247  -2.735  0.00  0.00    +0.007 A 
ATOM     34  F   UNL     1       4.788   4.442  -5.609  0.00  0.00    -0.205 F 
ENDBRANCH   4  28
BRANCH   6  35
ATOM     35  N   UNL     1       3.112   4.666   2.044  0.00  0.00    -0.345 N 
ATOM     36  H   UNL     1       4.012   4.957   2.258  0.00  0.00    +0.144 HD
ATOM     37  H   UNL     1       2.354   5.042   2.519  0.00  0.00    +0.144 HD
ENDBRANCH   6  35
BRANCH   5  38
ATOM     38  C   UNL     1       5.300   3.478   0.880  0.00  0.00    +0.099 C 
ATOM     39  N   UNL     1       6.352   3.761   1.202  0.00  0.00    -0.191 NA
ENDBRANCH   5  38
TORSDOF 7
