REMARK  Name = ZINC12418221
REMARK  14 active torsions:
REMARK  status: ('A' for Active; 'I' for Inactive)
REMARK    1  A    between atoms: C_1  and  O_2
REMARK    2  A    between atoms: O_2  and  C_3
REMARK    3  A    between atoms: C_5  and  C_25
REMARK    4  A    between atoms: C_6  and  S_11
REMARK    5  A    between atoms: C_8  and  O_9
REMARK    6  A    between atoms: O_9  and  C_10
REMARK    7  A    between atoms: S_11  and  N_14
REMARK    8  A    between atoms: N_14  and  C_15
REMARK    9  A    between atoms: C_18  and  S_21
REMARK   10  A    between atoms: S_21  and  N_24
REMARK   11  A    between atoms: C_25  and  C_26
REMARK   12  A    between atoms: C_26  and  N_27
REMARK   13  A    between atoms: N_27  and  S_28
REMARK   14  A    between atoms: S_28  and  C_31
REMARK                            x       y       z     vdW  Elec       q    Type
REMARK                         _______ _______ _______ _____ _____    ______ ____
ROOT
ATOM      1  C   UNL     1       6.612  -2.451   0.339  0.00  0.00    +0.162 A 
ATOM      2  C   UNL     1       5.836  -1.384  -0.084  0.00  0.00    +0.055 A 
ATOM      3  C   UNL     1       4.490  -1.568  -0.342  0.00  0.00    -0.016 A 
ATOM      4  C   UNL     1       3.916  -2.815  -0.179  0.00  0.00    +0.115 A 
ATOM      5  C   UNL     1       4.683  -3.883   0.248  0.00  0.00    +0.078 A 
ATOM      6  C   UNL     1       6.034  -3.707   0.503  0.00  0.00    +0.163 A 
ENDROOT
BRANCH   4   7
ATOM      7  S   UNL     1       2.200  -3.042  -0.509  0.00  0.00    +0.073 S 
ATOM      8  O   UNL     1       1.511  -2.022   0.202  0.00  0.00    -0.150 OA
ATOM      9  O   UNL     1       1.928  -4.423  -0.313  0.00  0.00    -0.150 OA
BRANCH   7  10
ATOM     10  N   UNL     1       1.966  -2.737  -2.119  0.00  0.00    -0.216 N 
ATOM     11  H   UNL     1       1.448  -1.966  -2.397  0.00  0.00    +0.174 HD
BRANCH  10  12
ATOM     12  C   UNL     1       2.515  -3.591  -3.079  0.00  0.00    +0.048 A 
ATOM     13  C   UNL     1       1.742  -4.026  -4.147  0.00  0.00    +0.026 A 
ATOM     14  C   UNL     1       2.289  -4.870  -5.095  0.00  0.00    +0.030 A 
ATOM     15  C   UNL     1       3.604  -5.281  -4.980  0.00  0.00    +0.105 A 
ATOM     16  C   UNL     1       4.377  -4.850  -3.917  0.00  0.00    +0.030 A 
ATOM     17  C   UNL     1       3.836  -4.006  -2.966  0.00  0.00    +0.026 A 
BRANCH  15  18
ATOM     18  S   UNL     1       4.297  -6.358  -6.190  0.00  0.00    +0.056 S 
ATOM     19  O   UNL     1       5.302  -7.117  -5.531  0.00  0.00    -0.153 OA
ATOM     20  O   UNL     1       3.205  -6.965  -6.867  0.00  0.00    -0.153 OA
BRANCH  18  21
ATOM     21  N   UNL     1       5.074  -5.409  -7.302  0.00  0.00    -0.204 NA
ATOM     22  H   UNL     1       5.804  -5.775  -7.827  0.00  0.00    +0.144 HD
ATOM     23  H   UNL     1       4.800  -4.487  -7.429  0.00  0.00    +0.144 HD
ENDBRANCH  18  21
ENDBRANCH  15  18
ENDBRANCH  10  12
ENDBRANCH   7  10
ENDBRANCH   4   7
BRANCH   1  25
ATOM     24  C   UNL     1       8.461  -0.957   0.403  0.00  0.00    +0.277 C 
ATOM     25  O   UNL     1       7.936  -2.273   0.593  0.00  0.00    -0.491 OA
ENDBRANCH   1  25
BRANCH   6  26
ATOM     26  O   UNL     1       6.792  -4.757   0.918  0.00  0.00    -0.491 OA
ATOM     27  C   UNL     1       6.131  -6.016   1.064  0.00  0.00    +0.277 C 
ENDBRANCH   6  26
BRANCH   3  28
ATOM     28  C   UNL     1       3.647  -0.406  -0.802  0.00  0.00    +0.054 C 
BRANCH  28  29
ATOM     29  C   UNL     1       3.058   0.310   0.415  0.00  0.00    +0.110 C 
BRANCH  29  30
ATOM     30  N   UNL     1       2.134   1.354  -0.033  0.00  0.00    -0.194 NA
ATOM     31  H   UNL     1       2.158   1.661  -0.953  0.00  0.00    +0.148 HD
BRANCH  30  32
ATOM     32  S   UNL     1       1.049   2.012   1.031  0.00  0.00    +0.027 S 
ATOM     33  O   UNL     1       0.330   2.972   0.269  0.00  0.00    -0.158 OA
ATOM     34  O   UNL     1       0.382   0.896   1.605  0.00  0.00    -0.158 OA
ATOM     35  C   UNL     1       2.067   2.842   2.282  0.00  0.00    +0.214 C 
ENDBRANCH  30  32
ENDBRANCH  29  30
ENDBRANCH  28  29
ENDBRANCH   3  28
TORSDOF 11
