REMARK  Name = ZINC46673644
REMARK  8 active torsions:
REMARK  status: ('A' for Active; 'I' for Inactive)
REMARK    1  A    between atoms: C_1  and  C_2
REMARK    2  A    between atoms: C_7  and  C_8
REMARK    3  A    between atoms: C_8  and  C_10
REMARK    4  A    between atoms: C_8  and  N_27
REMARK    5  A    between atoms: C_10  and  C_11
REMARK    6  A    between atoms: N_13  and  C_14
REMARK    7  A    between atoms: C_14  and  C_15
REMARK    8  A    between atoms: C_18  and  C_20
REMARK                            x       y       z     vdW  Elec       q    Type
REMARK                         _______ _______ _______ _____ _____    ______ ____
ROOT
ATOM      1  C   UNL     1       1.128   1.536   4.147  0.00  0.00    +0.215 C 
ATOM      2  O   UNL     1       0.004   1.711   4.566  0.00  0.00    -0.276 OA
ATOM      3  N   UNL     1       2.170   2.161   4.731  0.00  0.00    -0.308 N 
ATOM      4  H   UNL     1       3.069   2.022   4.396  0.00  0.00    +0.149 HD
ENDROOT
BRANCH   1   5
ATOM      5  C   UNL     1       1.361   0.620   2.973  0.00  0.00    +0.123 C 
BRANCH   5   6
ATOM      6  C   UNL     1       0.024   0.044   2.503  0.00  0.00    +0.114 C 
BRANCH   6  13
ATOM      7  C   UNL     1      -2.230  -0.709   0.860  0.00  0.00    +0.044 C 
ATOM      8  C   UNL     1      -0.838  -1.133   0.469  0.00  0.00    -0.045 A 
ATOM      9  C   UNL     1      -0.639  -1.879  -0.678  0.00  0.00    +0.004 A 
ATOM     10  C   UNL     1       0.638  -2.268  -1.036  0.00  0.00    +0.000 A 
ATOM     11  C   UNL     1       1.716  -1.913  -0.247  0.00  0.00    +0.000 A 
ATOM     12  C   UNL     1       1.517  -1.167   0.900  0.00  0.00    +0.006 A 
ATOM     13  C   UNL     1       0.241  -0.774   1.255  0.00  0.00    -0.024 A 
ENDBRANCH   6  13
BRANCH   6  14
ATOM     14  N   UNL     1      -0.537  -0.808   3.554  0.00  0.00    -0.292 N 
ATOM     15  C   UNL     1       0.102  -1.937   3.920  0.00  0.00    +0.298 C 
ATOM     16  O   UNL     1       1.190  -2.201   3.444  0.00  0.00    -0.253 OA
ATOM     17  N   UNL     1      -0.464  -2.773   4.812  0.00  0.00    -0.313 N 
ATOM     18  H   UNL     1      -1.369  -0.560   3.987  0.00  0.00    +0.151 HD
ATOM     19  H   UNL     1      -1.331  -2.563   5.191  0.00  0.00    +0.146 HD
ATOM     20  H   UNL     1      -0.003  -3.586   5.075  0.00  0.00    +0.146 HD
ENDBRANCH   6  14
ENDBRANCH   5   6
ENDBRANCH   1   5
BRANCH   3  21
ATOM     21  C   UNL     1       1.943   3.052   5.872  0.00  0.00    +0.178 C 
BRANCH  21  22
ATOM     22  C   UNL     1       3.260   3.619   6.335  0.00  0.00    +0.123 A 
ATOM     23  C   UNL     1       3.820   4.763   5.897  0.00  0.00    +0.047 A 
ATOM     24  C   UNL     1       5.039   4.918   6.587  0.00  0.00    +0.050 A 
ATOM     25  C   UNL     1       5.157   3.848   7.418  0.00  0.00    +0.135 A 
ATOM     26  O   UNL     1       4.067   3.072   7.259  0.00  0.00    -0.458 OA
BRANCH  25  27
ATOM     27  C   UNL     1       6.281   3.586   8.340  0.00  0.00    +0.017 A 
ATOM     28  C   UNL     1       7.349   4.482   8.416  0.00  0.00    +0.012 A 
ATOM     29  C   UNL     1       8.396   4.231   9.279  0.00  0.00    +0.016 A 
ATOM     30  C   UNL     1       8.389   3.094  10.068  0.00  0.00    +0.018 A 
ATOM     31  C   UNL     1       7.333   2.201   9.996  0.00  0.00    +0.016 A 
ATOM     32  C   UNL     1       6.278   2.443   9.142  0.00  0.00    +0.012 A 
ATOM     33 BR   UNL     1       9.829   2.757  11.246  0.00  0.00    -0.050 Br
ENDBRANCH  25  27
ENDBRANCH  21  22
ENDBRANCH   3  21
TORSDOF 7
