REMARK  Name = ZINC36597660
REMARK  14 active torsions:
REMARK  status: ('A' for Active; 'I' for Inactive)
REMARK    1  A    between atoms: C_1  and  C_2
REMARK    2  A    between atoms: C_5  and  C_7
REMARK    3  A    between atoms: C_7  and  N_8
REMARK    4  A    between atoms: N_8  and  C_9
REMARK    5  A    between atoms: C_9  and  C_11
REMARK    6  A    between atoms: C_9  and  C_18
REMARK    7  A    between atoms: C_14  and  O_17
REMARK    8  A    between atoms: N_20  and  C_21
REMARK    9  A    between atoms: C_21  and  C_22
REMARK   10  A    between atoms: C_21  and  C_23
REMARK   11  A    between atoms: C_21  and  C_24
REMARK   12  A    between atoms: C_25  and  C_27
REMARK   13  A    between atoms: C_31  and  O_34
REMARK   14  A    between atoms: C_32  and  O_33
REMARK                            x       y       z     vdW  Elec       q    Type
REMARK                         _______ _______ _______ _____ _____    ______ ____
ROOT
ATOM      1  N   UNL     1       2.919  -2.514  -1.432  0.00  0.00    -0.275 N 
ATOM      2  C   UNL     1       1.708  -2.015  -1.114  0.00  0.00    +0.252 C 
ATOM      3  O   UNL     1       1.438  -1.766   0.045  0.00  0.00    -0.270 OA
ENDROOT
BRANCH   2   4
ATOM      4  C   UNL     1       0.709  -1.771  -2.173  0.00  0.00    +0.082 A 
ATOM      5  C   UNL     1       0.840  -2.393  -3.418  0.00  0.00    +0.017 A 
ATOM      6  C   UNL     1      -0.094  -2.163  -4.404  0.00  0.00    +0.005 A 
ATOM      7  C   UNL     1      -1.166  -1.318  -4.169  0.00  0.00    +0.049 A 
ATOM      8  C   UNL     1      -1.309  -0.695  -2.942  0.00  0.00    +0.159 A 
ATOM      9  C   UNL     1      -0.377  -0.921  -1.934  0.00  0.00    +0.171 A 
BRANCH   9  10
ATOM     10  O   UNL     1      -0.516  -0.317  -0.726  0.00  0.00    -0.503 OA
ATOM     11  H   UNL     1      -0.083   0.546  -0.666  0.00  0.00    +0.292 HD
ENDBRANCH   9  10
BRANCH   8  12
ATOM     12  O   UNL     1      -2.364   0.135  -2.719  0.00  0.00    -0.503 OA
ATOM     13  H   UNL     1      -3.145  -0.310  -2.362  0.00  0.00    +0.292 HD
ENDBRANCH   8  12
ENDBRANCH   2   4
BRANCH   1  14
ATOM     14  C   UNL     1       3.850  -2.907  -0.372  0.00  0.00    +0.183 C 
BRANCH  14  19
ATOM     15  C   UNL     1       2.115  -7.308   1.378  0.00  0.00    +0.086 C 
ATOM     16  C   UNL     1       2.965  -6.299   0.650  0.00  0.00    +0.102 A 
ATOM     17  C   UNL     1       4.046  -6.577  -0.101  0.00  0.00    +0.045 A 
ATOM     18  C   UNL     1       4.532  -5.344  -0.592  0.00  0.00    +0.046 A 
ATOM     19  C   UNL     1       3.719  -4.386  -0.112  0.00  0.00    +0.122 A 
ATOM     20  O   UNL     1       2.768  -4.971   0.635  0.00  0.00    -0.463 OA
ENDBRANCH  14  19
ENDBRANCH   1  14
BRANCH   1  21
ATOM     21  C   UNL     1       3.304  -2.662  -2.838  0.00  0.00    +0.193 C 
BRANCH  21  22
ATOM     22  C   UNL     1       2.802  -1.478  -3.624  0.00  0.00    -0.018 A 
ATOM     23  C   UNL     1       2.345  -0.354  -2.962  0.00  0.00    +0.009 A 
ATOM     24  C   UNL     1       1.884   0.733  -3.680  0.00  0.00    +0.046 A 
ATOM     25  C   UNL     1       1.881   0.695  -5.067  0.00  0.00    +0.117 A 
ATOM     26  C   UNL     1       2.340  -0.434  -5.729  0.00  0.00    +0.046 A 
ATOM     27  C   UNL     1       2.805  -1.516  -5.006  0.00  0.00    +0.009 A 
BRANCH  25  28
ATOM     28  O   UNL     1       1.427   1.762  -5.776  0.00  0.00    -0.507 OA
ATOM     29  H   UNL     1       2.112   2.410  -5.992  0.00  0.00    +0.292 HD
ENDBRANCH  25  28
ENDBRANCH  21  22
BRANCH  21  30
ATOM     30  C   UNL     1       4.806  -2.734  -2.942  0.00  0.00    +0.239 C 
ATOM     31  O   UNL     1       5.438  -3.394  -2.145  0.00  0.00    -0.273 OA
ATOM     32  N   UNL     1       5.446  -2.065  -3.921  0.00  0.00    -0.309 N 
ATOM     33  H   UNL     1       4.947  -1.494  -4.525  0.00  0.00    +0.149 HD
BRANCH  32  34
ATOM     34  C   UNL     1       6.897  -2.201  -4.073  0.00  0.00    +0.026 C 
ATOM     35  C   UNL     1       7.245  -3.662  -4.364  0.00  0.00    +0.031 C 
ATOM     36  C   UNL     1       7.372  -1.323  -5.233  0.00  0.00    +0.031 C 
ATOM     37  C   UNL     1       7.589  -1.759  -2.782  0.00  0.00    +0.031 C 
ENDBRANCH  32  34
ENDBRANCH  21  30
ENDBRANCH   1  21
TORSDOF 10
