REMARK  Name = ZINC20214692
REMARK  14 active torsions:
REMARK  status: ('A' for Active; 'I' for Inactive)
REMARK    1  A    between atoms: C_1  and  C_2
REMARK    2  A    between atoms: C_2  and  O_3
REMARK    3  A    between atoms: O_3  and  C_4
REMARK    4  A    between atoms: C_4  and  C_6
REMARK    5  A    between atoms: C_7  and  C_24
REMARK    6  A    between atoms: C_12  and  C_14
REMARK    7  A    between atoms: C_17  and  O_20
REMARK    8  A    between atoms: O_20  and  C_21
REMARK    9  A    between atoms: C_21  and  C_22
REMARK   10  A    between atoms: C_21  and  C_23
REMARK   11  A    between atoms: C_24  and  N_25
REMARK   12  A    between atoms: N_25  and  C_26
REMARK   13  A    between atoms: N_25  and  C_32
REMARK   14  A    between atoms: C_26  and  C_27
REMARK                            x       y       z     vdW  Elec       q    Type
REMARK                         _______ _______ _______ _____ _____    ______ ____
ROOT
ATOM      1  C   UNL     1       2.246   4.706   1.324  0.00  0.00    +0.076 C 
ATOM      2  C   UNL     1       2.700   5.877   1.821  0.00  0.00    +0.008 C 
ATOM      3  N   UNL     1       2.818   6.981   1.027  0.00  0.00    -0.274 N 
ATOM      4  C   UNL     1       2.503   6.997  -0.275  0.00  0.00    +0.304 C 
ATOM      5  O   UNL     1       2.642   8.029  -0.901  0.00  0.00    -0.252 OA
ATOM      6  N   UNL     1       2.037   5.905  -0.913  0.00  0.00    -0.288 N 
ATOM      7  C   UNL     1       1.873   4.660  -0.143  0.00  0.00    +0.143 C 
ATOM      8  H   UNL     1       3.190   7.926   1.450  0.00  0.00    +0.156 HD
ATOM      9  H   UNL     1       1.781   5.928  -1.982  0.00  0.00    +0.151 HD
ENDROOT
BRANCH   7  10
ATOM     10  C   UNL     1       0.429   4.240  -0.243  0.00  0.00    -0.022 A 
ATOM     11  C   UNL     1       0.111   2.928  -0.545  0.00  0.00    +0.009 A 
ATOM     12  C   UNL     1      -1.211   2.540  -0.636  0.00  0.00    +0.046 A 
ATOM     13  C   UNL     1      -2.221   3.469  -0.429  0.00  0.00    +0.121 A 
ATOM     14  C   UNL     1      -1.900   4.783  -0.121  0.00  0.00    +0.046 A 
ATOM     15  C   UNL     1      -0.576   5.166  -0.031  0.00  0.00    +0.009 A 
BRANCH  13  16
ATOM     16  O   UNL     1      -3.523   3.091  -0.523  0.00  0.00    -0.489 OA
BRANCH  16  17
ATOM     17  C   UNL     1      -3.780   1.736  -0.899  0.00  0.00    +0.167 C 
ATOM     18  C   UNL     1      -5.170   1.325  -0.408  0.00  0.00    +0.051 C 
ATOM     19  C   UNL     1      -3.719   1.609  -2.422  0.00  0.00    +0.051 C 
ENDBRANCH  16  17
ENDBRANCH  13  16
ENDBRANCH   7  10
BRANCH   1  20
ATOM     20  C   UNL     1       2.124   3.561   2.146  0.00  0.00    +0.339 C 
ATOM     21  O   UNL     1       2.314   3.650   3.345  0.00  0.00    -0.245 OA
BRANCH  20  22
ATOM     22  O   UNL     1       1.797   2.371   1.601  0.00  0.00    -0.462 OA
BRANCH  22  24
ATOM     23  C   UNL     1       1.315   0.005   1.696  0.00  0.00    +0.048 C 
ATOM     24  C   UNL     1       1.690   1.257   2.490  0.00  0.00    +0.229 C 
ENDBRANCH  22  24
ENDBRANCH  20  22
ENDBRANCH   1  20
BRANCH   2  25
ATOM     25  C   UNL     1       3.083   5.966   3.276  0.00  0.00    -0.025 C 
BRANCH  25  26
ATOM     26  N   UNL     1       4.316   5.200   3.506  0.00  0.00    +0.390 N 
ATOM     27  H   UNL     1       4.262   4.283   2.901  0.00  0.00    -0.080 HD
BRANCH  26  28
ATOM     28  C   UNL     1       4.434   4.804   4.915  0.00  0.00    -0.067 C 
ATOM     29  C   UNL     1       4.664   6.047   5.777  0.00  0.00    -0.015 C 
ATOM     30  C   UNL     1       4.788   5.635   7.245  0.00  0.00    -0.002 C 
ATOM     31  C   UNL     1       5.969   4.676   7.408  0.00  0.00    -0.000 C 
ATOM     32  C   UNL     1       5.739   3.432   6.546  0.00  0.00    -0.002 C 
ATOM     33  C   UNL     1       5.615   3.845   5.078  0.00  0.00    -0.015 C 
ENDBRANCH  26  28
BRANCH  26  34
ATOM     34  C   UNL     1       5.496   5.959   3.071  0.00  0.00    -0.002 C 
BRANCH  34  35
ATOM     35  C   UNL     1       5.658   5.825   1.579  0.00  0.00    +0.089 A 
ATOM     36  C   UNL     1       5.274   6.731   0.661  0.00  0.00    +0.042 A 
ATOM     37  C   UNL     1       5.615   6.201  -0.604  0.00  0.00    +0.041 A 
ATOM     38  C   UNL     1       6.187   5.004  -0.385  0.00  0.00    +0.195 A 
ATOM     39  O   UNL     1       6.215   4.784   0.940  0.00  0.00    -0.470 OA
ENDBRANCH  34  35
ENDBRANCH  26  34
ENDBRANCH  25  26
ENDBRANCH   2  25
TORSDOF 11
