REMARK  Name = ZINC16495957
REMARK  7 active torsions:
REMARK  status: ('A' for Active; 'I' for Inactive)
REMARK    1  A    between atoms: C_1  and  C_2
REMARK    2  A    between atoms: C_2  and  C_3
REMARK    3  A    between atoms: C_3  and  C_5
REMARK    4  A    between atoms: C_3  and  N_6
REMARK    5  A    between atoms: C_7  and  C_9
REMARK    6  A    between atoms: N_16  and  S_19
REMARK    7  A    between atoms: S_19  and  C_22
REMARK                            x       y       z     vdW  Elec       q    Type
REMARK                         _______ _______ _______ _____ _____    ______ ____
ROOT
ATOM      1  C   UNL     1      -3.242   8.040   5.630  0.00  0.00    +0.028 C 
ATOM      2  C   UNL     1      -4.770   8.206   5.881  0.00  0.00    +0.061 C 
ATOM      3  S   UNL     1      -5.336   8.225   4.120  0.00  0.00    -0.174 S 
ATOM      4  C   UNL     1      -4.016   7.136   3.445  0.00  0.00    -0.016 C 
ATOM      5  C   UNL     1      -3.471   7.734   2.156  0.00  0.00    +0.015 C 
ATOM      6  C   UNL     1      -2.358   6.835   1.607  0.00  0.00    +0.109 C 
ATOM      7  N   UNL     1      -2.873   5.464   1.492  0.00  0.00    -0.177 NA
ATOM      8  C   UNL     1      -3.473   4.830   2.674  0.00  0.00    +0.109 C 
ATOM      9  C   UNL     1      -4.575   5.739   3.219  0.00  0.00    +0.015 C 
ATOM     10  N   UNL     1      -2.958   7.108   4.502  0.00  0.00    +0.397 N 
ATOM     11  H   UNL     1      -2.891   6.154   4.874  0.00  0.00    -0.083 HD
ATOM     12  H   UNL     1      -2.062   7.373   4.076  0.00  0.00    -0.083 HD
ENDROOT
BRANCH   1  14
ATOM     13  N   UNL     1      -2.688   8.143   8.039  0.00  0.00    -0.314 N 
ATOM     14  C   UNL     1      -2.594   7.479   6.870  0.00  0.00    +0.200 C 
ATOM     15  O   UNL     1      -1.988   6.430   6.816  0.00  0.00    -0.278 OA
ATOM     16  H   UNL     1      -3.173   8.982   8.082  0.00  0.00    +0.149 HD
BRANCH  13  17
ATOM     17  C   UNL     1      -2.059   7.598   9.244  0.00  0.00    +0.070 C 
ATOM     18  C   UNL     1      -0.590   8.024   9.289  0.00  0.00    +0.028 C 
BRANCH  17  20
ATOM     19  C   UNL     1      -4.218   7.601  10.502  0.00  0.00    +0.005 C 
ATOM     20  C   UNL     1      -2.782   8.130  10.483  0.00  0.00    +0.018 C 
ENDBRANCH  17  20
ENDBRANCH  13  17
ENDBRANCH   1  14
BRANCH   7  21
ATOM     21  S   UNL     1      -2.785   4.649   0.053  0.00  0.00    +0.062 S 
ATOM     22  O   UNL     1      -2.712   5.635  -0.968  0.00  0.00    -0.153 OA
ATOM     23  O   UNL     1      -3.804   3.659   0.084  0.00  0.00    -0.153 OA
BRANCH  21  24
ATOM     24  C   UNL     1      -1.247   3.789   0.034  0.00  0.00    +0.125 A 
ATOM     25  C   UNL     1      -1.229   2.407   0.021  0.00  0.00    +0.050 A 
ATOM     26  C   UNL     1      -0.021   1.732   0.012  0.00  0.00    +0.043 A 
ATOM     27  C   UNL     1       1.167   2.440   0.004  0.00  0.00    +0.021 A 
ATOM     28  C   UNL     1       1.149   3.821   0.012  0.00  0.00    +0.023 A 
ATOM     29  C   UNL     1      -0.059   4.497   0.027  0.00  0.00    +0.067 A 
ATOM     30 CL   UNL     1      -0.083   6.233   0.036  0.00  0.00    -0.082 Cl
ATOM     31 CL   UNL     1       0.002  -0.004   0.002  0.00  0.00    -0.083 Cl
ENDBRANCH  21  24
ENDBRANCH   7  21
TORSDOF 5
