REMARK  Name = ZINC39653853
REMARK  8 active torsions:
REMARK  status: ('A' for Active; 'I' for Inactive)
REMARK    1  A    between atoms: C_1  and  C_2
REMARK    2  A    between atoms: C_2  and  O_3
REMARK    3  A    between atoms: O_3  and  C_4
REMARK    4  A    between atoms: C_7  and  C_10
REMARK    5  A    between atoms: C_10  and  C_11
REMARK    6  A    between atoms: C_11  and  N_12
REMARK    7  A    between atoms: C_13  and  C_15
REMARK    8  A    between atoms: C_26  and  C_28
REMARK                            x       y       z     vdW  Elec       q    Type
REMARK                         _______ _______ _______ _____ _____    ______ ____
ROOT
ATOM      1  C   UNL     1      -1.017 -10.661  -3.268  0.00  0.00    +0.100 C 
ATOM      2  C   UNL     1       0.186 -10.763  -4.232  0.00  0.00    +0.121 C 
ATOM      3  N   UNL     1      -0.215 -11.788  -5.224  0.00  0.00    -0.296 N 
ATOM      4  C   UNL     1      -1.652 -11.519  -5.472  0.00  0.00    +0.115 C 
ATOM      5  C   UNL     1      -2.221 -11.157  -4.086  0.00  0.00    -0.004 C 
ATOM      6  C   UNL     1      -2.834 -12.390  -3.429  0.00  0.00    -0.010 C 
ATOM      7  C   UNL     1      -4.063 -12.832  -4.228  0.00  0.00    -0.082 C 
ATOM      8  N   UNL     1      -5.041 -11.738  -4.269  0.00  0.00    +0.379 N 
ATOM      9  C   UNL     1      -4.476 -10.587  -4.985  0.00  0.00    -0.082 C 
ATOM     10  C   UNL     1      -3.264 -10.051  -4.217  0.00  0.00    -0.010 C 
ATOM     11  C   UNL     1       0.553 -12.748  -5.776  0.00  0.00    +0.248 C 
ATOM     12  O   UNL     1       0.101 -13.460  -6.652  0.00  0.00    -0.270 OA
ATOM     13  H   UNL     1      -5.875 -12.051  -4.744  0.00  0.00    -0.086 HD
ATOM     14  H   UNL     1      -5.277 -11.463  -3.327  0.00  0.00    -0.086 HD
ENDROOT
BRANCH  11  15
ATOM     15  C   UNL     1       1.945 -12.937  -5.317  0.00  0.00    +0.057 A 
ATOM     16  C   UNL     1       2.715 -11.833  -4.943  0.00  0.00    +0.014 A 
ATOM     17  C   UNL     1       4.013 -12.015  -4.515  0.00  0.00    +0.002 A 
ATOM     18  C   UNL     1       4.555 -13.287  -4.455  0.00  0.00    +0.021 A 
ATOM     19  C   UNL     1       3.799 -14.386  -4.824  0.00  0.00    +0.060 A 
ATOM     20  C   UNL     1       2.494 -14.219  -5.249  0.00  0.00    +0.071 A 
ATOM     21 CL   UNL     1       1.543 -15.598  -5.705  0.00  0.00    -0.081 Cl
ATOM     22 CL   UNL     1       4.488 -15.978  -4.747  0.00  0.00    -0.082 Cl
ENDBRANCH  11  15
BRANCH   1  24
ATOM     23  N   UNL     1      -1.772  -8.960  -1.638  0.00  0.00    -0.315 N 
ATOM     24  C   UNL     1      -1.227  -9.231  -2.841  0.00  0.00    +0.218 C 
ATOM     25  O   UNL     1      -0.906  -8.324  -3.579  0.00  0.00    -0.275 OA
ATOM     26  H   UNL     1      -2.029  -9.685  -1.048  0.00  0.00    +0.149 HD
BRANCH  23  27
ATOM     27  C   UNL     1      -1.976  -7.570  -1.223  0.00  0.00    +0.109 C 
BRANCH  27  28
ATOM     28  C   UNL     1      -2.605  -7.541   0.172  0.00  0.00    +0.054 C 
BRANCH  28  32
ATOM     29  C   UNL     1      -3.200  -3.487   1.384  0.00  0.00    +0.121 A 
ATOM     30  C   UNL     1      -4.198  -4.159   0.694  0.00  0.00    +0.046 A 
ATOM     31  C   UNL     1      -4.003  -5.470   0.303  0.00  0.00    +0.007 A 
ATOM     32  C   UNL     1      -2.814  -6.112   0.599  0.00  0.00    -0.046 A 
ATOM     33  C   UNL     1      -1.818  -5.444   1.287  0.00  0.00    +0.007 A 
ATOM     34  C   UNL     1      -2.006  -4.131   1.675  0.00  0.00    +0.046 A 
BRANCH  29  35
ATOM     35  O   UNL     1      -3.389  -2.197   1.769  0.00  0.00    -0.492 OA
BRANCH  35  37
ATOM     36  C   UNL     1      -4.670  -0.156   1.947  0.00  0.00    +0.048 C 
ATOM     37  C   UNL     1      -4.642  -1.598   1.436  0.00  0.00    +0.225 C 
ENDBRANCH  35  37
ENDBRANCH  29  35
ENDBRANCH  28  32
ENDBRANCH  27  28
ENDBRANCH  23  27
ENDBRANCH   1  24
TORSDOF 7
