REMARK  Name = ZINC44787076
REMARK  8 active torsions:
REMARK  status: ('A' for Active; 'I' for Inactive)
REMARK    1  A    between atoms: C_1  and  C_2
REMARK    2  A    between atoms: C_2  and  O_3
REMARK    3  A    between atoms: O_3  and  C_4
REMARK    4  A    between atoms: C_4  and  C_6
REMARK    5  A    between atoms: C_10  and  N_11
REMARK    6  A    between atoms: C_12  and  C_14
REMARK    7  A    between atoms: N_19  and  C_21
REMARK    8  A    between atoms: C_21  and  C_22
REMARK                            x       y       z     vdW  Elec       q    Type
REMARK                         _______ _______ _______ _____ _____    ______ ____
ROOT
ATOM      1  N   UNL     1      -3.033  -2.524   2.498  0.00  0.00    -0.279 N 
ATOM      2  C   UNL     1      -3.808  -2.867   3.546  0.00  0.00    +0.219 C 
ATOM      3  O   UNL     1      -4.910  -3.337   3.357  0.00  0.00    -0.275 OA
ATOM      4  H   UNL     1      -2.152  -2.147   2.650  0.00  0.00    +0.155 HD
ENDROOT
BRANCH   1   9
ATOM      5  C   UNL     1      -2.842  -2.416   0.016  0.00  0.00    +0.091 A 
ATOM      6  C   UNL     1      -3.548  -2.714  -1.219  0.00  0.00    -0.021 A 
ATOM      7  C   UNL     1      -4.777  -3.242  -1.039  0.00  0.00    -0.004 A 
ATOM      8  S   UNL     1      -4.974  -3.335   0.716  0.00  0.00    -0.077 S 
ATOM      9  C   UNL     1      -3.495  -2.708   1.205  0.00  0.00    +0.086 A 
ATOM     10  C   UNL     1      -5.745  -3.651  -2.106  0.00  0.00    +0.043 C 
ATOM     11  C   UNL     1      -5.287  -3.033  -3.435  0.00  0.00    +0.005 C 
ATOM     12  C   UNL     1      -3.790  -3.300  -3.616  0.00  0.00    +0.005 C 
ATOM     13  C   UNL     1      -2.988  -2.468  -2.612  0.00  0.00    +0.037 C 
BRANCH   5  14
ATOM     14  C   UNL     1      -1.497  -1.838   0.006  0.00  0.00    +0.342 C 
ATOM     15  O   UNL     1      -0.523  -2.566  -0.007  0.00  0.00    -0.245 OA
BRANCH  14  16
ATOM     16  O   UNL     1      -1.339  -0.499   0.012  0.00  0.00    -0.461 OA
BRANCH  16  18
ATOM     17  C   UNL     1      -0.019   1.526   0.010  0.00  0.00    +0.048 C 
ATOM     18  C   UNL     1       0.002  -0.004   0.002  0.00  0.00    +0.229 C 
ENDBRANCH  16  18
ENDBRANCH  14  16
ENDBRANCH   5  14
ENDBRANCH   1   9
BRANCH   2  19
ATOM     19  C   UNL     1      -3.306  -2.666   4.953  0.00  0.00    +0.059 C 
ATOM     20  C   UNL     1      -2.026  -3.481   5.160  0.00  0.00    +0.009 C 
ATOM     21  C   UNL     1      -1.568  -3.332   6.614  0.00  0.00    -0.018 C 
ATOM     22  C   UNL     1      -2.696  -3.777   7.546  0.00  0.00    -0.078 C 
ATOM     23  N   UNL     1      -3.882  -2.944   7.318  0.00  0.00    +0.383 N 
ATOM     24  C   UNL     1      -4.370  -3.135   5.947  0.00  0.00    -0.066 C 
ATOM     25  H   UNL     1      -3.642  -1.974   7.455  0.00  0.00    -0.081 HD
BRANCH  23  26
ATOM     26  C   UNL     1      -4.936  -3.323   8.269  0.00  0.00    -0.043 C 
BRANCH  26  27
ATOM     27  C   UNL     1      -4.487  -3.003   9.671  0.00  0.00    -0.062 A 
ATOM     28  C   UNL     1      -3.796  -3.947  10.408  0.00  0.00    +0.003 A 
ATOM     29  C   UNL     1      -3.383  -3.655  11.694  0.00  0.00    +0.021 A 
ATOM     30  C   UNL     1      -3.662  -2.417  12.245  0.00  0.00    +0.059 A 
ATOM     31  C   UNL     1      -4.353  -1.471  11.507  0.00  0.00    +0.059 A 
ATOM     32  C   UNL     1      -4.761  -1.764  10.218  0.00  0.00    +0.023 A 
ATOM     33 CL   UNL     1      -4.704   0.083  12.198  0.00  0.00    -0.082 Cl
ATOM     34 CL   UNL     1      -3.144  -2.049  13.861  0.00  0.00    -0.082 Cl
ENDBRANCH  26  27
ENDBRANCH  23  26
ENDBRANCH   2  19
TORSDOF 7
