REMARK  Name = ZINC39686235
REMARK  8 active torsions:
REMARK  status: ('A' for Active; 'I' for Inactive)
REMARK    1  A    between atoms: C_1  and  C_2
REMARK    2  A    between atoms: C_2  and  C_3
REMARK    3  A    between atoms: C_2  and  C_4
REMARK    4  A    between atoms: C_4  and  C_5
REMARK    5  A    between atoms: C_10  and  N_13
REMARK    6  A    between atoms: C_14  and  C_16
REMARK    7  A    between atoms: C_27  and  C_29
REMARK    8  A    between atoms: C_29  and  C_35
REMARK                            x       y       z     vdW  Elec       q    Type
REMARK                         _______ _______ _______ _____ _____    ______ ____
ROOT
ATOM      1  C   UNL     1       8.165  -4.871  -4.753  0.00  0.00    +0.100 C 
ATOM      2  C   UNL     1       7.162  -5.658  -5.625  0.00  0.00    +0.121 C 
ATOM      3  N   UNL     1       7.539  -5.328  -7.019  0.00  0.00    -0.300 N 
ATOM      4  C   UNL     1       9.021  -5.306  -7.005  0.00  0.00    +0.115 C 
ATOM      5  C   UNL     1       9.386  -4.645  -5.661  0.00  0.00    -0.004 C 
ATOM      6  C   UNL     1       9.629  -3.152  -5.857  0.00  0.00    -0.010 C 
ATOM      7  C   UNL     1      10.880  -2.953  -6.717  0.00  0.00    -0.082 C 
ATOM      8  N   UNL     1      12.034  -3.574  -6.056  0.00  0.00    +0.379 N 
ATOM      9  C   UNL     1      11.832  -5.024  -5.955  0.00  0.00    -0.082 C 
ATOM     10  C   UNL     1      10.621  -5.311  -5.063  0.00  0.00    -0.010 C 
ATOM     11  C   UNL     1       6.719  -5.100  -8.065  0.00  0.00    +0.222 C 
ATOM     12  O   UNL     1       5.518  -5.066  -7.898  0.00  0.00    -0.275 OA
ATOM     13  H   UNL     1      12.868  -3.389  -6.594  0.00  0.00    -0.086 HD
ATOM     14  H   UNL     1      12.140  -3.185  -5.132  0.00  0.00    -0.086 HD
ENDROOT
BRANCH  11  15
ATOM     15  C   UNL     1       7.295  -4.887  -9.441  0.00  0.00    +0.044 C 
ATOM     16  C   UNL     1       8.244  -6.038  -9.780  0.00  0.00    +0.016 C 
ATOM     17  C   UNL     1       7.474  -7.361  -9.748  0.00  0.00    +0.001 C 
ATOM     18  C   UNL     1       6.340  -7.316 -10.774  0.00  0.00    +0.000 C 
ATOM     19  C   UNL     1       5.391  -6.164 -10.435  0.00  0.00    +0.001 C 
ATOM     20  C   UNL     1       6.161  -4.842 -10.467  0.00  0.00    +0.016 C 
ATOM     21  C   UNL     1       8.064  -3.565  -9.473  0.00  0.00    +0.021 C 
ENDBRANCH  11  15
BRANCH   1  23
ATOM     22  N   UNL     1       7.943  -2.987  -3.165  0.00  0.00    -0.312 N 
ATOM     23  C   UNL     1       7.573  -3.551  -4.332  0.00  0.00    +0.218 C 
ATOM     24  O   UNL     1       6.763  -2.995  -5.044  0.00  0.00    -0.275 OA
ATOM     25  H   UNL     1       8.591  -3.431  -2.596  0.00  0.00    +0.149 HD
BRANCH  22  31
ATOM     26  C   UNL     1       7.984   1.885  -0.854  0.00  0.00    +0.216 C 
ATOM     27  O   UNL     1       8.526   2.785  -1.460  0.00  0.00    -0.276 OA
ATOM     28  N   UNL     1       7.457   0.842  -1.526  0.00  0.00    -0.301 N 
ATOM     29  C   UNL     1       6.792  -0.253  -0.806  0.00  0.00    +0.109 C 
ATOM     30  C   UNL     1       7.426  -1.581  -1.232  0.00  0.00    +0.041 C 
ATOM     31  C   UNL     1       7.367  -1.704  -2.756  0.00  0.00    +0.076 C 
ATOM     32  C   UNL     1       8.162  -0.562  -3.393  0.00  0.00    +0.041 C 
ATOM     33  C   UNL     1       7.532   0.780  -2.992  0.00  0.00    +0.109 C 
BRANCH  26  34
ATOM     34  C   UNL     1       7.899   1.933   0.650  0.00  0.00    +0.099 C 
BRANCH  34  36
ATOM     35  C   UNL     1       7.780   4.429   0.668  0.00  0.00    +0.008 C 
ATOM     36  C   UNL     1       8.568   3.212   1.157  0.00  0.00    -0.008 C 
ATOM     37  C   UNL     1       8.593   3.202   2.687  0.00  0.00    +0.008 C 
ENDBRANCH  34  36
ENDBRANCH  26  34
ENDBRANCH  22  31
ENDBRANCH   1  23
TORSDOF 5
