REMARK  Name = ZINC31383543
REMARK  15 active torsions:
REMARK  status: ('A' for Active; 'I' for Inactive)
REMARK    1  A    between atoms: C_1  and  C_2
REMARK    2  A    between atoms: C_2  and  N_3
REMARK    3  A    between atoms: N_3  and  C_4
REMARK    4  A    between atoms: N_3  and  C_6
REMARK    5  A    between atoms: C_4  and  C_5
REMARK    6  A    between atoms: C_6  and  C_8
REMARK    7  A    between atoms: C_6  and  C_33
REMARK    8  A    between atoms: C_8  and  N_9
REMARK    9  A    between atoms: C_10  and  C_12
REMARK   10  A    between atoms: C_12  and  C_14
REMARK   11  A    between atoms: C_12  and  N_25
REMARK   12  A    between atoms: C_14  and  C_15
REMARK   13  A    between atoms: C_26  and  C_28
REMARK   14  A    between atoms: C_33  and  C_34
REMARK   15  A    between atoms: C_33  and  C_35
REMARK                            x       y       z     vdW  Elec       q    Type
REMARK                         _______ _______ _______ _____ _____    ______ ____
ROOT
ATOM      1  C   UNL     1       1.515   0.472   7.347  0.00  0.00    +0.163 C 
ENDROOT
BRANCH   1   3
ATOM      2  N   UNL     1       0.766   0.773   5.008  0.00  0.00    -0.315 N 
ATOM      3  C   UNL     1       0.581   1.049   6.314  0.00  0.00    +0.234 C 
ATOM      4  O   UNL     1      -0.338   1.762   6.659  0.00  0.00    -0.274 OA
ATOM      5  H   UNL     1       1.600   0.127   4.696  0.00  0.00    +0.149 HD
BRANCH   2   6
ATOM      6  C   UNL     1      -0.142   1.334   4.005  0.00  0.00    +0.089 C 
BRANCH   6   7
ATOM      7  C   UNL     1       0.287   0.869   2.612  0.00  0.00    -0.049 C 
BRANCH   7   8
ATOM      8  C   UNL     1      -0.732   1.351   1.577  0.00  0.00    -0.029 C 
ATOM      9  C   UNL     1      -0.449   2.813   1.226  0.00  0.00    +0.005 C 
ATOM     10  C   UNL     1      -2.143   1.229   2.156  0.00  0.00    +0.005 C 
ENDBRANCH   7   8
BRANCH   7  11
ATOM     11  N   UNL     1       0.356  -0.598   2.585  0.00  0.00    +0.382 N 
ATOM     12  H   UNL     1       1.018  -0.921   3.402  0.00  0.00    -0.081 HD
BRANCH  11  14
ATOM     13  C   UNL     1      -0.808  -2.670   3.176  0.00  0.00    -0.017 C 
ATOM     14  C   UNL     1      -0.968  -1.192   2.815  0.00  0.00    -0.082 C 
ENDBRANCH  11  14
BRANCH  11  15
ATOM     15  C   UNL     1       0.935  -1.075   1.322  0.00  0.00    -0.082 C 
ATOM     16  C   UNL     1       2.449  -0.859   1.341  0.00  0.00    -0.017 C 
ENDBRANCH  11  15
ENDBRANCH   7  11
ENDBRANCH   6   7
ENDBRANCH   2   6
ENDBRANCH   1   3
BRANCH   1  17
ATOM     17  N   UNL     1       1.426   1.258   8.580  0.00  0.00    -0.299 N 
ATOM     18  C   UNL     1       0.249   1.363   9.228  0.00  0.00    +0.251 C 
ATOM     19  O   UNL     1      -0.739   0.805   8.790  0.00  0.00    -0.270 OA
ATOM     20  H   UNL     1       2.320   1.763   8.976  0.00  0.00    +0.150 HD
BRANCH  18  21
ATOM     21  C   UNL     1       0.160   2.150  10.462  0.00  0.00    +0.074 A 
ATOM     22  C   UNL     1      -0.940   2.382  11.273  0.00  0.00    +0.021 A 
ATOM     23  C   UNL     1      -0.744   3.164  12.383  0.00  0.00    +0.008 A 
ATOM     24  C   UNL     1       0.494   3.665  12.632  0.00  0.00    +0.046 A 
ATOM     25  S   UNL     1       1.441   3.051  11.316  0.00  0.00    -0.092 S 
ENDBRANCH  18  21
ENDBRANCH   1  17
BRANCH   1  26
ATOM     26  C   UNL     1       1.123  -0.978   7.637  0.00  0.00    +0.069 C 
BRANCH  26  27
ATOM     27  C   UNL     1       2.129  -1.593   8.575  0.00  0.00    -0.020 A 
ATOM     28  C   UNL     1       3.195  -2.331   8.230  0.00  0.00    +0.087 A 
ATOM     29  N   UNL     1       3.879  -2.715   9.351  0.00  0.00    -0.360 N 
ATOM     30  H   UNL     1       4.790  -3.325   9.258  0.00  0.00    +0.165 HD
ATOM     31  C   UNL     1       3.249  -2.228  10.474  0.00  0.00    +0.047 A 
ATOM     32  C   UNL     1       2.124  -1.504  10.037  0.00  0.00    +0.003 A 
ATOM     33  C   UNL     1       1.287  -0.889  10.969  0.00  0.00    +0.010 A 
ATOM     34  C   UNL     1       1.564  -0.994  12.303  0.00  0.00    +0.001 A 
ATOM     35  C   UNL     1       2.671  -1.708  12.739  0.00  0.00    +0.002 A 
ATOM     36  C   UNL     1       3.511  -2.322  11.837  0.00  0.00    +0.026 A 
ENDBRANCH  26  27
ENDBRANCH   1  26
TORSDOF 11
