REMARK  Name = ZINC64417467
REMARK  7 active torsions:
REMARK  status: ('A' for Active; 'I' for Inactive)
REMARK    1  A    between atoms: C_1  and  C_2
REMARK    2  A    between atoms: C_2  and  N_3
REMARK    3  A    between atoms: C_10  and  N_14
REMARK    4  A    between atoms: C_15  and  C_17
REMARK    5  A    between atoms: N_19  and  C_20
REMARK    6  A    between atoms: C_20  and  C_21
REMARK    7  A    between atoms: C_21  and  C_22
REMARK                            x       y       z     vdW  Elec       q    Type
REMARK                         _______ _______ _______ _____ _____    ______ ____
ROOT
ATOM      1  N   UNL     1      -4.502  -0.378  -1.123  0.00  0.00    -0.292 N 
ATOM      2  C   UNL     1      -5.085  -0.597  -2.318  0.00  0.00    +0.300 C 
ATOM      3  O   UNL     1      -4.731  -1.534  -3.003  0.00  0.00    -0.265 OA
ATOM      4  H   UNL     1      -4.785   0.371  -0.576  0.00  0.00    +0.150 HD
ENDROOT
BRANCH   1  12
ATOM      5  N   UNL     1      -1.372  -0.511   0.012  0.00  0.00    -0.270 N 
ATOM      6  C   UNL     1      -2.093  -0.781   1.177  0.00  0.00    +0.042 A 
ATOM      7  C   UNL     1      -1.737  -0.656   2.518  0.00  0.00    +0.025 A 
ATOM      8  C   UNL     1      -2.637  -0.993   3.508  0.00  0.00    +0.017 A 
ATOM      9  C   UNL     1      -3.898  -1.456   3.179  0.00  0.00    +0.018 A 
ATOM     10  C   UNL     1      -4.259  -1.583   1.848  0.00  0.00    +0.023 A 
ATOM     11  C   UNL     1      -3.362  -1.248   0.858  0.00  0.00    +0.004 A 
ATOM     12  C   UNL     1      -3.441  -1.270  -0.651  0.00  0.00    +0.192 C 
ATOM     13  C   UNL     1      -2.086  -0.764  -1.098  0.00  0.00    +0.245 C 
ATOM     14  O   UNL     1      -1.714  -0.616  -2.243  0.00  0.00    -0.273 OA
ATOM     15 BR   UNL     1      -5.125  -1.917   4.542  0.00  0.00    -0.050 Br
BRANCH   5  17
ATOM     16  C   UNL     1      -0.019   1.526   0.010  0.00  0.00    +0.025 C 
ATOM     17  C   UNL     1       0.002  -0.004   0.002  0.00  0.00    +0.110 C 
ENDBRANCH   5  17
ENDBRANCH   1  12
BRANCH   2  18
ATOM     18  C   UNL     1      -6.168   0.314  -2.800  0.00  0.00    +0.299 C 
ATOM     19  O   UNL     1      -6.522   1.251  -2.115  0.00  0.00    -0.265 OA
ATOM     20  N   UNL     1      -6.752   0.094  -3.995  0.00  0.00    -0.307 N 
ATOM     21  H   UNL     1      -6.468  -0.655  -4.542  0.00  0.00    +0.149 HD
BRANCH  20  22
ATOM     22  C   UNL     1      -7.813   0.987  -4.467  0.00  0.00    +0.109 C 
BRANCH  22  23
ATOM     23  C   UNL     1      -8.300   0.518  -5.840  0.00  0.00    +0.052 C 
BRANCH  23  24
ATOM     24  C   UNL     1      -9.392   1.437  -6.325  0.00  0.00    -0.040 C 
ATOM     25  C   UNL     1      -9.252   2.503  -7.145  0.00  0.00    +0.002 A 
ATOM     26  C   UNL     1      -8.087   3.104  -7.804  0.00  0.00    +0.048 A 
ATOM     27  C   UNL     1      -8.265   4.197  -8.585  0.00  0.00    +0.124 A 
ATOM     28  C   UNL     1      -9.534   4.766  -8.778  0.00  0.00    +0.040 A 
ATOM     29  C   UNL     1     -10.650   4.269  -8.205  0.00  0.00    +0.029 A 
ATOM     30  C   UNL     1     -10.579   3.123  -7.366  0.00  0.00    +0.043 A 
ATOM     31  N   UNL     1     -11.502   2.465  -6.708  0.00  0.00    -0.380 N 
ATOM     32  C   UNL     1     -10.866   1.348  -6.000  0.00  0.00    +0.144 C 
ATOM     33  F   UNL     1      -7.194   4.753  -9.193  0.00  0.00    -0.205 F 
ATOM     34  H   UNL     1     -12.448   2.678  -6.694  0.00  0.00    +0.160 HD
ENDBRANCH  23  24
ENDBRANCH  22  23
ENDBRANCH  20  22
ENDBRANCH   2  18
TORSDOF 6
