REMARK  Name = ZINC16534116
REMARK  10 active torsions:
REMARK  status: ('A' for Active; 'I' for Inactive)
REMARK    1  A    between atoms: C_1  and  C_2
REMARK    2  A    between atoms: C_7  and  N_8
REMARK    3  A    between atoms: C_9  and  O_34
REMARK    4  A    between atoms: C_10  and  C_21
REMARK    5  A    between atoms: C_11  and  C_13
REMARK    6  A    between atoms: C_13  and  C_14
REMARK    7  A    between atoms: N_25  and  C_29
REMARK    8  A    between atoms: C_29  and  C_30
REMARK    9  A    between atoms: C_31  and  C_32
REMARK   10  A    between atoms: C_31  and  C_33
REMARK                            x       y       z     vdW  Elec       q    Type
REMARK                         _______ _______ _______ _____ _____    ______ ____
ROOT
ATOM      1  N   UNL     1      -2.259   6.654  -2.558  0.00  0.00    -0.200 N 
ATOM      2  C   UNL     1      -0.933   6.902  -2.642  0.00  0.00    +0.223 A 
ATOM      3  C   UNL     1      -0.344   6.372  -1.497  0.00  0.00    +0.062 A 
ATOM      4  C   UNL     1      -1.382   5.787  -0.731  0.00  0.00    +0.079 A 
ATOM      5  N   UNL     1      -2.506   5.963  -1.367  0.00  0.00    -0.167 NA
ENDROOT
BRANCH   3   6
ATOM      6  C   UNL     1       1.078   6.409  -1.152  0.00  0.00    +0.043 C 
ATOM      7  C   UNL     1       2.010   6.018  -2.063  0.00  0.00    +0.099 C 
ATOM      8  C   UNL     1       3.419   5.994  -1.889  0.00  0.00    +0.269 C 
ATOM      9  O   UNL     1       4.031   6.321  -0.888  0.00  0.00    -0.268 OA
ATOM     10  N   UNL     1       3.952   5.539  -3.041  0.00  0.00    -0.217 N 
ATOM     11  C   UNL     1       2.971   5.279  -3.920  0.00  0.00    +0.313 C 
ATOM     12  O   UNL     1       3.138   4.856  -5.048  0.00  0.00    -0.252 OA
ATOM     13  N   UNL     1       1.774   5.550  -3.366  0.00  0.00    -0.265 N 
ATOM     14  H   UNL     1       0.908   5.443  -3.790  0.00  0.00    +0.157 HD
BRANCH  10  15
ATOM     15  C   UNL     1       5.383   5.356  -3.294  0.00  0.00    +0.145 C 
BRANCH  15  16
ATOM     16  C   UNL     1       5.790   3.962  -2.894  0.00  0.00    -0.009 C 
ATOM     17  C   UNL     1       6.772   3.784  -2.046  0.00  0.00    -0.078 C 
ATOM     18  C   UNL     1       7.579   4.964  -1.568  0.00  0.00    +0.038 C 
ATOM     19  C   UNL     1       7.095   2.399  -1.547  0.00  0.00    +0.038 C 
ENDBRANCH  15  16
ENDBRANCH  10  15
ENDBRANCH   3   6
BRANCH   1  26
ATOM     20  C   UNL     1      -4.183   4.713  -3.352  0.00  0.00    +0.046 C 
ATOM     21  C   UNL     1      -4.180   6.109  -3.920  0.00  0.00    -0.025 A 
ATOM     22  C   UNL     1      -5.129   6.478  -4.853  0.00  0.00    +0.005 A 
ATOM     23  C   UNL     1      -5.127   7.759  -5.374  0.00  0.00    +0.000 A 
ATOM     24  C   UNL     1      -4.175   8.675  -4.962  0.00  0.00    +0.002 A 
ATOM     25  C   UNL     1      -3.227   8.313  -4.026  0.00  0.00    +0.028 A 
ATOM     26  C   UNL     1      -3.223   7.026  -3.505  0.00  0.00    +0.072 A 
ENDBRANCH   1  26
BRANCH   2  27
ATOM     27  O   UNL     1      -0.299   7.550  -3.647  0.00  0.00    -0.492 OA
ATOM     28  H   UNL     1      -0.231   8.506  -3.519  0.00  0.00    +0.294 HD
ENDBRANCH   2  27
BRANCH   4  29
ATOM     29  C   UNL     1      -1.216   5.087   0.593  0.00  0.00    +0.093 C 
BRANCH  29  30
ATOM     30  C   UNL     1      -0.972   3.618   0.357  0.00  0.00    -0.041 A 
ATOM     31  C   UNL     1       0.320   3.148   0.209  0.00  0.00    +0.007 A 
ATOM     32  C   UNL     1       0.545   1.802  -0.007  0.00  0.00    +0.038 A 
ATOM     33  C   UNL     1      -0.523   0.924  -0.075  0.00  0.00    +0.123 A 
ATOM     34  C   UNL     1      -1.816   1.397   0.069  0.00  0.00    +0.038 A 
ATOM     35  C   UNL     1      -2.039   2.742   0.290  0.00  0.00    +0.007 A 
ATOM     36  F   UNL     1      -0.304  -0.392  -0.286  0.00  0.00    -0.205 F 
ENDBRANCH  29  30
ENDBRANCH   4  29
TORSDOF 7
