REMARK  Name = ZINC20254634
REMARK  7 active torsions:
REMARK  status: ('A' for Active; 'I' for Inactive)
REMARK    1  A    between atoms: C_1  and  C_2
REMARK    2  A    between atoms: C_3  and  N_20
REMARK    3  A    between atoms: C_7  and  N_8
REMARK    4  A    between atoms: N_8  and  S_9
REMARK    5  A    between atoms: S_9  and  C_12
REMARK    6  A    between atoms: C_13  and  C_19
REMARK    7  A    between atoms: C_17  and  C_18
REMARK                            x       y       z     vdW  Elec       q    Type
REMARK                         _______ _______ _______ _____ _____    ______ ____
ROOT
ATOM      1  N   UNL     1       3.619  -0.660  -0.036  0.00  0.00    -0.216 N 
ATOM      2  H   UNL     1       4.466  -0.274   0.549  0.00  0.00    +0.174 HD
ENDROOT
BRANCH   1   9
ATOM      3  C   UNL     1       3.881   2.164  -0.232  0.00  0.00    +0.047 C 
ATOM      4  C   UNL     1       2.537   1.482  -0.267  0.00  0.00    -0.007 A 
ATOM      5  C   UNL     1       1.379   2.235  -0.397  0.00  0.00    +0.029 A 
ATOM      6  C   UNL     1       0.141   1.603  -0.428  0.00  0.00    +0.023 A 
ATOM      7  C   UNL     1       0.064   0.227  -0.330  0.00  0.00    +0.004 A 
ATOM      8  C   UNL     1       1.215  -0.525  -0.200  0.00  0.00    +0.025 A 
ATOM      9  C   UNL     1       2.456   0.101  -0.168  0.00  0.00    +0.053 A 
BRANCH   5  10
ATOM     10  N   UNL     1       1.456   3.626  -0.497  0.00  0.00    -0.358 N 
ATOM     11  H   UNL     1       0.537   4.222  -0.601  0.00  0.00    +0.142 HD
ATOM     12  H   UNL     1       2.436   4.126  -0.473  0.00  0.00    +0.142 HD
ENDBRANCH   5  10
ENDBRANCH   1   9
BRANCH   1  13
ATOM     13  S   UNL     1       3.724  -2.145  -0.762  0.00  0.00    +0.076 S 
ATOM     14  O   UNL     1       5.045  -2.617  -0.534  0.00  0.00    -0.150 OA
ATOM     15  O   UNL     1       2.574  -2.876  -0.360  0.00  0.00    -0.150 OA
BRANCH  13  16
ATOM     16  C   UNL     1       3.574  -1.887  -2.499  0.00  0.00    +0.151 A 
ATOM     17  C   UNL     1       4.592  -1.657  -3.361  0.00  0.00    +0.060 A 
ATOM     18  N   UNL     1       4.063  -1.514  -4.594  0.00  0.00    -0.280 N 
ATOM     19  H   UNL     1       4.719  -1.317  -5.454  0.00  0.00    +0.189 HD
ATOM     20  N   UNL     1       2.674  -1.661  -4.487  0.00  0.00    -0.177 NA
ATOM     21  C   UNL     1       2.383  -1.891  -3.232  0.00  0.00    +0.087 A 
ATOM     22  C   UNL     1       1.002  -2.116  -2.672  0.00  0.00    +0.069 C 
ATOM     23  C   UNL     1       6.054  -1.575  -3.006  0.00  0.00    +0.067 C 
ENDBRANCH  13  16
ENDBRANCH   1  13
TORSDOF 4
