REMARK  Name = ZINC39403950
REMARK  12 active torsions:
REMARK  status: ('A' for Active; 'I' for Inactive)
REMARK    1  A    between atoms: C_1  and  C_2
REMARK    2  A    between atoms: C_2  and  N_3
REMARK    3  A    between atoms: N_3  and  C_4
REMARK    4  A    between atoms: N_3  and  C_6
REMARK    5  A    between atoms: C_4  and  C_5
REMARK    6  A    between atoms: C_9  and  C_12
REMARK    7  A    between atoms: N_13  and  N_14
REMARK    8  A    between atoms: C_17  and  S_21
REMARK    9  A    between atoms: S_21  and  C_22
REMARK   10  A    between atoms: C_22  and  C_23
REMARK   11  A    between atoms: N_25  and  C_26
REMARK   12  A    between atoms: C_28  and  C_37
REMARK                            x       y       z     vdW  Elec       q    Type
REMARK                         _______ _______ _______ _____ _____    ______ ____
ROOT
ATOM      1  N   UNL     1      -2.367  -2.091  -8.166  0.00  0.00    -0.206 N 
ATOM      2  C   UNL     1      -1.723  -2.541  -9.298  0.00  0.00    +0.231 C 
ATOM      3  N   UNL     1      -2.313  -2.784 -10.435  0.00  0.00    -0.324 N 
ATOM      4  C   UNL     1      -1.238  -3.237 -11.336  0.00  0.00    +0.283 C 
ATOM      5  N   UNL     1      -0.032  -3.185 -10.494  0.00  0.00    -0.148 NA
ATOM      6  N   UNL     1      -0.383  -2.784  -9.379  0.00  0.00    -0.116 NA
ATOM      7  H   UNL     1      -3.325  -1.939  -8.181  0.00  0.00    +0.177 HD
ATOM      8  H   UNL     1      -3.255  -2.689 -10.642  0.00  0.00    +0.165 HD
ENDROOT
BRANCH   1  10
ATOM      9  C   UNL     1      -2.245  -1.431  -5.926  0.00  0.00    +0.138 C 
ATOM     10  N   UNL     1      -1.638  -1.854  -6.993  0.00  0.00    -0.188 NA
BRANCH   9  14
ATOM     11  C   UNL     1      -0.038  -0.713  -2.371  0.00  0.00    +0.030 A 
ATOM     12  C   UNL     1      -1.411  -0.493  -2.391  0.00  0.00    +0.024 A 
ATOM     13  C   UNL     1      -2.131  -0.725  -3.543  0.00  0.00    +0.011 A 
ATOM     14  C   UNL     1      -1.479  -1.181  -4.692  0.00  0.00    -0.005 A 
ATOM     15  C   UNL     1      -0.099  -1.400  -4.668  0.00  0.00    +0.011 A 
ATOM     16  C   UNL     1       0.615  -1.161  -3.515  0.00  0.00    +0.024 A 
BRANCH  11  17
ATOM     17  N   UNL     1       0.688  -0.476  -1.203  0.00  0.00    -0.330 N 
BRANCH  17  19
ATOM     18  C   UNL     1      -0.019   1.526   0.010  0.00  0.00    +0.024 C 
ATOM     19  C   UNL     1       0.002  -0.004   0.002  0.00  0.00    +0.102 C 
ENDBRANCH  17  19
BRANCH  17  20
ATOM     20  C   UNL     1       2.135  -0.701  -1.182  0.00  0.00    +0.102 C 
ATOM     21  C   UNL     1       2.421  -2.145  -0.763  0.00  0.00    +0.024 C 
ENDBRANCH  17  20
ENDBRANCH  11  17
ENDBRANCH   9  14
ENDBRANCH   1  10
BRANCH   4  22
ATOM     22  S   UNL     1      -1.079  -2.115 -12.753  0.00  0.00    -0.102 S 
BRANCH  22  23
ATOM     23  C   UNL     1      -0.691  -0.510 -12.000  0.00  0.00    +0.168 C 
BRANCH  23  24
ATOM     24  C   UNL     1      -0.531   0.527 -13.082  0.00  0.00    +0.224 C 
ATOM     25  O   UNL     1      -0.666   0.214 -14.246  0.00  0.00    -0.275 OA
ATOM     26  N   UNL     1      -0.239   1.801 -12.756  0.00  0.00    -0.301 N 
ATOM     27  H   UNL     1      -0.132   2.051 -11.825  0.00  0.00    +0.150 HD
BRANCH  26  28
ATOM     28  C   UNL     1      -0.084   2.809 -13.808  0.00  0.00    +0.156 C 
ATOM     29  C   UNL     1      -0.727   4.157 -13.402  0.00  0.00    +0.149 C 
ATOM     30  C   UNL     1       0.272   5.074 -12.744  0.00  0.00    -0.041 C 
ATOM     31  C   UNL     1       1.561   4.818 -12.934  0.00  0.00    -0.012 C 
ATOM     32  S   UNL     1       1.665   3.366 -13.958  0.00  0.00    -0.106 S 
ATOM     33  C   UNL     1       2.727   5.597 -12.393  0.00  0.00    +0.042 C 
ATOM     34  C   UNL     1       2.223   6.952 -11.882  0.00  0.00    +0.005 C 
ATOM     35  C   UNL     1       0.986   6.711 -11.009  0.00  0.00    +0.005 C 
ATOM     36  C   UNL     1      -0.177   6.258 -11.889  0.00  0.00    +0.033 C 
BRANCH  29  37
ATOM     37  C   UNL     1      -1.261   4.816 -14.606  0.00  0.00    +0.073 C 
ATOM     38  N   UNL     1      -1.673   5.325 -15.534  0.00  0.00    -0.196 NA
ENDBRANCH  29  37
ENDBRANCH  26  28
ENDBRANCH  23  24
ENDBRANCH  22  23
ENDBRANCH   4  22
TORSDOF 10
