REMARK  Name = ZINC03134748
REMARK  8 active torsions:
REMARK  status: ('A' for Active; 'I' for Inactive)
REMARK    1  A    between atoms: C_6  and  S_7
REMARK    2  A    between atoms: S_7  and  N_10
REMARK    3  A    between atoms: N_10  and  C_11
REMARK    4  A    between atoms: C_14  and  O_18
REMARK    5  A    between atoms: O_18  and  C_19
REMARK    6  A    between atoms: C_20  and  N_32
REMARK    7  A    between atoms: C_22  and  C_28
REMARK    8  A    between atoms: C_24  and  N_25
REMARK                            x       y       z     vdW  Elec       q    Type
REMARK                         _______ _______ _______ _____ _____    ______ ____
ROOT
ATOM      1  C   UNL     1      -4.127   0.939  -3.575  0.00  0.00    +0.050 A 
ATOM      2  C   UNL     1      -2.881   0.329  -3.523  0.00  0.00    +0.028 A 
ATOM      3  C   UNL     1      -2.304   0.039  -2.302  0.00  0.00    +0.049 A 
ATOM      4  C   UNL     1      -2.970   0.357  -1.127  0.00  0.00    +0.147 A 
ATOM      5  C   UNL     1      -4.218   0.962  -1.178  0.00  0.00    +0.085 A 
ATOM      6  C   UNL     1      -4.793   1.257  -2.399  0.00  0.00    +0.048 A 
ATOM      7 CL   UNL     1      -5.054   1.353   0.293  0.00  0.00    -0.080 Cl
ENDROOT
BRANCH   1   8
ATOM      8  N   UNL     1      -4.712   1.233  -4.812  0.00  0.00    -0.216 N 
ATOM      9  H   UNL     1      -4.185   1.655  -5.509  0.00  0.00    +0.174 HD
BRANCH   8  10
ATOM     10  S   UNL     1      -6.302   0.860  -5.086  0.00  0.00    +0.072 S 
ATOM     11  O   UNL     1      -7.042   1.427  -4.013  0.00  0.00    -0.150 OA
ATOM     12  O   UNL     1      -6.565   1.179  -6.445  0.00  0.00    -0.150 OA
BRANCH  10  18
ATOM     13  C   UNL     1      -6.194  -1.700  -6.026  0.00  0.00    +0.030 A 
ATOM     14  C   UNL     1      -6.312  -3.072  -5.909  0.00  0.00    +0.022 A 
ATOM     15  C   UNL     1      -6.708  -3.633  -4.708  0.00  0.00    +0.041 A 
ATOM     16  C   UNL     1      -6.980  -2.819  -3.622  0.00  0.00    +0.022 A 
ATOM     17  C   UNL     1      -6.855  -1.448  -3.738  0.00  0.00    +0.030 A 
ATOM     18  C   UNL     1      -6.460  -0.888  -4.939  0.00  0.00    +0.109 A 
ATOM     19 CL   UNL     1      -6.864  -5.356  -4.563  0.00  0.00    -0.084 Cl
ENDBRANCH  10  18
ENDBRANCH   8  10
ENDBRANCH   1   8
BRANCH   4  20
ATOM     20  O   UNL     1      -2.401   0.071   0.075  0.00  0.00    -0.450 OA
BRANCH  20  21
ATOM     21  C   UNL     1      -1.181  -0.527   0.078  0.00  0.00    +0.189 A 
ATOM     22  C   UNL     1      -1.085  -1.911   0.066  0.00  0.00    +0.171 A 
ATOM     23  C   UNL     1       0.157  -2.516   0.074  0.00  0.00    +0.049 A 
ATOM     24  C   UNL     1       1.304  -1.743   0.088  0.00  0.00    +0.059 A 
ATOM     25  C   UNL     1       1.211  -0.363   0.094  0.00  0.00    +0.049 A 
ATOM     26  C   UNL     1      -0.029   0.246   0.086  0.00  0.00    +0.171 A 
BRANCH  24  27
ATOM     27  C   UNL     1       2.658  -2.405   0.096  0.00  0.00    +0.418 C 
ATOM     28  F   UNL     1       3.065  -2.617   1.417  0.00  0.00    -0.166 F 
ATOM     29  F   UNL     1       2.580  -3.633  -0.570  0.00  0.00    -0.166 F 
ATOM     30  F   UNL     1       3.584  -1.581  -0.552  0.00  0.00    -0.166 F 
ENDBRANCH  24  27
BRANCH  26  31
ATOM     31  N   UNL     1      -0.128   1.723   0.093  0.00  0.00    +0.060 N 
ATOM     32  O   UNL     1       0.884   2.402   0.105  0.00  0.00    -0.126 OA
ATOM     33  O   UNL     1      -1.221   2.261   0.081  0.00  0.00    -0.126 OA
ENDBRANCH  26  31
BRANCH  22  34
ATOM     34  N   UNL     1      -2.312  -2.739   0.051  0.00  0.00    +0.060 N 
ATOM     35  O   UNL     1      -2.226  -3.954   0.046  0.00  0.00    -0.126 OA
ATOM     36  O   UNL     1      -3.406  -2.205   0.043  0.00  0.00    -0.126 OA
ENDBRANCH  22  34
ENDBRANCH  20  21
ENDBRANCH   4  20
TORSDOF 8
