REMARK  Name = ZINC59151825
REMARK  10 active torsions:
REMARK  status: ('A' for Active; 'I' for Inactive)
REMARK    1  A    between atoms: C_1  and  C_2
REMARK    2  A    between atoms: C_2  and  C_3
REMARK    3  A    between atoms: C_2  and  C_4
REMARK    4  A    between atoms: C_4  and  C_5
REMARK    5  A    between atoms: C_5  and  C_7
REMARK    6  A    between atoms: C_5  and  N_34
REMARK    7  A    between atoms: N_9  and  N_10
REMARK    8  A    between atoms: N_18  and  C_21
REMARK    9  A    between atoms: C_21  and  C_22
REMARK   10  A    between atoms: C_21  and  C_28
REMARK                            x       y       z     vdW  Elec       q    Type
REMARK                         _______ _______ _______ _____ _____    ______ ____
ROOT
ATOM      1  N   UNL     1      -7.502  -7.262   0.727  0.00  0.00    -0.175 NA
ATOM      2  C   UNL     1      -7.170  -6.478   1.723  0.00  0.00    +0.153 C 
ATOM      3  C   UNL     1      -5.880  -5.781   1.932  0.00  0.00    +0.028 A 
ATOM      4  C   UNL     1      -4.696  -5.731   1.204  0.00  0.00    +0.012 A 
ATOM      5  C   UNL     1      -3.639  -4.972   1.666  0.00  0.00    +0.001 A 
ATOM      6  C   UNL     1      -3.759  -4.265   2.851  0.00  0.00    +0.002 A 
ATOM      7  C   UNL     1      -4.929  -4.309   3.581  0.00  0.00    +0.024 A 
ATOM      8  C   UNL     1      -6.005  -5.067   3.130  0.00  0.00    +0.047 A 
ATOM      9  N   UNL     1      -7.272  -5.279   3.662  0.00  0.00    -0.254 N 
ATOM     10  C   UNL     1      -8.003  -6.092   2.880  0.00  0.00    +0.272 C 
ATOM     11  O   UNL     1      -9.147  -6.449   3.090  0.00  0.00    -0.268 OA
ENDROOT
BRANCH   1  14
ATOM     12  C   UNL     1      -6.872  -8.441  -1.243  0.00  0.00    +0.218 C 
ATOM     13  O   UNL     1      -8.041  -8.681  -1.457  0.00  0.00    -0.276 OA
ATOM     14  N   UNL     1      -6.519  -7.727  -0.156  0.00  0.00    -0.208 N 
ATOM     15  H   UNL     1      -5.583  -7.535   0.015  0.00  0.00    +0.177 HD
BRANCH  12  16
ATOM     16  C   UNL     1      -5.814  -8.942  -2.192  0.00  0.00    +0.015 C 
BRANCH  16  17
ATOM     17  N   UNL     1      -6.356 -10.052  -2.988  0.00  0.00    +0.386 N 
ATOM     18  H   UNL     1      -6.638 -10.800  -2.373  0.00  0.00    -0.089 HD
ATOM     19  H   UNL     1      -7.155  -9.730  -3.514  0.00  0.00    -0.089 HD
ATOM     20  H   UNL     1      -5.648 -10.387  -3.624  0.00  0.00    -0.089 HD
ENDBRANCH  16  17
BRANCH  16  21
ATOM     21  C   UNL     1      -5.388  -7.807  -3.125  0.00  0.00    -0.004 C 
BRANCH  21  23
ATOM     22  C   UNL     1      -3.883  -7.188  -5.021  0.00  0.00    +0.007 C 
ATOM     23  C   UNL     1      -4.228  -8.278  -4.005  0.00  0.00    -0.018 C 
ATOM     24  C   UNL     1      -3.006  -8.563  -3.128  0.00  0.00    +0.007 C 
ENDBRANCH  21  23
ENDBRANCH  16  21
ENDBRANCH  12  16
ENDBRANCH   1  14
BRANCH   9  25
ATOM     25  C   UNL     1      -7.752  -4.687   4.913  0.00  0.00    +0.142 C 
BRANCH  25  26
ATOM     26  C   UNL     1      -9.083  -4.022   4.676  0.00  0.00    -0.022 A 
ATOM     27  C   UNL     1      -9.480  -3.710   3.389  0.00  0.00    +0.006 A 
ATOM     28  C   UNL     1     -10.702  -3.100   3.172  0.00  0.00    +0.000 A 
ATOM     29  C   UNL     1     -11.526  -2.803   4.241  0.00  0.00    +0.000 A 
ATOM     30  C   UNL     1     -11.129  -3.116   5.527  0.00  0.00    +0.000 A 
ATOM     31  C   UNL     1      -9.910  -3.729   5.745  0.00  0.00    +0.006 A 
ENDBRANCH  25  26
BRANCH  25  32
ATOM     32  C   UNL     1      -7.907  -5.766   5.953  0.00  0.00    -0.022 A 
ATOM     33  C   UNL     1      -8.154  -7.070   5.564  0.00  0.00    +0.006 A 
ATOM     34  C   UNL     1      -8.296  -8.060   6.518  0.00  0.00    +0.000 A 
ATOM     35  C   UNL     1      -8.193  -7.747   7.861  0.00  0.00    +0.000 A 
ATOM     36  C   UNL     1      -7.946  -6.444   8.249  0.00  0.00    +0.000 A 
ATOM     37  C   UNL     1      -7.798  -5.454   7.295  0.00  0.00    +0.006 A 
ENDBRANCH  25  32
ENDBRANCH   9  25
TORSDOF 8
