REMARK  Name = ZINC61611107
REMARK  6 active torsions:
REMARK  status: ('A' for Active; 'I' for Inactive)
REMARK    1  A    between atoms: C_1  and  C_2
REMARK    2  A    between atoms: C_5  and  N_9
REMARK    3  A    between atoms: C_10  and  C_12
REMARK    4  A    between atoms: C_12  and  C_14
REMARK    5  A    between atoms: C_12  and  C_16
REMARK    6  A    between atoms: C_14  and  N_15
REMARK                            x       y       z     vdW  Elec       q    Type
REMARK                         _______ _______ _______ _____ _____    ______ ____
ROOT
ATOM      1  N   UNL     1       1.476  -4.337   0.124  0.00  0.00    -0.283 N 
ATOM      2  C   UNL     1       0.783  -5.047   1.037  0.00  0.00    +0.223 C 
ATOM      3  O   UNL     1       0.224  -4.479   1.950  0.00  0.00    -0.275 OA
ATOM      4  H   UNL     1       1.875  -4.785  -0.637  0.00  0.00    +0.155 HD
ENDROOT
BRANCH   1   9
ATOM      5  C   UNL     1       2.054   1.275   0.740  0.00  0.00    +0.044 C 
ATOM      6  C   UNL     1       1.900  -0.215   0.576  0.00  0.00    -0.048 A 
ATOM      7  C   UNL     1       2.017  -1.045   1.676  0.00  0.00    +0.020 A 
ATOM      8  C   UNL     1       1.877  -2.413   1.530  0.00  0.00    +0.040 A 
ATOM      9  C   UNL     1       1.618  -2.953   0.276  0.00  0.00    +0.062 A 
ATOM     10  C   UNL     1       1.502  -2.115  -0.826  0.00  0.00    +0.040 A 
ATOM     11  C   UNL     1       1.638  -0.749  -0.672  0.00  0.00    +0.020 A 
ATOM     12 BR   UNL     1       1.150  -2.845  -2.535  0.00  0.00    -0.048 Br
ATOM     13 BR   UNL     1       2.037  -3.547   3.034  0.00  0.00    -0.048 Br
ENDBRANCH   1   9
BRANCH   2  14
ATOM     14  C   UNL     1       0.705  -6.548   0.922  0.00  0.00    +0.088 C 
BRANCH  14  15
ATOM     15  C   UNL     1       1.109  -7.173   2.232  0.00  0.00    -0.037 A 
ATOM     16  C   UNL     1       0.393  -6.893   3.382  0.00  0.00    +0.004 A 
ATOM     17  C   UNL     1       0.764  -7.467   4.583  0.00  0.00    +0.000 A 
ATOM     18  C   UNL     1       1.849  -8.322   4.636  0.00  0.00    +0.000 A 
ATOM     19  C   UNL     1       2.564  -8.603   3.486  0.00  0.00    +0.000 A 
ATOM     20  C   UNL     1       2.191  -8.032   2.284  0.00  0.00    +0.004 A 
ENDBRANCH  14  15
BRANCH  14  21
ATOM     21  C   UNL     1      -0.729  -6.959   0.581  0.00  0.00    -0.069 C 
BRANCH  21  22
ATOM     22  N   UNL     1      -1.078  -6.457  -0.755  0.00  0.00    +0.379 N 
ATOM     23  H   UNL     1      -1.083  -5.448  -0.744  0.00  0.00    -0.090 HD
ATOM     24  H   UNL     1      -0.397  -6.782  -1.425  0.00  0.00    -0.090 HD
ATOM     25  H   UNL     1      -1.992  -6.795  -1.013  0.00  0.00    -0.090 HD
ENDBRANCH  21  22
ENDBRANCH  14  21
ENDBRANCH   2  14
TORSDOF 5
