REMARK  Name = ZINC39631876
REMARK  14 active torsions:
REMARK  status: ('A' for Active; 'I' for Inactive)
REMARK    1  A    between atoms: C_1  and  C_2
REMARK    2  A    between atoms: C_4  and  C_7
REMARK    3  A    between atoms: C_8  and  C_13
REMARK    4  A    between atoms: C_9  and  C_12
REMARK    5  A    between atoms: C_17  and  C_26
REMARK    6  A    between atoms: N_28  and  C_29
REMARK    7  A    between atoms: C_29  and  C_31
REMARK    8  A    between atoms: C_29  and  C_32
REMARK    9  A    between atoms: C_32  and  C_33
REMARK   10  A    between atoms: C_33  and  C_34
REMARK   11  A    between atoms: C_34  and  C_35
REMARK   12  A    between atoms: C_35  and  C_36
REMARK   13  A    between atoms: C_35  and  C_37
REMARK   14  A    between atoms: C_35  and  O_38
REMARK                            x       y       z     vdW  Elec       q    Type
REMARK                         _______ _______ _______ _____ _____    ______ ____
ROOT
ATOM      1  C   UNL     1       0.099  -3.804   0.742  0.00  0.00    +0.252 C 
ATOM      2  O   UNL     1       0.766  -4.069   1.724  0.00  0.00    -0.270 OA
ATOM      3  N   UNL     1       0.561  -4.106  -0.488  0.00  0.00    -0.296 N 
ATOM      4  C   UNL     1      -0.050  -3.769  -1.795  0.00  0.00    +0.121 C 
ATOM      5  C   UNL     1       1.146  -3.398  -2.701  0.00  0.00    +0.100 C 
ATOM      6  C   UNL     1       2.353  -4.113  -2.069  0.00  0.00    -0.004 C 
ATOM      7  C   UNL     1       1.798  -4.845  -0.838  0.00  0.00    +0.115 C 
ATOM      8  C   UNL     1       2.951  -5.112  -3.054  0.00  0.00    -0.010 C 
ATOM      9  C   UNL     1       4.184  -5.767  -2.425  0.00  0.00    -0.082 C 
ATOM     10  N   UNL     1       5.170  -4.734  -2.085  0.00  0.00    +0.379 N 
ATOM     11  C   UNL     1       4.619  -3.831  -1.067  0.00  0.00    -0.082 C 
ATOM     12  C   UNL     1       3.404  -3.094  -1.640  0.00  0.00    -0.010 C 
ATOM     13  H   UNL     1       6.005  -5.173  -1.727  0.00  0.00    -0.086 HD
ATOM     14  H   UNL     1       5.399  -4.205  -2.913  0.00  0.00    -0.086 HD
ENDROOT
BRANCH   1  16
ATOM     15  C   UNL     1      -1.444  -1.795   1.051  0.00  0.00    +0.201 A 
ATOM     16  C   UNL     1      -1.213  -3.154   0.897  0.00  0.00    +0.108 A 
ATOM     17  C   UNL     1      -2.474  -3.800   0.916  0.00  0.00    +0.093 A 
ATOM     18  N   UNL     1      -3.392  -2.893   1.070  0.00  0.00    -0.082 NA
ATOM     19  O   UNL     1      -2.771  -1.625   1.163  0.00  0.00    -0.352 OA
ATOM     20  C   UNL     1      -2.710  -5.282   0.780  0.00  0.00    +0.070 C 
BRANCH  15  24
ATOM     21  C   UNL     1       0.730   2.787   1.224  0.00  0.00    +0.089 C 
ATOM     22  C   UNL     1       0.524   1.295   1.168  0.00  0.00    +0.135 A 
ATOM     23  C   UNL     1      -0.664   0.664   1.144  0.00  0.00    +0.079 A 
ATOM     24  C   UNL     1      -0.419  -0.730   1.091  0.00  0.00    +0.152 A 
ATOM     25  N   UNL     1       0.882  -0.908   1.085  0.00  0.00    -0.075 NA
ATOM     26  O   UNL     1       1.494   0.368   1.128  0.00  0.00    -0.359 OA
ENDBRANCH  15  24
ENDBRANCH   1  16
BRANCH   5  27
ATOM     27  C   UNL     1       1.359  -1.907  -2.704  0.00  0.00    +0.218 C 
ATOM     28  O   UNL     1       0.990  -1.239  -1.762  0.00  0.00    -0.275 OA
ATOM     29  N   UNL     1       1.961  -1.314  -3.755  0.00  0.00    -0.312 N 
ATOM     30  H   UNL     1       2.192  -1.837  -4.539  0.00  0.00    +0.149 HD
BRANCH  29  31
ATOM     31  C   UNL     1       2.266   0.118  -3.713  0.00  0.00    +0.070 C 
ATOM     32  C   UNL     1       3.638   0.329  -3.070  0.00  0.00    +0.028 C 
BRANCH  31  33
ATOM     33  C   UNL     1       2.278   0.679  -5.136  0.00  0.00    +0.022 C 
BRANCH  33  34
ATOM     34  C   UNL     1       0.871   0.592  -5.731  0.00  0.00    +0.005 C 
BRANCH  34  35
ATOM     35  C   UNL     1       0.907   1.042  -7.193  0.00  0.00    +0.034 C 
BRANCH  35  36
ATOM     36  C   UNL     1      -0.517   1.078  -7.750  0.00  0.00    +0.061 C 
ATOM     37  C   UNL     1      -0.481   1.520  -9.215  0.00  0.00    +0.041 C 
ATOM     38  C   UNL     1      -1.138  -0.317  -7.655  0.00  0.00    +0.041 C 
BRANCH  36  39
ATOM     39  O   UNL     1      -1.302   2.001  -6.993  0.00  0.00    -0.389 OA
ATOM     40  H   UNL     1      -2.219   2.076  -7.292  0.00  0.00    +0.210 HD
ENDBRANCH  36  39
ENDBRANCH  35  36
ENDBRANCH  34  35
ENDBRANCH  33  34
ENDBRANCH  31  33
ENDBRANCH  29  31
ENDBRANCH   5  27
TORSDOF 9
