REMARK  Name = ZINC58202275
REMARK  8 active torsions:
REMARK  status: ('A' for Active; 'I' for Inactive)
REMARK    1  A    between atoms: C_1  and  C_2
REMARK    2  A    between atoms: C_2  and  C_3
REMARK    3  A    between atoms: C_2  and  C_4
REMARK    4  A    between atoms: C_2  and  C_5
REMARK    5  A    between atoms: C_5  and  C_7
REMARK    6  A    between atoms: C_5  and  N_12
REMARK    7  A    between atoms: N_15  and  C_16
REMARK    8  A    between atoms: C_16  and  C_17
REMARK                            x       y       z     vdW  Elec       q    Type
REMARK                         _______ _______ _______ _____ _____    ______ ____
ROOT
ATOM      1  N   UNL     1       0.046  -0.050  -2.479  0.00  0.00    -0.292 N 
ATOM      2  C   UNL     1      -1.023  -0.723  -2.949  0.00  0.00    +0.300 C 
ATOM      3  O   UNL     1      -1.397  -1.736  -2.390  0.00  0.00    -0.253 OA
ATOM      4  N   UNL     1      -1.677  -0.273  -4.038  0.00  0.00    -0.295 N 
ATOM      5  H   UNL     1       0.345   0.758  -2.924  0.00  0.00    +0.151 HD
ATOM      6  H   UNL     1      -1.379   0.535  -4.483  0.00  0.00    +0.151 HD
ENDROOT
BRANCH   1   7
ATOM      7  C   UNL     1       0.757  -0.540  -1.295  0.00  0.00    +0.117 C 
BRANCH   7   8
ATOM      8  C   UNL     1       2.180  -0.044  -1.324  0.00  0.00    +0.011 A 
ATOM      9  C   UNL     1       3.319  -0.699  -0.990  0.00  0.00    +0.013 A 
ATOM     10  C   UNL     1       4.528  -0.038  -1.096  0.00  0.00    +0.008 A 
ATOM     11  C   UNL     1       4.540   1.246  -1.531  0.00  0.00    +0.045 A 
ATOM     12  S   UNL     1       2.804   1.555  -1.813  0.00  0.00    -0.100 S 
ENDBRANCH   7   8
BRANCH   7  14
ATOM     13  C   UNL     1       0.070   1.506  -0.036  0.00  0.00    +0.013 C 
ATOM     14  C   UNL     1       0.063  -0.024  -0.033  0.00  0.00    -0.015 C 
ATOM     15  C   UNL     1       0.805  -0.536   1.203  0.00  0.00    +0.013 C 
ATOM     16  C   UNL     1      -1.382  -0.528  -0.005  0.00  0.00    +0.013 C 
ENDBRANCH   7  14
ENDBRANCH   1   7
BRANCH   4  17
ATOM     17  C   UNL     1      -2.840  -1.004  -4.548  0.00  0.00    +0.142 C 
BRANCH  17  18
ATOM     18  C   UNL     1      -3.384  -0.297  -5.763  0.00  0.00    -0.014 A 
ATOM     19  C   UNL     1      -4.352   0.689  -5.625  0.00  0.00    +0.010 A 
ATOM     20  C   UNL     1      -4.825   1.313  -6.765  0.00  0.00    +0.042 A 
ATOM     21  C   UNL     1      -4.318   0.934  -8.004  0.00  0.00    +0.099 A 
ATOM     22  N   UNL     1      -3.394  -0.011  -8.094  0.00  0.00    -0.349 N 
ATOM     23  C   UNL     1      -2.921  -0.619  -7.023  0.00  0.00    +0.089 A 
ATOM     24  N   UNL     1      -4.784   1.553  -9.158  0.00  0.00    -0.317 N 
ATOM     25  C   UNL     1      -4.172   1.264 -10.462  0.00  0.00    +0.106 C 
ATOM     26  C   UNL     1      -5.272   0.839 -11.440  0.00  0.00    +0.019 C 
ATOM     27  C   UNL     1      -6.358   1.917 -11.480  0.00  0.00    +0.003 C 
ATOM     28  C   UNL     1      -6.980   2.069 -10.090  0.00  0.00    +0.019 C 
ATOM     29  C   UNL     1      -5.903   2.503  -9.098  0.00  0.00    +0.106 C 
ATOM     30  H   UNL     1      -3.055  -0.259  -8.968  0.00  0.00    +0.167 HD
ENDBRANCH  17  18
ENDBRANCH   4  17
TORSDOF 5
