REMARK  Name = ZINC09539752
REMARK  10 active torsions:
REMARK  status: ('A' for Active; 'I' for Inactive)
REMARK    1  A    between atoms: C_1  and  C_2
REMARK    2  A    between atoms: C_3  and  C_20
REMARK    3  A    between atoms: C_4  and  C_10
REMARK    4  A    between atoms: C_13  and  C_16
REMARK    5  A    between atoms: C_16  and  O_18
REMARK    6  A    between atoms: O_18  and  C_19
REMARK    7  A    between atoms: N_22  and  C_23
REMARK    8  A    between atoms: C_24  and  C_31
REMARK    9  A    between atoms: C_31  and  O_33
REMARK   10  A    between atoms: O_33  and  C_34
REMARK                            x       y       z     vdW  Elec       q    Type
REMARK                         _______ _______ _______ _____ _____    ______ ____
ROOT
ATOM      1  C   UNL     1      -3.811  -2.425   5.567  0.00  0.00    +0.061 C 
ATOM      2  C   UNL     1      -2.585  -1.613   5.899  0.00  0.00    +0.017 C 
ATOM      3  C   UNL     1      -1.823  -1.121   4.899  0.00  0.00    +0.056 C 
ATOM      4  C   UNL     1      -0.604  -0.305   5.277  0.00  0.00    +0.139 C 
ATOM      5  N   UNL     1      -0.345  -0.119   6.715  0.00  0.00    -0.315 N 
ATOM      6  C   UNL     1      -1.197  -0.678   7.598  0.00  0.00    +0.135 C 
ATOM      7  S   UNL     1      -0.908  -0.471   9.272  0.00  0.00    -0.019 S 
ATOM      8  N   UNL     1      -2.261  -1.391   7.207  0.00  0.00    -0.300 N 
ATOM      9  H   UNL     1       0.419   0.394   7.019  0.00  0.00    +0.149 HD
ATOM     10  H   UNL     1      -2.836  -1.768   7.892  0.00  0.00    +0.154 HD
ENDROOT
BRANCH   4  11
ATOM     11  C   UNL     1       0.605  -0.968   4.670  0.00  0.00    -0.023 A 
ATOM     12  C   UNL     1       1.107  -2.130   5.229  0.00  0.00    +0.006 A 
ATOM     13  C   UNL     1       2.211  -2.745   4.676  0.00  0.00    +0.015 A 
ATOM     14  C   UNL     1       2.828  -2.186   3.555  0.00  0.00    +0.059 A 
ATOM     15  C   UNL     1       2.320  -1.010   2.999  0.00  0.00    +0.015 A 
ATOM     16  C   UNL     1       1.212  -0.409   3.560  0.00  0.00    +0.006 A 
BRANCH  14  17
ATOM     17  C   UNL     1       4.014  -2.836   2.960  0.00  0.00    +0.339 C 
ATOM     18  O   UNL     1       4.549  -2.348   1.985  0.00  0.00    -0.245 OA
BRANCH  17  19
ATOM     19  O   UNL     1       4.502  -3.970   3.498  0.00  0.00    -0.464 OA
ATOM     20  C   UNL     1       5.669  -4.554   2.862  0.00  0.00    +0.280 C 
ENDBRANCH  17  19
ENDBRANCH  14  17
ENDBRANCH   4  11
BRANCH   3  21
ATOM     21  C   UNL     1      -2.156  -1.355   3.543  0.00  0.00    +0.248 C 
ATOM     22  O   UNL     1      -2.612  -0.453   2.864  0.00  0.00    -0.270 OA
ATOM     23  N   UNL     1      -1.969  -2.576   3.004  0.00  0.00    -0.275 N 
ATOM     24  H   UNL     1      -1.532  -3.272   3.519  0.00  0.00    +0.156 HD
BRANCH  23  25
ATOM     25  C   UNL     1      -2.400  -2.837   1.714  0.00  0.00    +0.087 A 
ATOM     26  C   UNL     1      -2.298  -4.017   0.994  0.00  0.00    +0.091 A 
ATOM     27  C   UNL     1      -2.833  -4.026  -0.367  0.00  0.00    -0.021 A 
ATOM     28  C   UNL     1      -3.386  -2.869  -0.772  0.00  0.00    -0.004 A 
ATOM     29  S   UNL     1      -3.195  -1.769   0.609  0.00  0.00    -0.077 S 
ATOM     30  C   UNL     1      -3.922  -2.960  -2.175  0.00  0.00    +0.043 C 
ATOM     31  C   UNL     1      -4.023  -4.475  -2.456  0.00  0.00    +0.010 C 
ATOM     32  C   UNL     1      -2.953  -5.043  -1.503  0.00  0.00    +0.037 C 
BRANCH  26  33
ATOM     33  C   UNL     1      -1.673  -5.207   1.573  0.00  0.00    +0.342 C 
ATOM     34  O   UNL     1      -2.348  -6.011   2.187  0.00  0.00    -0.245 OA
BRANCH  33  35
ATOM     35  O   UNL     1      -0.348  -5.413   1.424  0.00  0.00    -0.464 OA
ATOM     36  C   UNL     1       0.203  -6.615   2.024  0.00  0.00    +0.280 C 
ENDBRANCH  33  35
ENDBRANCH  26  33
ENDBRANCH  23  25
ENDBRANCH   3  21
TORSDOF 7
