REMARK  Name = ZINC55027384
REMARK  7 active torsions:
REMARK  status: ('A' for Active; 'I' for Inactive)
REMARK    1  A    between atoms: C_1  and  C_2
REMARK    2  A    between atoms: C_2  and  C_4
REMARK    3  A    between atoms: C_2  and  N_14
REMARK    4  A    between atoms: N_6  and  C_7
REMARK    5  A    between atoms: C_7  and  C_8
REMARK    6  A    between atoms: C_17  and  N_20
REMARK    7  A    between atoms: N_23  and  C_24
REMARK                            x       y       z     vdW  Elec       q    Type
REMARK                         _______ _______ _______ _____ _____    ______ ____
ROOT
ATOM      1  N   UNL     1       0.324  -0.924   1.101  0.00  0.00    +0.387 N 
ATOM      2  C   UNL     1      -0.449  -0.551   2.292  0.00  0.00    -0.076 C 
ATOM      3  C   UNL     1      -0.058  -1.456   3.462  0.00  0.00    +0.004 C 
ATOM      4  C   UNL     1      -0.354  -2.913   3.096  0.00  0.00    +0.071 C 
ATOM      5  C   UNL     1       0.399  -3.268   1.810  0.00  0.00    +0.004 C 
ATOM      6  C   UNL     1      -0.009  -2.297   0.701  0.00  0.00    -0.076 C 
ATOM      7  H   UNL     1       1.309  -0.866   1.310  0.00  0.00    -0.081 HD
ENDROOT
BRANCH   4   8
ATOM      8  N   UNL     1       0.088  -3.791   4.182  0.00  0.00    -0.297 N 
ATOM      9  C   UNL     1      -0.483  -5.000   4.345  0.00  0.00    +0.300 C 
ATOM     10  O   UNL     1      -1.365  -5.363   3.592  0.00  0.00    -0.253 OA
ATOM     11  N   UNL     1      -0.076  -5.808   5.345  0.00  0.00    -0.297 N 
ATOM     12  H   UNL     1       0.793  -3.502   4.783  0.00  0.00    +0.151 HD
ATOM     13  H   UNL     1       0.628  -5.519   5.946  0.00  0.00    +0.151 HD
BRANCH  11  14
ATOM     14  C   UNL     1      -0.697  -7.123   5.522  0.00  0.00    +0.074 C 
ATOM     15  C   UNL     1      -0.005  -8.141   4.614  0.00  0.00    +0.022 C 
ATOM     16  C   UNL     1      -0.653  -9.514   4.800  0.00  0.00    +0.002 C 
ATOM     17  C   UNL     1      -0.511  -9.953   6.259  0.00  0.00    +0.000 C 
ATOM     18  C   UNL     1      -1.203  -8.935   7.167  0.00  0.00    +0.002 C 
ATOM     19  C   UNL     1      -0.554  -7.561   6.981  0.00  0.00    +0.022 C 
ENDBRANCH  11  14
ENDBRANCH   4   8
BRANCH   1  21
ATOM     20  C   UNL     1       0.361   1.425   0.412  0.00  0.00    -0.004 C 
ATOM     21  C   UNL     1       0.002  -0.004   0.002  0.00  0.00    +0.016 C 
BRANCH  21  22
ATOM     22  C   UNL     1       0.792  -0.388  -1.223  0.00  0.00    +0.199 C 
ATOM     23  O   UNL     1       1.868  -0.935  -1.103  0.00  0.00    -0.278 OA
ATOM     24  N   UNL     1       0.303  -0.124  -2.450  0.00  0.00    -0.316 N 
ATOM     25  H   UNL     1      -0.558   0.314  -2.546  0.00  0.00    +0.149 HD
BRANCH  24  26
ATOM     26  C   UNL     1       1.071  -0.498  -3.641  0.00  0.00    +0.107 C 
BRANCH  26  27
ATOM     27  C   UNL     1       0.297  -0.089  -4.896  0.00  0.00    +0.006 C 
ATOM     28  C   UNL     1      -1.000  -0.896  -4.981  0.00  0.00    +0.005 C 
ATOM     29  C   UNL     1      -1.774  -0.487  -6.236  0.00  0.00    +0.000 C 
ATOM     30  C   UNL     1      -0.919  -0.763  -7.474  0.00  0.00    +0.000 C 
ATOM     31  C   UNL     1       0.378   0.044  -7.389  0.00  0.00    +0.000 C 
ATOM     32  C   UNL     1       1.151  -0.365  -6.134  0.00  0.00    +0.005 C 
ENDBRANCH  26  27
ENDBRANCH  24  26
ENDBRANCH  21  22
ENDBRANCH   1  21
TORSDOF 6
