REMARK  Name = ZINC39534443
REMARK  11 active torsions:
REMARK  status: ('A' for Active; 'I' for Inactive)
REMARK    1  A    between atoms: C_1  and  C_2
REMARK    2  A    between atoms: C_2  and  C_3
REMARK    3  A    between atoms: C_2  and  S_4
REMARK    4  A    between atoms: S_4  and  C_7
REMARK    5  A    between atoms: C_10  and  C_13
REMARK    6  A    between atoms: C_13  and  C_15
REMARK    7  A    between atoms: C_13  and  N_18
REMARK    8  A    between atoms: C_15  and  N_16
REMARK    9  A    between atoms: N_16  and  O_17
REMARK   10  A    between atoms: C_22  and  C_25
REMARK   11  A    between atoms: C_30  and  O_31
REMARK                            x       y       z     vdW  Elec       q    Type
REMARK                         _______ _______ _______ _____ _____    ______ ____
ROOT
ATOM      1  C   UNL     1      -1.121  -6.634   0.427  0.00  0.00    +0.103 C 
ENDROOT
BRANCH   1   2
ATOM      2  N   UNL     1      -1.954  -7.125   1.532  0.00  0.00    -0.297 NA
ATOM      3  C   UNL     1      -1.272  -6.952   2.823  0.00  0.00    +0.066 C 
ATOM      4  C   UNL     1      -2.195  -7.419   3.951  0.00  0.00    -0.066 C 
ATOM      5  N   UNL     1      -2.541  -8.832   3.746  0.00  0.00    +0.385 N 
ATOM      6  C   UNL     1      -3.243  -8.986   2.465  0.00  0.00    -0.023 C 
ATOM      7  C   UNL     1      -2.329  -8.531   1.325  0.00  0.00    +0.074 C 
ATOM      8  H   UNL     1      -1.698  -9.386   3.737  0.00  0.00    -0.085 HD
ATOM      9  H   UNL     1      -3.139  -9.144   4.497  0.00  0.00    -0.085 HD
BRANCH   6  10
ATOM     10  C   UNL     1      -3.612 -10.433   2.266  0.00  0.00    -0.019 A 
ATOM     11  C   UNL     1      -2.956 -11.419   2.978  0.00  0.00    +0.005 A 
ATOM     12  C   UNL     1      -3.295 -12.747   2.795  0.00  0.00    +0.000 A 
ATOM     13  C   UNL     1      -4.290 -13.092   1.899  0.00  0.00    +0.004 A 
ATOM     14  C   UNL     1      -4.950 -12.110   1.185  0.00  0.00    +0.045 A 
ATOM     15  C   UNL     1      -4.615 -10.776   1.371  0.00  0.00    +0.118 A 
BRANCH  15  16
ATOM     16  O   UNL     1      -5.266  -9.808   0.674  0.00  0.00    -0.507 OA
ATOM     17  H   UNL     1      -4.856  -9.591  -0.174  0.00  0.00    +0.292 HD
ENDBRANCH  15  16
ENDBRANCH   6  10
ENDBRANCH   1   2
BRANCH   1  21
ATOM     18  C   UNL     1      -1.695  -2.425  -0.026  0.00  0.00    +0.088 A 
ATOM     19  C   UNL     1      -1.168  -3.167  -1.067  0.00  0.00    +0.027 A 
ATOM     20  C   UNL     1      -0.982  -4.529  -0.920  0.00  0.00    +0.007 A 
ATOM     21  C   UNL     1      -1.323  -5.149   0.267  0.00  0.00    -0.029 A 
ATOM     22  C   UNL     1      -1.848  -4.407   1.309  0.00  0.00    +0.007 A 
ATOM     23  C   UNL     1      -2.030  -3.045   1.164  0.00  0.00    +0.027 A 
BRANCH  18  24
ATOM     24  S   UNL     1      -1.932  -0.689  -0.213  0.00  0.00    -0.001 S 
ATOM     25  O   UNL     1      -2.979  -0.367   0.692  0.00  0.00    -0.169 OA
ATOM     26  O   UNL     1      -2.096  -0.494  -1.611  0.00  0.00    -0.169 OA
BRANCH  24  28
ATOM     27  C   UNL     1      -0.509   1.580   0.343  0.00  0.00    +0.032 C 
ATOM     28  C   UNL     1      -0.374   0.056   0.344  0.00  0.00    +0.130 C 
ATOM     29  C   UNL     1      -0.055  -0.426   1.760  0.00  0.00    +0.032 C 
ENDBRANCH  24  28
ENDBRANCH  18  24
ENDBRANCH   1  21
BRANCH   1  30
ATOM     30  C   UNL     1       0.351  -6.919   0.732  0.00  0.00    +0.134 C 
BRANCH  30  31
ATOM     31  N   UNL     1       0.549  -8.367   0.882  0.00  0.00    -0.202 NA
ATOM     32  H   UNL     1       0.030  -8.722   1.671  0.00  0.00    +0.154 HD
BRANCH  31  33
ATOM     33  O   UNL     1       1.970  -8.693   0.998  0.00  0.00    -0.315 OA
ATOM     34  H   UNL     1       2.150  -9.637   1.099  0.00  0.00    +0.236 HD
ENDBRANCH  31  33
ENDBRANCH  30  31
ENDBRANCH   1  30
TORSDOF 9
