REMARK  Name = ZINC06147685
REMARK  13 active torsions:
REMARK  status: ('A' for Active; 'I' for Inactive)
REMARK    1  A    between atoms: C_1  and  C_2
REMARK    2  A    between atoms: C_2  and  C_3
REMARK    3  A    between atoms: C_3  and  C_4
REMARK    4  A    between atoms: C_4  and  N_5
REMARK    5  A    between atoms: N_5  and  S_6
REMARK    6  A    between atoms: S_6  and  C_9
REMARK    7  A    between atoms: C_17  and  S_19
REMARK    8  A    between atoms: S_19  and  C_20
REMARK    9  A    between atoms: C_20  and  C_21
REMARK   10  A    between atoms: C_21  and  C_23
REMARK   11  A    between atoms: C_24  and  N_33
REMARK   12  A    between atoms: N_25  and  C_32
REMARK   13  A    between atoms: N_28  and  C_31
REMARK                            x       y       z     vdW  Elec       q    Type
REMARK                         _______ _______ _______ _____ _____    ______ ____
ROOT
ATOM      1  C   UNL     1       0.386  -4.949  -2.554  0.00  0.00    +0.107 A 
ATOM      2  C   UNL     1      -0.135  -5.401  -1.350  0.00  0.00    +0.031 A 
ATOM      3  C   UNL     1      -1.251  -6.207  -1.331  0.00  0.00    +0.032 A 
ATOM      4  C   UNL     1      -1.864  -6.572  -2.532  0.00  0.00    +0.090 A 
ATOM      5  C   UNL     1      -1.332  -6.111  -3.748  0.00  0.00    +0.069 A 
ATOM      6  C   UNL     1      -0.210  -5.297  -3.748  0.00  0.00    +0.056 A 
ATOM      7  N   UNL     1      -2.142  -6.631  -4.745  0.00  0.00    -0.333 N 
ATOM      8  H   UNL     1      -2.038  -6.495  -5.699  0.00  0.00    +0.168 HD
ATOM      9  C   UNL     1      -3.114  -7.370  -4.132  0.00  0.00    +0.168 A 
ATOM     10  N   UNL     1      -2.948  -7.334  -2.833  0.00  0.00    -0.222 NA
ENDROOT
BRANCH   1  11
ATOM     11  S   UNL     1       1.816  -3.919  -2.556  0.00  0.00    +0.058 S 
ATOM     12  O   UNL     1       2.424  -4.072  -3.831  0.00  0.00    -0.153 OA
ATOM     13  O   UNL     1       2.509  -4.183  -1.344  0.00  0.00    -0.153 OA
BRANCH  11  14
ATOM     14  N   UNL     1       1.289  -2.351  -2.468  0.00  0.00    -0.190 NA
ATOM     15  H   UNL     1       1.446  -1.745  -3.209  0.00  0.00    +0.148 HD
BRANCH  14  16
ATOM     16  C   UNL     1       0.588  -1.880  -1.272  0.00  0.00    +0.106 C 
BRANCH  16  17
ATOM     17  C   UNL     1       0.543  -0.351  -1.276  0.00  0.00    +0.017 C 
BRANCH  17  19
ATOM     18  C   UNL     1      -0.234   1.671  -0.030  0.00  0.00    +0.004 C 
ATOM     19  C   UNL     1      -0.190   0.141  -0.026  0.00  0.00    -0.002 C 
ENDBRANCH  17  19
ENDBRANCH  16  17
ENDBRANCH  14  16
ENDBRANCH  11  14
ENDBRANCH   1  11
BRANCH   9  20
ATOM     20  S   UNL     1      -4.399  -8.242  -4.965  0.00  0.00    -0.080 S 
BRANCH  20  21
ATOM     21  C   UNL     1      -5.348  -9.011  -3.624  0.00  0.00    +0.157 C 
BRANCH  21  22
ATOM     22  C   UNL     1      -6.494  -9.798  -4.207  0.00  0.00    +0.182 C 
ATOM     23  O   UNL     1      -6.654  -9.836  -5.410  0.00  0.00    -0.291 OA
BRANCH  22  24
ATOM     24  C   UNL     1      -7.380 -10.491  -3.355  0.00  0.00    +0.120 A 
ATOM     25  C   UNL     1      -8.524 -11.131  -3.863  0.00  0.00    +0.116 A 
ATOM     26  N   UNL     1      -9.351 -11.789  -2.998  0.00  0.00    -0.284 N 
ATOM     27  C   UNL     1      -9.091 -11.835  -1.682  0.00  0.00    +0.333 A 
ATOM     28  O   UNL     1      -9.859 -12.434  -0.954  0.00  0.00    -0.246 OA
ATOM     29  N   UNL     1      -8.015 -11.243  -1.140  0.00  0.00    -0.263 N 
ATOM     30  C   UNL     1      -7.133 -10.572  -1.909  0.00  0.00    +0.269 A 
ATOM     31  O   UNL     1      -6.155 -10.041  -1.415  0.00  0.00    -0.267 OA
ATOM     32  C   UNL     1      -7.792 -11.332   0.305  0.00  0.00    +0.157 C 
ATOM     33  C   UNL     1     -10.546 -12.459  -3.518  0.00  0.00    +0.155 C 
BRANCH  25  34
ATOM     34  N   UNL     1      -8.802 -11.095  -5.194  0.00  0.00    -0.344 N 
ATOM     35  H   UNL     1      -8.171 -10.693  -5.811  0.00  0.00    +0.144 HD
ATOM     36  H   UNL     1      -9.632 -11.470  -5.526  0.00  0.00    +0.144 HD
ENDBRANCH  25  34
ENDBRANCH  22  24
ENDBRANCH  21  22
ENDBRANCH  20  21
ENDBRANCH   9  20
TORSDOF 10
