REMARK  Name = ZINC08790421
REMARK  7 active torsions:
REMARK  status: ('A' for Active; 'I' for Inactive)
REMARK    1  A    between atoms: C_1  and  C_2
REMARK    2  A    between atoms: C_4  and  C_38
REMARK    3  A    between atoms: C_13  and  C_15
REMARK    4  A    between atoms: C_15  and  C_16
REMARK    5  A    between atoms: N_24  and  C_27
REMARK    6  A    between atoms: C_27  and  C_28
REMARK    7  A    between atoms: C_28  and  C_29
REMARK                            x       y       z     vdW  Elec       q    Type
REMARK                         _______ _______ _______ _____ _____    ______ ____
ROOT
ATOM      1  C   UNL     1       7.522  12.043  -1.681  0.00  0.00    +0.044 C 
ATOM      2  C   UNL     1       6.676  11.109  -0.854  0.00  0.00    -0.050 A 
ATOM      3  C   UNL     1       5.744  11.618   0.031  0.00  0.00    +0.008 A 
ATOM      4  C   UNL     1       4.967  10.768   0.789  0.00  0.00    -0.029 A 
ATOM      5  C   UNL     1       5.117   9.388   0.670  0.00  0.00    +0.039 A 
ATOM      6  C   UNL     1       6.059   8.887  -0.223  0.00  0.00    -0.027 A 
ATOM      7  C   UNL     1       6.832   9.739  -0.979  0.00  0.00    +0.008 A 
ATOM      8  C   UNL     1       5.973   7.391  -0.113  0.00  0.00    +0.050 C 
ATOM      9  C   UNL     1       5.622   6.745  -1.459  0.00  0.00    +0.088 C 
ATOM     10  C   UNL     1       6.418   5.410  -1.472  0.00  0.00    +0.073 C 
ATOM     11  C   UNL     1       7.170   5.366  -0.125  0.00  0.00    -0.053 C 
ATOM     12  C   UNL     1       5.332   4.358  -1.468  0.00  0.00    +0.224 C 
ATOM     13  O   UNL     1       5.517   3.160  -1.478  0.00  0.00    -0.275 OA
ATOM     14  N   UNL     1       4.134   4.955  -1.454  0.00  0.00    -0.241 N 
ATOM     15  C   UNL     1       4.180   6.292  -1.453  0.00  0.00    +0.225 C 
ATOM     16  O   UNL     1       3.215   7.026  -1.445  0.00  0.00    -0.275 OA
ATOM     17  C   UNL     1       4.905   7.134   0.915  0.00  0.00    +0.211 C 
ATOM     18  O   UNL     1       4.520   6.052   1.304  0.00  0.00    -0.277 OA
ATOM     19  N   UNL     1       4.460   8.339   1.319  0.00  0.00    -0.286 N 
ATOM     20  C   UNL     1       3.953  11.333   1.750  0.00  0.00    +0.045 C 
ATOM     21  H   UNL     1       3.764   8.465   1.983  0.00  0.00    +0.155 HD
ATOM     22  N   UNL     1       7.237   6.787   0.278  0.00  0.00    +0.394 N 
ATOM     23  H   UNL     1       7.365   6.861   1.294  0.00  0.00    -0.083 HD
ATOM     24  H   UNL     1       8.016   7.254  -0.201  0.00  0.00    -0.083 HD
ENDROOT
BRANCH  11  25
ATOM     25  C   UNL     1       8.562   4.759  -0.312  0.00  0.00    +0.020 C 
BRANCH  25  26
ATOM     26  C   UNL     1       9.230   4.612   1.031  0.00  0.00    -0.049 A 
ATOM     27  C   UNL     1      10.005   5.640   1.533  0.00  0.00    +0.003 A 
ATOM     28  C   UNL     1      10.614   5.507   2.767  0.00  0.00    +0.000 A 
ATOM     29  C   UNL     1      10.457   4.342   3.494  0.00  0.00    +0.000 A 
ATOM     30  C   UNL     1       9.686   3.312   2.989  0.00  0.00    +0.000 A 
ATOM     31  C   UNL     1       9.072   3.446   1.758  0.00  0.00    +0.003 A 
ENDBRANCH  25  26
ENDBRANCH  11  25
BRANCH  14  32
ATOM     32  C   UNL     1       2.876   4.205  -1.446  0.00  0.00    +0.121 C 
BRANCH  32  33
ATOM     33  C   UNL     1       2.451   3.937  -0.001  0.00  0.00    +0.054 C 
BRANCH  33  34
ATOM     34  C   UNL     1       1.156   3.165   0.008  0.00  0.00    -0.046 A 
ATOM     35  C   UNL     1       1.175   1.783   0.000  0.00  0.00    +0.004 A 
ATOM     36  C   UNL     1      -0.013   1.076   0.008  0.00  0.00    +0.000 A 
ATOM     37  C   UNL     1      -1.219   1.751   0.017  0.00  0.00    +0.000 A 
ATOM     38  C   UNL     1      -1.238   3.133   0.030  0.00  0.00    +0.000 A 
ATOM     39  C   UNL     1      -0.050   3.840   0.023  0.00  0.00    +0.004 A 
ENDBRANCH  33  34
ENDBRANCH  32  33
ENDBRANCH  14  32
TORSDOF 5
