REMARK  Name = ZINC23642148
REMARK  8 active torsions:
REMARK  status: ('A' for Active; 'I' for Inactive)
REMARK    1  A    between atoms: C_4  and  C_7
REMARK    2  A    between atoms: C_15  and  C_18
REMARK    3  A    between atoms: C_18  and  O_19
REMARK    4  A    between atoms: O_19  and  C_20
REMARK    5  A    between atoms: C_20  and  C_22
REMARK    6  A    between atoms: C_22  and  C_23
REMARK    7  A    between atoms: C_23  and  C_25
REMARK    8  A    between atoms: C_23  and  N_32
REMARK                            x       y       z     vdW  Elec       q    Type
REMARK                         _______ _______ _______ _____ _____    ______ ____
ROOT
ATOM      1  O   UNL     1      -3.866   3.668  -2.248  0.00  0.00    -0.460 OA
ENDROOT
BRANCH   1   2
ATOM      2  C   UNL     1      -3.232   3.143  -1.188  0.00  0.00    +0.310 C 
ATOM      3  O   UNL     1      -3.801   3.058  -0.125  0.00  0.00    -0.251 OA
BRANCH   2   4
ATOM      4  C   UNL     1      -1.811   2.659  -1.323  0.00  0.00    +0.147 C 
BRANCH   4   5
ATOM      5  C   UNL     1      -1.329   2.111   0.022  0.00  0.00    +0.115 C 
BRANCH   5   6
ATOM      6  C   UNL     1       0.046   1.517  -0.142  0.00  0.00    -0.027 A 
ATOM      7  C   UNL     1       0.459   1.063  -1.381  0.00  0.00    +0.007 A 
ATOM      8  C   UNL     1       1.718   0.512  -1.530  0.00  0.00    +0.020 A 
ATOM      9  C   UNL     1       2.564   0.415  -0.440  0.00  0.00    +0.041 A 
ATOM     10  C   UNL     1       2.150   0.869   0.799  0.00  0.00    +0.020 A 
ATOM     11  C   UNL     1       0.891   1.420   0.948  0.00  0.00    +0.007 A 
ATOM     12 CL   UNL     1       4.146  -0.277  -0.628  0.00  0.00    -0.084 Cl
ENDBRANCH   5   6
BRANCH   5  13
ATOM     13  N   UNL     1      -1.277   3.199   1.002  0.00  0.00    -0.292 N 
ATOM     14  C   UNL     1      -0.427   4.229   0.821  0.00  0.00    +0.298 C 
ATOM     15  O   UNL     1       0.228   4.305  -0.200  0.00  0.00    -0.253 OA
ATOM     16  N   UNL     1      -0.303   5.176   1.773  0.00  0.00    -0.313 N 
ATOM     17  H   UNL     1      -1.932   3.175   1.886  0.00  0.00    +0.151 HD
ATOM     18  H   UNL     1       0.391   6.016   1.625  0.00  0.00    +0.146 HD
ATOM     19  H   UNL     1      -0.896   5.107   2.697  0.00  0.00    +0.146 HD
ENDBRANCH   5  13
ENDBRANCH   4   5
ENDBRANCH   2   4
ENDBRANCH   1   2
BRANCH   1  20
ATOM     20  C   UNL     1      -5.233   4.113  -2.045  0.00  0.00    +0.271 C 
BRANCH  20  28
ATOM     21  C   UNL     1      -9.018   5.953  -2.268  0.00  0.00    +0.340 C 
ATOM     22  O   UNL     1      -9.717   5.758  -3.503  0.00  0.00    -0.333 OA
ATOM     23  C   UNL     1      -8.979   6.214  -4.642  0.00  0.00    +0.203 C 
ATOM     24  C   UNL     1      -7.573   5.672  -4.574  0.00  0.00    +0.023 A 
ATOM     25  C   UNL     1      -6.778   5.692  -5.705  0.00  0.00    +0.047 A 
ATOM     26  C   UNL     1      -5.485   5.202  -5.652  0.00  0.00    +0.124 A 
ATOM     27  C   UNL     1      -4.985   4.691  -4.466  0.00  0.00    +0.049 A 
ATOM     28  C   UNL     1      -5.778   4.669  -3.336  0.00  0.00    +0.035 A 
ATOM     29  C   UNL     1      -7.077   5.154  -3.389  0.00  0.00    +0.136 A 
ATOM     30  O   UNL     1      -7.850   5.126  -2.269  0.00  0.00    -0.459 OA
ATOM     31  F   UNL     1      -4.710   5.222  -6.758  0.00  0.00    -0.205 F 
BRANCH  21  35
ATOM     32  C   UNL     1     -11.550   4.871   0.998  0.00  0.00    +0.000 A 
ATOM     33  C   UNL     1     -11.931   5.879   0.132  0.00  0.00    +0.000 A 
ATOM     34  C   UNL     1     -11.111   6.229  -0.925  0.00  0.00    +0.010 A 
ATOM     35  C   UNL     1      -9.911   5.571  -1.116  0.00  0.00    +0.020 A 
ATOM     36  C   UNL     1      -9.532   4.560  -0.253  0.00  0.00    +0.010 A 
ATOM     37  C   UNL     1     -10.350   4.213   0.806  0.00  0.00    +0.000 A 
ENDBRANCH  21  35
ENDBRANCH  20  28
ENDBRANCH   1  20
TORSDOF 8
