REMARK  Name = ZINC01885513
REMARK  5 active torsions:
REMARK  status: ('A' for Active; 'I' for Inactive)
REMARK    1  A    between atoms: C_12  and  C_37
REMARK    2  A    between atoms: C_14  and  C_26
REMARK    3  A    between atoms: C_26  and  C_28
REMARK    4  A    between atoms: C_32  and  N_34
REMARK    5  A    between atoms: C_37  and  C_39
REMARK                            x       y       z     vdW  Elec       q    Type
REMARK                         _______ _______ _______ _____ _____    ______ ____
ROOT
ATOM      1  C   UNL     1      -0.276   0.431  -1.028  0.00  0.00    +0.001 A 
ATOM      2  C   UNL     1       0.770   1.327  -0.884  0.00  0.00    +0.002 A 
ATOM      3  C   UNL     1       2.061   0.871  -0.675  0.00  0.00    +0.024 A 
ATOM      4  C   UNL     1       2.300  -0.484  -0.607  0.00  0.00    +0.038 A 
ATOM      5  C   UNL     1       1.238  -1.403  -0.739  0.00  0.00    -0.004 A 
ATOM      6  C   UNL     1      -0.050  -0.930  -0.959  0.00  0.00    +0.010 A 
ATOM      7  C   UNL     1       1.530  -2.844  -0.614  0.00  0.00    +0.007 C 
ATOM      8  C   UNL     1       2.773  -3.305  -0.720  0.00  0.00    -0.003 C 
ATOM      9  C   UNL     1       3.918  -2.364  -0.977  0.00  0.00    +0.117 C 
ATOM     10  N   UNL     1       3.559  -1.039  -0.422  0.00  0.00    -0.311 N 
ATOM     11  C   UNL     1       4.697  -0.540   0.355  0.00  0.00    +0.157 C 
ATOM     12  C   UNL     1       5.348  -1.834   0.922  0.00  0.00    +0.110 C 
ATOM     13  C   UNL     1       5.195  -2.816  -0.272  0.00  0.00    +0.108 C 
ATOM     14  C   UNL     1       5.129  -4.235   0.177  0.00  0.00    -0.008 A 
ATOM     15  C   UNL     1       4.257  -4.896   1.015  0.00  0.00    +0.006 A 
ATOM     16  C   UNL     1       4.486  -6.252   1.224  0.00  0.00    +0.000 A 
ATOM     17  C   UNL     1       5.541  -6.904   0.619  0.00  0.00    +0.002 A 
ATOM     18  C   UNL     1       6.423  -6.247  -0.225  0.00  0.00    +0.023 A 
ATOM     19  C   UNL     1       6.204  -4.886  -0.445  0.00  0.00    +0.038 A 
ATOM     20  N   UNL     1       6.917  -3.995  -1.229  0.00  0.00    -0.284 N 
ATOM     21  C   UNL     1       6.392  -2.750  -1.186  0.00  0.00    +0.231 C 
ATOM     22  O   UNL     1       6.803  -1.771  -1.770  0.00  0.00    -0.274 OA
ATOM     23  H   UNL     1       7.701  -4.236  -1.747  0.00  0.00    +0.155 HD
ENDROOT
BRANCH  12  24
ATOM     24  C   UNL     1       4.599  -2.329   2.132  0.00  0.00    +0.170 C 
ATOM     25  O   UNL     1       3.412  -2.108   2.242  0.00  0.00    -0.292 OA
BRANCH  24  26
ATOM     26  C   UNL     1       5.307  -3.082   3.179  0.00  0.00    +0.020 A 
ATOM     27  C   UNL     1       6.694  -3.249   3.109  0.00  0.00    +0.011 A 
ATOM     28  C   UNL     1       7.351  -3.955   4.094  0.00  0.00    +0.003 A 
ATOM     29  C   UNL     1       6.642  -4.499   5.151  0.00  0.00    +0.033 A 
ATOM     30  C   UNL     1       5.269  -4.338   5.228  0.00  0.00    +0.127 A 
ATOM     31  C   UNL     1       4.599  -3.629   4.253  0.00  0.00    +0.044 A 
BRANCH  30  32
ATOM     32  N   UNL     1       4.520  -4.924   6.362  0.00  0.00    +0.056 N 
ATOM     33  O   UNL     1       5.107  -5.541   7.220  0.00  0.00    -0.126 OA
ATOM     34  O   UNL     1       3.321  -4.784   6.431  0.00  0.00    -0.126 OA
ENDBRANCH  30  32
ENDBRANCH  24  26
ENDBRANCH  12  24
BRANCH  11  35
ATOM     35  C   UNL     1       5.663   0.198  -0.535  0.00  0.00    +0.185 C 
ATOM     36  O   UNL     1       5.559   0.118  -1.741  0.00  0.00    -0.290 OA
BRANCH  35  37
ATOM     37  C   UNL     1       6.733   1.014   0.058  0.00  0.00    +0.038 A 
ATOM     38  C   UNL     1       6.790   1.199   1.444  0.00  0.00    +0.013 A 
ATOM     39  C   UNL     1       7.795   1.966   1.992  0.00  0.00    +0.001 A 
ATOM     40  C   UNL     1       8.748   2.553   1.177  0.00  0.00    +0.001 A 
ATOM     41  C   UNL     1       8.700   2.376  -0.194  0.00  0.00    +0.021 A 
ATOM     42  C   UNL     1       7.703   1.606  -0.760  0.00  0.00    +0.051 A 
ATOM     43 CL   UNL     1       7.648   1.378  -2.480  0.00  0.00    -0.083 Cl
ENDBRANCH  35  37
ENDBRANCH  11  35
TORSDOF 5
