REMARK  Name = ZINC43222765
REMARK  6 active torsions:
REMARK  status: ('A' for Active; 'I' for Inactive)
REMARK    1  A    between atoms: C_1  and  C_2
REMARK    2  A    between atoms: C_2  and  C_4
REMARK    3  A    between atoms: C_2  and  N_14
REMARK    4  A    between atoms: C_15  and  C_17
REMARK    5  A    between atoms: C_22  and  C_24
REMARK    6  A    between atoms: N_26  and  C_27
REMARK                            x       y       z     vdW  Elec       q    Type
REMARK                         _______ _______ _______ _____ _____    ______ ____
ROOT
ATOM      1  C   UNL     1       0.528  -1.218   3.594  0.00  0.00    +0.068 C 
ATOM      2  C   UNL     1       1.559  -0.196   4.118  0.00  0.00    -0.069 C 
ATOM      3  N   UNL     1       0.814   0.609   5.120  0.00  0.00    +0.380 N 
ATOM      4  C   UNL     1      -0.034  -0.385   5.828  0.00  0.00    -0.069 C 
ATOM      5  C   UNL     1      -0.521  -1.345   4.719  0.00  0.00    +0.068 C 
ATOM      6  H   UNL     1       1.452   1.051   5.764  0.00  0.00    -0.086 HD
ATOM      7  H   UNL     1       0.239   1.299   4.661  0.00  0.00    -0.086 HD
ENDROOT
BRANCH   1   9
ATOM      8  N   UNL     1       0.630  -0.498   1.230  0.00  0.00    -0.309 N 
ATOM      9  C   UNL     1      -0.118  -0.710   2.331  0.00  0.00    +0.215 C 
ATOM     10  O   UNL     1      -1.310  -0.490   2.306  0.00  0.00    -0.276 OA
ATOM     11  H   UNL     1       1.584  -0.674   1.250  0.00  0.00    +0.149 HD
BRANCH   8  13
ATOM     12  C   UNL     1      -0.038   1.525   0.030  0.00  0.00    +0.033 C 
ATOM     13  C   UNL     1       0.002  -0.004   0.002  0.00  0.00    +0.101 C 
BRANCH  13  14
ATOM     14  C   UNL     1       0.800  -0.464  -1.191  0.00  0.00    -0.020 A 
ATOM     15  C   UNL     1       2.132  -0.715  -1.067  0.00  0.00    +0.006 A 
ATOM     16  C   UNL     1       2.886  -1.141  -2.158  0.00  0.00    +0.001 A 
ATOM     17  C   UNL     1       2.313  -1.319  -3.380  0.00  0.00    +0.008 A 
ATOM     18  C   UNL     1       0.940  -1.070  -3.546  0.00  0.00    -0.018 A 
ATOM     19  C   UNL     1       0.172  -0.642  -2.435  0.00  0.00    -0.013 A 
ATOM     20  C   UNL     1      -1.203  -0.399  -2.600  0.00  0.00    +0.009 A 
ATOM     21  C   UNL     1      -1.777  -0.583  -3.820  0.00  0.00    +0.001 A 
ATOM     22  C   UNL     1      -1.023  -1.009  -4.912  0.00  0.00    +0.001 A 
ATOM     23  C   UNL     1       0.313  -1.242  -4.792  0.00  0.00    +0.008 A 
ENDBRANCH  13  14
ENDBRANCH   8  13
ENDBRANCH   1   9
BRANCH   5  24
ATOM     24  C   UNL     1      -0.569  -2.761   5.232  0.00  0.00    +0.215 C 
ATOM     25  O   UNL     1       0.161  -3.604   4.756  0.00  0.00    -0.276 OA
ATOM     26  N   UNL     1      -1.422  -3.090   6.222  0.00  0.00    -0.312 N 
ATOM     27  H   UNL     1      -2.006  -2.416   6.603  0.00  0.00    +0.149 HD
BRANCH  26  28
ATOM     28  C   UNL     1      -1.469  -4.466   6.722  0.00  0.00    +0.073 C 
ATOM     29  C   UNL     1      -2.401  -5.298   5.839  0.00  0.00    +0.022 C 
ATOM     30  C   UNL     1      -2.450  -6.736   6.361  0.00  0.00    +0.002 C 
ATOM     31  C   UNL     1      -2.971  -6.739   7.799  0.00  0.00    +0.000 C 
ATOM     32  C   UNL     1      -2.039  -5.907   8.682  0.00  0.00    +0.002 C 
ATOM     33  C   UNL     1      -1.990  -4.470   8.160  0.00  0.00    +0.022 C 
ENDBRANCH  26  28
ENDBRANCH   5  24
TORSDOF 5
