REMARK  Name = ZINC43548614
REMARK  11 active torsions:
REMARK  status: ('A' for Active; 'I' for Inactive)
REMARK    1  A    between atoms: C_1  and  C_2
REMARK    2  A    between atoms: C_2  and  C_3
REMARK    3  A    between atoms: C_3  and  C_4
REMARK    4  A    between atoms: C_4  and  N_5
REMARK    5  A    between atoms: C_12  and  C_37
REMARK    6  A    between atoms: C_15  and  C_25
REMARK    7  A    between atoms: C_17  and  O_24
REMARK    8  A    between atoms: C_21  and  C_23
REMARK    9  A    between atoms: C_25  and  C_27
REMARK   10  A    between atoms: C_25  and  C_28
REMARK   11  A    between atoms: N_33  and  C_36
REMARK                            x       y       z     vdW  Elec       q    Type
REMARK                         _______ _______ _______ _____ _____    ______ ____
ROOT
ATOM      1  N   UNL     1      -4.870  -1.719   0.927  0.00  0.00    -0.325 N 
ATOM      2  C   UNL     1      -4.773  -3.092   0.766  0.00  0.00    +0.136 A 
ATOM      3  N   UNL     1      -5.717  -3.999   0.892  0.00  0.00    -0.340 N 
ATOM      4  C   UNL     1      -5.477  -5.295   0.705  0.00  0.00    +0.031 A 
ATOM      5  C   UNL     1      -4.195  -5.596   0.379  0.00  0.00    +0.013 A 
ATOM      6  S   UNL     1      -3.418  -4.005   0.352  0.00  0.00    -0.059 S 
ATOM      7  C   UNL     1      -3.616  -6.942   0.110  0.00  0.00    +0.051 C 
ATOM      8  C   UNL     1      -4.768  -7.937  -0.120  0.00  0.00    -0.022 C 
ATOM      9  C   UNL     1      -4.199  -9.358   0.013  0.00  0.00    +0.008 C 
ATOM     10  C   UNL     1      -3.521  -9.494   1.379  0.00  0.00    +0.007 C 
ATOM     11  C   UNL     1      -4.540  -9.252   2.492  0.00  0.00    +0.029 C 
ATOM     12  C   UNL     1      -5.144  -7.852   2.346  0.00  0.00    +0.123 C 
ATOM     13  C   UNL     1      -5.817  -7.740   0.980  0.00  0.00    +0.033 C 
ATOM     14  C   UNL     1      -6.520  -6.395   0.832  0.00  0.00    +0.039 C 
ATOM     15  C   UNL     1      -7.399  -6.412  -0.421  0.00  0.00    +0.014 C 
ATOM     16  C   UNL     1      -5.393  -7.725  -1.500  0.00  0.00    +0.012 C 
ATOM     17  H   UNL     1      -5.720  -1.318   1.169  0.00  0.00    +0.148 HD
ATOM     18  H   UNL     1      -6.614  -3.715   1.129  0.00  0.00    +0.167 HD
ENDROOT
BRANCH  12  19
ATOM     19  O   UNL     1      -6.110  -7.638   3.377  0.00  0.00    -0.391 OA
ATOM     20  H   UNL     1      -5.737  -7.616   4.268  0.00  0.00    +0.210 HD
ENDBRANCH  12  19
BRANCH  11  21
ATOM     21  C   UNL     1      -3.846  -9.367   3.851  0.00  0.00    +0.078 C 
ATOM     22  C   UNL     1      -2.715  -8.340   3.934  0.00  0.00    +0.017 C 
BRANCH  21  23
ATOM     23  C   UNL     1      -3.278 -10.754   4.010  0.00  0.00    +0.219 C 
ATOM     24  O   UNL     1      -2.125 -10.975   3.705  0.00  0.00    -0.275 OA
ATOM     25  N   UNL     1      -4.051 -11.748   4.490  0.00  0.00    -0.299 N 
ATOM     26  C   UNL     1      -5.481 -11.531   4.755  0.00  0.00    +0.123 C 
ATOM     27  C   UNL     1      -6.279 -12.643   4.065  0.00  0.00    +0.103 C 
ATOM     28  N   UNL     1      -5.759 -13.950   4.490  0.00  0.00    -0.302 NA
ATOM     29  C   UNL     1      -4.362 -14.130   4.072  0.00  0.00    +0.103 C 
ATOM     30  C   UNL     1      -3.488 -13.080   4.757  0.00  0.00    +0.123 C 
ATOM     31  C   UNL     1      -6.604 -15.041   3.987  0.00  0.00    +0.105 C 
ENDBRANCH  21  23
ENDBRANCH  11  21
BRANCH   1  32
ATOM     32  C   UNL     1      -3.690  -0.873   0.733  0.00  0.00    +0.103 C 
BRANCH  32  33
ATOM     33  C   UNL     1      -4.067   0.591   0.969  0.00  0.00    +0.018 C 
BRANCH  33  35
ATOM     34  C   UNL     1      -3.211   2.938   1.003  0.00  0.00    +0.004 C 
ATOM     35  C   UNL     1      -2.834   1.474   0.766  0.00  0.00    -0.002 C 
ENDBRANCH  33  35
ENDBRANCH  32  33
ENDBRANCH   1  32
TORSDOF 6
