REMARK  Name = ZINC08769405
REMARK  8 active torsions:
REMARK  status: ('A' for Active; 'I' for Inactive)
REMARK    1  A    between atoms: C_1  and  O_2
REMARK    2  A    between atoms: O_2  and  C_3
REMARK    3  A    between atoms: C_9  and  C_13
REMARK    4  A    between atoms: C_13  and  C_14
REMARK    5  A    between atoms: C_14  and  N_15
REMARK    6  A    between atoms: C_16  and  C_17
REMARK    7  A    between atoms: C_16  and  C_33
REMARK    8  A    between atoms: N_23  and  C_26
REMARK                            x       y       z     vdW  Elec       q    Type
REMARK                         _______ _______ _______ _____ _____    ______ ____
ROOT
ATOM      1  N   UNL     1      -4.345   1.958   8.018  0.00  0.00    -0.286 NA
ATOM      2  C   UNL     1      -5.585   1.459   7.745  0.00  0.00    +0.064 C 
ENDROOT
BRANCH   2   3
ATOM      3  C   UNL     1      -6.633   2.326   7.423  0.00  0.00    +0.210 C 
ATOM      4  C   UNL     1      -6.482   3.784   7.534  0.00  0.00    +0.238 C 
ATOM      5  O   UNL     1      -5.434   4.277   7.910  0.00  0.00    -0.274 OA
ATOM      6  N   UNL     1      -7.533   4.562   7.203  0.00  0.00    -0.238 N 
ATOM      7  C   UNL     1      -8.694   4.032   6.792  0.00  0.00    +0.319 C 
ATOM      8  O   UNL     1      -9.605   4.786   6.514  0.00  0.00    -0.251 OA
ATOM      9  N   UNL     1      -8.901   2.713   6.673  0.00  0.00    -0.193 N 
ATOM     10  C   UNL     1      -7.934   1.819   6.966  0.00  0.00    +0.245 C 
ATOM     11  O   UNL     1      -8.135   0.624   6.854  0.00  0.00    -0.274 OA
ATOM     12  H   UNL     1      -7.449   5.526   7.267  0.00  0.00    +0.159 HD
BRANCH   9  13
ATOM     13  C   UNL     1     -10.151   2.252   6.236  0.00  0.00    +0.045 A 
ATOM     14  C   UNL     1     -10.275   1.665   4.984  0.00  0.00    +0.025 A 
ATOM     15  C   UNL     1     -11.507   1.207   4.557  0.00  0.00    +0.017 A 
ATOM     16  C   UNL     1     -12.617   1.344   5.371  0.00  0.00    +0.018 A 
ATOM     17  C   UNL     1     -12.496   1.934   6.616  0.00  0.00    +0.017 A 
ATOM     18  C   UNL     1     -11.267   2.389   7.050  0.00  0.00    +0.025 A 
ATOM     19 BR   UNL     1     -14.303   0.722   4.780  0.00  0.00    -0.050 Br
ENDBRANCH   9  13
ENDBRANCH   2   3
BRANCH   2  20
ATOM     20  C   UNL     1      -5.819   0.005   7.788  0.00  0.00    -0.003 A 
ATOM     21  C   UNL     1      -6.845  -0.518   8.581  0.00  0.00    +0.011 A 
ATOM     22  C   UNL     1      -7.061  -1.879   8.613  0.00  0.00    +0.020 A 
ATOM     23  C   UNL     1      -6.258  -2.729   7.870  0.00  0.00    +0.041 A 
ATOM     24  C   UNL     1      -5.237  -2.218   7.086  0.00  0.00    +0.020 A 
ATOM     25  C   UNL     1      -5.012  -0.859   7.040  0.00  0.00    +0.011 A 
ATOM     26 CL   UNL     1      -6.534  -4.442   7.921  0.00  0.00    -0.084 Cl
ENDBRANCH   2  20
BRANCH   1  27
ATOM     27  C   UNL     1      -3.247   1.049   8.355  0.00  0.00    +0.146 C 
BRANCH  27  28
ATOM     28  C   UNL     1      -1.950   1.848   8.500  0.00  0.00    +0.060 C 
BRANCH  28  35
ATOM     29  C   UNL     1       0.919  -0.828   5.912  0.00  0.00    +0.121 A 
ATOM     30  C   UNL     1       1.827  -1.544   6.687  0.00  0.00    +0.047 A 
ATOM     31  C   UNL     1       1.831  -1.420   8.058  0.00  0.00    +0.030 A 
ATOM     32  C   UNL     1       0.913  -0.582   8.682  0.00  0.00    +0.047 A 
ATOM     33  C   UNL     1      -0.009   0.139   7.903  0.00  0.00    +0.006 A 
ATOM     34  C   UNL     1       0.000   0.009   6.513  0.00  0.00    +0.056 A 
ATOM     35  C   UNL     1      -0.820   0.913   8.847  0.00  0.00    -0.021 A 
ATOM     36  C   UNL     1      -0.365   0.631  10.078  0.00  0.00    +0.087 A 
ATOM     37  N   UNL     1       0.670  -0.259  10.001  0.00  0.00    -0.360 N 
ATOM     38  H   UNL     1       1.160  -0.612  10.760  0.00  0.00    +0.165 HD
BRANCH  29  40
ATOM     39  C   UNL     1       1.909  -1.841   4.001  0.00  0.00    +0.277 C 
ATOM     40  O   UNL     1       0.933  -0.958   4.558  0.00  0.00    -0.495 OA
ENDBRANCH  29  40
ENDBRANCH  28  35
ENDBRANCH  27  28
ENDBRANCH   1  27
TORSDOF 7
