REMARK  Name = ZINC12309358
REMARK  12 active torsions:
REMARK  status: ('A' for Active; 'I' for Inactive)
REMARK    1  A    between atoms: C_1  and  C_2
REMARK    2  A    between atoms: C_2  and  O_3
REMARK    3  A    between atoms: O_3  and  C_4
REMARK    4  A    between atoms: C_4  and  C_6
REMARK    5  A    between atoms: C_11  and  N_12
REMARK    6  A    between atoms: C_13  and  C_15
REMARK    7  A    between atoms: C_15  and  O_16
REMARK    8  A    between atoms: O_16  and  N_17
REMARK    9  A    between atoms: N_17  and  C_18
REMARK   10  A    between atoms: C_19  and  C_33
REMARK   11  A    between atoms: N_27  and  C_32
REMARK   12  A    between atoms: N_30  and  C_31
REMARK                            x       y       z     vdW  Elec       q    Type
REMARK                         _______ _______ _______ _____ _____    ______ ____
ROOT
ATOM      1  N   UNL     1      -1.153   2.147  -0.011  0.00  0.00    -0.264 N 
ATOM      2  H   UNL     1      -2.113   1.617  -0.093  0.00  0.00    +0.194 HD
ENDROOT
BRANCH   1   3
ATOM      3  C   UNL     1      -0.026   1.471  -0.025  0.00  0.00    +0.081 A 
ATOM      4  C   UNL     1       0.027   0.043   0.348  0.00  0.00    -0.008 A 
ATOM      5  C   UNL     1       1.227  -0.523   0.550  0.00  0.00    +0.089 A 
ATOM      6  N   UNL     1       2.391   0.187   0.425  0.00  0.00    -0.347 N 
ATOM      7  H   UNL     1       3.333  -0.227   0.815  0.00  0.00    +0.167 HD
ATOM      8  C   UNL     1       2.432   1.407  -0.174  0.00  0.00    +0.129 A 
ATOM      9  C   UNL     1       1.249   2.098  -0.420  0.00  0.00    +0.106 A 
ATOM     10  C   UNL     1       1.300   3.369  -1.038  0.00  0.00    +0.268 A 
ATOM     11  O   UNL     1       0.279   3.993  -1.260  0.00  0.00    -0.267 OA
ATOM     12  N   UNL     1       2.505   3.878  -1.376  0.00  0.00    -0.263 N 
ATOM     13  C   UNL     1       3.635   3.192  -1.133  0.00  0.00    +0.333 A 
ATOM     14  O   UNL     1       4.702   3.679  -1.453  0.00  0.00    -0.246 OA
ATOM     15  N   UNL     1       3.620   1.981  -0.546  0.00  0.00    -0.282 N 
ATOM     16  C   UNL     1       4.880   1.273  -0.304  0.00  0.00    +0.155 C 
ATOM     17  C   UNL     1       2.581   5.195  -2.015  0.00  0.00    +0.157 C 
ATOM     18  C   UNL     1      -1.239  -0.761   0.500  0.00  0.00    +0.047 C 
ENDBRANCH   1   3
BRANCH   1  19
ATOM     19  O   UNL     1      -1.130   3.557   0.111  0.00  0.00    -0.265 OA
BRANCH  19  20
ATOM     20  C   UNL     1      -2.426   4.161   0.113  0.00  0.00    +0.288 C 
BRANCH  20  22
ATOM     21  N   UNL     1      -3.381   6.437   0.271  0.00  0.00    -0.283 N 
ATOM     22  C   UNL     1      -2.283   5.655   0.247  0.00  0.00    +0.246 C 
ATOM     23  O   UNL     1      -1.181   6.154   0.332  0.00  0.00    -0.273 OA
ATOM     24  H   UNL     1      -4.381   5.981   0.281  0.00  0.00    +0.155 HD
BRANCH  21  30
ATOM     25  C   UNL     1      -4.158   8.612   1.004  0.00  0.00    +0.080 A 
ATOM     26  C   UNL     1      -4.013  10.002   1.009  0.00  0.00    +0.017 A 
ATOM     27  C   UNL     1      -2.980  10.588   0.310  0.00  0.00    +0.001 A 
ATOM     28  C   UNL     1      -2.083   9.806  -0.399  0.00  0.00    +0.002 A 
ATOM     29  C   UNL     1      -2.210   8.432  -0.409  0.00  0.00    +0.024 A 
ATOM     30  C   UNL     1      -3.248   7.824   0.284  0.00  0.00    +0.047 A 
BRANCH  25  31
ATOM     31  C   UNL     1      -5.261   7.979   1.749  0.00  0.00    +0.341 C 
ATOM     32  O   UNL     1      -5.437   6.779   1.670  0.00  0.00    -0.245 OA
BRANCH  31  33
ATOM     33  O   UNL     1      -6.073   8.730   2.518  0.00  0.00    -0.461 OA
BRANCH  33  35
ATOM     34  C   UNL     1      -7.949   9.049   4.037  0.00  0.00    +0.048 C 
ATOM     35  C   UNL     1      -7.138   8.040   3.223  0.00  0.00    +0.229 C 
ENDBRANCH  33  35
ENDBRANCH  31  33
ENDBRANCH  25  31
ENDBRANCH  21  30
ENDBRANCH  20  22
ENDBRANCH  19  20
ENDBRANCH   1  19
TORSDOF 8
