REMARK  Name = ZINC63258976
REMARK  10 active torsions:
REMARK  status: ('A' for Active; 'I' for Inactive)
REMARK    1  A    between atoms: C_4  and  N_9
REMARK    2  A    between atoms: C_5  and  C_7
REMARK    3  A    between atoms: C_10  and  C_12
REMARK    4  A    between atoms: C_12  and  O_13
REMARK    5  A    between atoms: O_13  and  C_14
REMARK    6  A    between atoms: C_14  and  C_16
REMARK    7  A    between atoms: C_16  and  C_18
REMARK    8  A    between atoms: C_16  and  N_28
REMARK    9  A    between atoms: C_18  and  C_19
REMARK   10  A    between atoms: C_29  and  C_31
REMARK                            x       y       z     vdW  Elec       q    Type
REMARK                         _______ _______ _______ _____ _____    ______ ____
ROOT
ATOM      1  C   UNL     1       9.583   0.763  -0.612  0.00  0.00    +0.186 C 
ENDROOT
BRANCH   1   2
ATOM      2  N   UNL     1      10.822  -0.008  -0.736  0.00  0.00    -0.298 N 
ATOM      3  C   UNL     1      11.995   0.535  -0.353  0.00  0.00    +0.245 C 
ATOM      4  O   UNL     1      12.024   1.665   0.096  0.00  0.00    -0.270 OA
ATOM      5  H   UNL     1      10.800  -0.909  -1.094  0.00  0.00    +0.150 HD
BRANCH   3   6
ATOM      6  C   UNL     1      13.245  -0.242  -0.478  0.00  0.00    +0.037 A 
ATOM      7  C   UNL     1      13.216  -1.537  -0.998  0.00  0.00    +0.014 A 
ATOM      8  C   UNL     1      14.387  -2.258  -1.112  0.00  0.00    +0.021 A 
ATOM      9  C   UNL     1      15.589  -1.699  -0.712  0.00  0.00    +0.041 A 
ATOM     10  C   UNL     1      15.624  -0.414  -0.196  0.00  0.00    +0.021 A 
ATOM     11  C   UNL     1      14.461   0.318  -0.081  0.00  0.00    +0.014 A 
ATOM     12 CL   UNL     1      17.058  -2.612  -0.858  0.00  0.00    -0.084 Cl
ENDBRANCH   3   6
ENDBRANCH   1   2
BRANCH   1  13
ATOM     13  C   UNL     1       8.413  -0.181  -0.501  0.00  0.00    +0.328 C 
ATOM     14  O   UNL     1       8.597  -1.375  -0.524  0.00  0.00    -0.249 OA
BRANCH  13  15
ATOM     15  O   UNL     1       7.168   0.304  -0.378  0.00  0.00    -0.454 OA
BRANCH  15  16
ATOM     16  C   UNL     1       6.107  -0.648  -0.278  0.00  0.00    +0.328 C 
BRANCH  16  18
ATOM     17  N   UNL     1       3.646  -0.623  -0.037  0.00  0.00    -0.282 N 
ATOM     18  C   UNL     1       4.792   0.077  -0.147  0.00  0.00    +0.255 C 
ATOM     19  O   UNL     1       4.766   1.289  -0.140  0.00  0.00    -0.272 OA
ATOM     20  H   UNL     1       3.672  -1.589   0.037  0.00  0.00    +0.155 HD
BRANCH  17  24
ATOM     21  C   UNL     1      -0.019   1.371  -0.024  0.00  0.00    +0.001 A 
ATOM     22  C   UNL     1       1.088   1.947  -0.626  0.00  0.00    +0.002 A 
ATOM     23  C   UNL     1       2.302   1.289  -0.632  0.00  0.00    +0.024 A 
ATOM     24  C   UNL     1       2.421   0.043  -0.032  0.00  0.00    +0.051 A 
ATOM     25  C   UNL     1       1.302  -0.543   0.578  0.00  0.00    +0.073 A 
ATOM     26  C   UNL     1       0.081   0.134   0.576  0.00  0.00    +0.021 A 
BRANCH  25  27
ATOM     27  C   UNL     1       1.412  -1.829   1.199  0.00  0.00    +0.101 C 
ATOM     28  N   UNL     1       1.499  -2.849   1.692  0.00  0.00    -0.191 NA
ENDBRANCH  25  27
ENDBRANCH  17  24
ENDBRANCH  16  18
ENDBRANCH  15  16
ENDBRANCH  13  15
ENDBRANCH   1  13
BRANCH   1  29
ATOM     29  C   UNL     1       9.408   1.649  -1.847  0.00  0.00    +0.067 C 
BRANCH  29  30
ATOM     30  C   UNL     1      10.511   2.674  -1.890  0.00  0.00    -0.039 C 
ATOM     31  C   UNL     1      11.677   2.586  -2.571  0.00  0.00    -0.001 A 
ATOM     32  C   UNL     1      12.244   1.548  -3.441  0.00  0.00    +0.010 A 
ATOM     33  C   UNL     1      13.462   1.749  -3.993  0.00  0.00    +0.001 A 
ATOM     34  C   UNL     1      14.195   2.920  -3.755  0.00  0.00    +0.002 A 
ATOM     35  C   UNL     1      13.740   3.918  -2.968  0.00  0.00    +0.026 A 
ATOM     36  C   UNL     1      12.470   3.813  -2.337  0.00  0.00    +0.043 A 
ATOM     37  N   UNL     1      11.821   4.629  -1.542  0.00  0.00    -0.380 N 
ATOM     38  C   UNL     1      10.538   4.012  -1.186  0.00  0.00    +0.144 C 
ATOM     39  H   UNL     1      12.135   5.496  -1.242  0.00  0.00    +0.160 HD
ENDBRANCH  29  30
ENDBRANCH   1  29
TORSDOF 10
