REMARK  Name = ZINC57457048
REMARK  11 active torsions:
REMARK  status: ('A' for Active; 'I' for Inactive)
REMARK    1  A    between atoms: C_1  and  C_2
REMARK    2  A    between atoms: C_4  and  C_27
REMARK    3  A    between atoms: C_6  and  C_26
REMARK    4  A    between atoms: C_7  and  S_8
REMARK    5  A    between atoms: S_8  and  N_11
REMARK    6  A    between atoms: N_14  and  C_17
REMARK    7  A    between atoms: C_17  and  C_19
REMARK    8  A    between atoms: C_17  and  C_20
REMARK    9  A    between atoms: C_27  and  C_28
REMARK   10  A    between atoms: C_27  and  C_29
REMARK   11  A    between atoms: C_27  and  C_30
REMARK                            x       y       z     vdW  Elec       q    Type
REMARK                         _______ _______ _______ _____ _____    ______ ____
ROOT
ATOM      1  N   UNL     1      -1.143   0.087   3.817  0.00  0.00    -0.174 NA
ATOM      2  C   UNL     1      -1.870   1.259   3.305  0.00  0.00    +0.125 C 
ATOM      3  C   UNL     1      -3.233   0.795   2.780  0.00  0.00    +0.102 C 
ATOM      4  N   UNL     1      -3.930   0.043   3.832  0.00  0.00    -0.289 NA
ATOM      5  C   UNL     1      -3.194  -1.177   4.190  0.00  0.00    +0.102 C 
ATOM      6  C   UNL     1      -1.832  -0.798   4.769  0.00  0.00    +0.125 C 
ENDROOT
BRANCH   1   7
ATOM      7  S   UNL     1       0.407  -0.231   3.329  0.00  0.00    +0.061 S 
ATOM      8  O   UNL     1       1.049  -0.882   4.416  0.00  0.00    -0.153 OA
ATOM      9  O   UNL     1       0.907   0.969   2.756  0.00  0.00    -0.153 OA
BRANCH   7  16
ATOM     10  C   UNL     1       0.012   0.487   0.417  0.00  0.00    +0.046 C 
ATOM     11  C   UNL     1       0.128  -0.985   0.720  0.00  0.00    -0.024 A 
ATOM     12  C   UNL     1       0.057  -1.909  -0.305  0.00  0.00    +0.009 A 
ATOM     13  C   UNL     1       0.163  -3.259  -0.028  0.00  0.00    -0.041 A 
ATOM     14  C   UNL     1       0.340  -3.685   1.276  0.00  0.00    +0.009 A 
ATOM     15  C   UNL     1       0.411  -2.760   2.301  0.00  0.00    -0.024 A 
ATOM     16  C   UNL     1       0.310  -1.410   2.022  0.00  0.00    +0.111 A 
ATOM     17  C   UNL     1       0.603  -3.224   3.722  0.00  0.00    +0.046 C 
BRANCH  13  18
ATOM     18  C   UNL     1       0.085  -4.267  -1.145  0.00  0.00    -0.013 C 
ATOM     19  C   UNL     1       1.213  -4.007  -2.146  0.00  0.00    +0.015 C 
ATOM     20  C   UNL     1       0.229  -5.678  -0.571  0.00  0.00    +0.015 C 
ATOM     21  C   UNL     1      -1.265  -4.140  -1.853  0.00  0.00    +0.015 C 
ENDBRANCH  13  18
ENDBRANCH   7  16
ENDBRANCH   1   7
BRANCH   4  22
ATOM     22  C   UNL     1      -5.307  -0.272   3.430  0.00  0.00    +0.140 C 
ATOM     23  C   UNL     1      -5.309  -0.819   2.001  0.00  0.00    +0.034 C 
BRANCH  22  24
ATOM     24  C   UNL     1      -6.146   0.979   3.489  0.00  0.00    +0.237 C 
ATOM     25  O   UNL     1      -5.616   2.057   3.651  0.00  0.00    -0.274 OA
ATOM     26  N   UNL     1      -7.485   0.899   3.363  0.00  0.00    -0.239 N 
ATOM     27  C   UNL     1      -8.235   2.017   3.417  0.00  0.00    +0.303 C 
ATOM     28  O   UNL     1      -7.704   3.098   3.578  0.00  0.00    -0.253 OA
ATOM     29  N   UNL     1      -9.575   1.937   3.291  0.00  0.00    -0.313 N 
ATOM     30  H   UNL     1      -7.909   0.036   3.234  0.00  0.00    +0.159 HD
ATOM     31  H   UNL     1      -9.999   1.074   3.162  0.00  0.00    +0.146 HD
ATOM     32  H   UNL     1     -10.115   2.742   3.329  0.00  0.00    +0.146 HD
ENDBRANCH  22  24
ENDBRANCH   4  22
TORSDOF 5
