REMARK  Name = ZINC12470735
REMARK  8 active torsions:
REMARK  status: ('A' for Active; 'I' for Inactive)
REMARK    1  A    between atoms: C_1  and  C_2
REMARK    2  A    between atoms: C_4  and  C_41
REMARK    3  A    between atoms: C_7  and  C_14
REMARK    4  A    between atoms: C_14  and  C_16
REMARK    5  A    between atoms: C_14  and  N_28
REMARK    6  A    between atoms: N_20  and  C_21
REMARK    7  A    between atoms: C_21  and  C_22
REMARK    8  A    between atoms: C_37  and  C_39
REMARK                            x       y       z     vdW  Elec       q    Type
REMARK                         _______ _______ _______ _____ _____    ______ ____
ROOT
ATOM      1  C   UNL     1       4.372   0.426  -0.243  0.00  0.00    +0.179 C 
ENDROOT
BRANCH   1   8
ATOM      2  C   UNL     1       2.405   7.439  -3.495  0.00  0.00    +0.044 C 
ATOM      3  C   UNL     1       2.774   6.229  -2.677  0.00  0.00    -0.048 A 
ATOM      4  C   UNL     1       2.903   6.343  -1.299  0.00  0.00    +0.007 A 
ATOM      5  C   UNL     1       3.235   5.258  -0.539  0.00  0.00    -0.041 A 
ATOM      6  C   UNL     1       3.449   4.020  -1.154  0.00  0.00    +0.002 A 
ATOM      7  C   UNL     1       3.803   2.836  -0.369  0.00  0.00    +0.021 A 
ATOM      8  C   UNL     1       4.003   1.663  -1.021  0.00  0.00    +0.045 A 
ATOM      9  C   UNL     1       3.861   1.596  -2.424  0.00  0.00    +0.255 A 
ATOM     10  O   UNL     1       4.041   0.531  -2.989  0.00  0.00    -0.268 OA
ATOM     11  N   UNL     1       3.532   2.678  -3.152  0.00  0.00    -0.322 N 
ATOM     12  H   UNL     1       3.443   2.596  -4.114  0.00  0.00    +0.169 HD
ATOM     13  C   UNL     1       3.320   3.900  -2.550  0.00  0.00    +0.050 A 
ATOM     14  C   UNL     1       2.980   5.019  -3.304  0.00  0.00    +0.029 A 
ATOM     15  C   UNL     1       3.371   5.394   0.956  0.00  0.00    +0.044 C 
ENDBRANCH   1   8
BRANCH   1  16
ATOM     16  N   UNL     1       3.591  -0.715  -0.740  0.00  0.00    -0.313 N 
ATOM     17  C   UNL     1       2.231  -0.540  -0.482  0.00  0.00    +0.034 A 
ATOM     18  C   UNL     1       1.722   0.758  -0.540  0.00  0.00    +0.026 A 
ATOM     19  C   UNL     1       0.386   0.996  -0.304  0.00  0.00    +0.040 A 
ATOM     20  C   UNL     1      -0.462  -0.058  -0.006  0.00  0.00    +0.124 A 
ATOM     21  C   UNL     1       0.038  -1.345   0.056  0.00  0.00    +0.043 A 
ATOM     22  C   UNL     1       1.382  -1.590  -0.180  0.00  0.00    -0.024 A 
ATOM     23  C   UNL     1       1.871  -3.014  -0.091  0.00  0.00    +0.039 C 
ATOM     24  C   UNL     1       3.250  -3.127  -0.746  0.00  0.00    +0.027 C 
ATOM     25  C   UNL     1       4.118  -1.978  -0.218  0.00  0.00    +0.072 C 
ATOM     26  C   UNL     1       5.561  -2.166  -0.690  0.00  0.00    +0.028 C 
ATOM     27  F   UNL     1      -1.774   0.170   0.217  0.00  0.00    -0.205 F 
ENDBRANCH   1  16
BRANCH   1  28
ATOM     28  C   UNL     1       5.842   0.143  -0.418  0.00  0.00    +0.177 A 
ATOM     29  N   UNL     1       6.422  -0.357  -1.482  0.00  0.00    -0.111 NA
ATOM     30  N   UNL     1       7.684  -0.447  -1.242  0.00  0.00    -0.023 NA
ATOM     31  N   UNL     1       7.925  -0.017  -0.052  0.00  0.00    -0.044 NA
ATOM     32  N   UNL     1       6.815   0.360   0.486  0.00  0.00    -0.223 N 
BRANCH  32  33
ATOM     33  C   UNL     1       6.645   0.918   1.830  0.00  0.00    +0.182 C 
BRANCH  33  34
ATOM     34  C   UNL     1       6.397  -0.200   2.810  0.00  0.00    -0.026 A 
ATOM     35  C   UNL     1       5.105  -0.613   3.075  0.00  0.00    +0.005 A 
ATOM     36  C   UNL     1       4.878  -1.641   3.970  0.00  0.00    +0.000 A 
ATOM     37  C   UNL     1       5.942  -2.250   4.608  0.00  0.00    +0.000 A 
ATOM     38  C   UNL     1       7.234  -1.834   4.347  0.00  0.00    +0.000 A 
ATOM     39  C   UNL     1       7.462  -0.809   3.448  0.00  0.00    +0.005 A 
ENDBRANCH  33  34
ENDBRANCH  32  33
ENDBRANCH   1  28
TORSDOF 5
