REMARK  Name = ZINC09501367
REMARK  14 active torsions:
REMARK  status: ('A' for Active; 'I' for Inactive)
REMARK    1  A    between atoms: C_1  and  C_2
REMARK    2  A    between atoms: C_2  and  C_4
REMARK    3  A    between atoms: C_2  and  O_36
REMARK    4  A    between atoms: C_4  and  C_6
REMARK    5  A    between atoms: C_4  and  N_25
REMARK    6  A    between atoms: C_6  and  O_8
REMARK    7  A    between atoms: O_8  and  C_9
REMARK    8  A    between atoms: C_9  and  C_10
REMARK    9  A    between atoms: N_12  and  C_13
REMARK   10  A    between atoms: N_12  and  C_14
REMARK   11  A    between atoms: C_14  and  C_15
REMARK   12  A    between atoms: N_17  and  C_18
REMARK   13  A    between atoms: N_25  and  S_26
REMARK   14  A    between atoms: S_26  and  C_29
REMARK                            x       y       z     vdW  Elec       q    Type
REMARK                         _______ _______ _______ _____ _____    ______ ____
ROOT
ATOM      1  C   UNL     1       2.572  -3.720  -3.462  0.00  0.00    +0.329 C 
ATOM      2  O   UNL     1       1.852  -4.690  -3.428  0.00  0.00    -0.249 OA
ENDROOT
BRANCH   1   3
ATOM      3  C   UNL     1       2.352  -2.585  -2.496  0.00  0.00    +0.213 C 
BRANCH   3   5
ATOM      4  C   UNL     1       3.296  -0.907  -4.088  0.00  0.00    +0.040 C 
ATOM      5  C   UNL     1       2.061  -1.301  -3.276  0.00  0.00    +0.141 C 
BRANCH   5   6
ATOM      6  O   UNL     1       0.959  -1.519  -4.159  0.00  0.00    -0.390 OA
ATOM      7  H   UNL     1       0.719  -0.745  -4.686  0.00  0.00    +0.210 HD
ENDBRANCH   5   6
ENDBRANCH   3   5
BRANCH   3   8
ATOM      8  N   UNL     1       1.215  -2.897  -1.627  0.00  0.00    -0.174 NA
ATOM      9  H   UNL     1       0.458  -3.391  -1.978  0.00  0.00    +0.149 HD
BRANCH   8  10
ATOM     10  S   UNL     1       1.222  -2.404  -0.046  0.00  0.00    +0.059 S 
ATOM     11  O   UNL     1       2.478  -2.791   0.494  0.00  0.00    -0.153 OA
ATOM     12  O   UNL     1      -0.013  -2.828   0.517  0.00  0.00    -0.153 OA
BRANCH  10  13
ATOM     13  C   UNL     1       1.195  -0.642  -0.048  0.00  0.00    +0.105 A 
ATOM     14  C   UNL     1      -0.013   0.030  -0.038  0.00  0.00    +0.031 A 
ATOM     15  C   UNL     1      -0.035   1.412  -0.041  0.00  0.00    +0.040 A 
ATOM     16  C   UNL     1       1.153   2.123  -0.053  0.00  0.00    +0.124 A 
ATOM     17  C   UNL     1       2.362   1.448  -0.063  0.00  0.00    +0.040 A 
ATOM     18  C   UNL     1       2.381   0.066  -0.061  0.00  0.00    +0.031 A 
ATOM     19  F   UNL     1       1.132   3.474  -0.055  0.00  0.00    -0.205 F 
ENDBRANCH  10  13
ENDBRANCH   8  10
ENDBRANCH   3   8
ENDBRANCH   1   3
BRANCH   1  20
ATOM     20  O   UNL     1       3.567  -3.654  -4.361  0.00  0.00    -0.454 OA
BRANCH  20  21
ATOM     21  C   UNL     1       3.720  -4.784  -5.260  0.00  0.00    +0.327 C 
BRANCH  21  22
ATOM     22  C   UNL     1       4.879  -4.533  -6.189  0.00  0.00    +0.253 C 
ATOM     23  O   UNL     1       5.513  -3.503  -6.103  0.00  0.00    -0.272 OA
ATOM     24  N   UNL     1       5.210  -5.452  -7.117  0.00  0.00    -0.293 N 
ATOM     25  C   UNL     1       4.443  -6.696  -7.222  0.00  0.00    +0.132 C 
BRANCH  24  26
ATOM     26  C   UNL     1       6.337  -5.208  -8.021  0.00  0.00    +0.203 C 
BRANCH  26  27
ATOM     27  C   UNL     1       7.602  -5.744  -7.403  0.00  0.00    +0.235 C 
ATOM     28  O   UNL     1       7.566  -6.278  -6.314  0.00  0.00    -0.274 OA
ATOM     29  N   UNL     1       8.774  -5.631  -8.060  0.00  0.00    -0.284 N 
ATOM     30  H   UNL     1       8.793  -5.265  -8.958  0.00  0.00    +0.155 HD
BRANCH  29  31
ATOM     31  C   UNL     1       9.963  -6.041  -7.445  0.00  0.00    +0.034 A 
ATOM     32  C   UNL     1      11.144  -5.351  -7.687  0.00  0.00    +0.026 A 
ATOM     33  C   UNL     1      12.315  -5.754  -7.076  0.00  0.00    +0.040 A 
ATOM     34  C   UNL     1      12.315  -6.851  -6.231  0.00  0.00    +0.124 A 
ATOM     35  C   UNL     1      11.139  -7.543  -5.993  0.00  0.00    +0.040 A 
ATOM     36  C   UNL     1       9.965  -7.140  -6.598  0.00  0.00    +0.026 A 
ATOM     37  F   UNL     1      13.462  -7.246  -5.638  0.00  0.00    -0.205 F 
ENDBRANCH  29  31
ENDBRANCH  26  27
ENDBRANCH  24  26
ENDBRANCH  21  22
ENDBRANCH  20  21
ENDBRANCH   1  20
TORSDOF 12
