REMARK  Name = ZINC09490861
REMARK  6 active torsions:
REMARK  status: ('A' for Active; 'I' for Inactive)
REMARK    1  A    between atoms: C_1  and  C_2
REMARK    2  A    between atoms: C_2  and  C_3
REMARK    3  A    between atoms: C_6  and  N_9
REMARK    4  A    between atoms: N_12  and  C_13
REMARK    5  A    between atoms: C_15  and  C_35
REMARK    6  A    between atoms: C_18  and  N_19
REMARK                            x       y       z     vdW  Elec       q    Type
REMARK                         _______ _______ _______ _____ _____    ______ ____
ROOT
ATOM      1  C   UNL     1       2.170   0.729   0.231  0.00  0.00    +0.057 A 
ATOM      2  C   UNL     1       2.027   2.029   0.677  0.00  0.00    +0.038 A 
ATOM      3  C   UNL     1       0.761   2.509   1.025  0.00  0.00    +0.039 A 
ATOM      4  C   UNL     1      -0.354   1.673   0.921  0.00  0.00    +0.015 A 
ATOM      5  C   UNL     1      -0.207   0.379   0.475  0.00  0.00    +0.026 A 
ATOM      6  C   UNL     1       1.051  -0.101   0.128  0.00  0.00    +0.051 A 
ENDROOT
BRANCH   6   7
ATOM      7  N   UNL     1       1.196  -1.411  -0.322  0.00  0.00    -0.328 N 
ATOM      8  C   UNL     1      -0.029  -2.184  -0.091  0.00  0.00    +0.110 C 
ATOM      9  C   UNL     1       0.144  -3.630  -0.530  0.00  0.00    +0.027 C 
ATOM     10  C   UNL     1       0.595  -3.707  -1.992  0.00  0.00    +0.018 C 
ATOM     11  C   UNL     1       1.892  -2.900  -2.118  0.00  0.00    +0.053 C 
ATOM     12  C   UNL     1       1.582  -1.441  -1.741  0.00  0.00    +0.114 C 
ATOM     13  C   UNL     1       2.901  -3.421  -1.119  0.00  0.00    +0.027 A 
ATOM     14  C   UNL     1       4.217  -3.257  -1.418  0.00  0.00    +0.022 A 
ATOM     15  C   UNL     1       5.207  -3.659  -0.514  0.00  0.00    +0.007 A 
ATOM     16  C   UNL     1       4.828  -4.199   0.679  0.00  0.00    +0.070 A 
ATOM     17  C   UNL     1       3.463  -4.357   0.955  0.00  0.00    +0.251 A 
ATOM     18  O   UNL     1       3.114  -4.796   2.038  0.00  0.00    -0.268 OA
ATOM     19  N   UNL     1       2.526  -4.027   0.031  0.00  0.00    -0.312 N 
ATOM     20  C   UNL     1       1.140  -4.374   0.344  0.00  0.00    +0.130 C 
ENDBRANCH   6   7
BRANCH   3  21
ATOM     21  C   UNL     1       0.603   3.896   1.503  0.00  0.00    +0.247 C 
ATOM     22  O   UNL     1       1.585   4.573   1.739  0.00  0.00    -0.270 OA
ATOM     23  N   UNL     1      -0.630   4.412   1.678  0.00  0.00    -0.298 N 
ATOM     24  C   UNL     1      -1.895   3.675   1.538  0.00  0.00    +0.108 C 
ATOM     25  C   UNL     1      -3.039   4.675   1.807  0.00  0.00    +0.020 C 
ATOM     26  C   UNL     1      -2.374   6.047   1.519  0.00  0.00    +0.020 C 
ATOM     27  C   UNL     1      -0.934   5.809   2.036  0.00  0.00    +0.108 C 
ENDBRANCH   3  21
BRANCH   1  31
ATOM     28  N   UNL     1       5.582   0.617  -0.966  0.00  0.00    -0.269 N 
ATOM     29  C   UNL     1       4.383   1.092  -0.573  0.00  0.00    +0.308 C 
ATOM     30  O   UNL     1       4.153   2.284  -0.627  0.00  0.00    -0.252 OA
ATOM     31  N   UNL     1       3.438   0.244  -0.120  0.00  0.00    -0.268 N 
ATOM     32  H   UNL     1       5.834  -0.441  -0.805  0.00  0.00    +0.156 HD
ATOM     33  H   UNL     1       3.662  -0.829  -0.025  0.00  0.00    +0.156 HD
BRANCH  28  37
ATOM     34  C   UNL     1       8.332   3.159  -2.791  0.00  0.00    -0.048 A 
ATOM     35  C   UNL     1       8.776   2.116  -2.000  0.00  0.00    +0.005 A 
ATOM     36  C   UNL     1       7.867   1.272  -1.394  0.00  0.00    +0.023 A 
ATOM     37  C   UNL     1       6.505   1.472  -1.579  0.00  0.00    +0.035 A 
ATOM     38  C   UNL     1       6.062   2.517  -2.377  0.00  0.00    +0.023 A 
ATOM     39  C   UNL     1       6.976   3.361  -2.978  0.00  0.00    +0.005 A 
BRANCH  34  41
ATOM     40  C   UNL     1       9.693   3.527  -4.831  0.00  0.00    +0.009 C 
ATOM     41  C   UNL     1       9.326   4.079  -3.452  0.00  0.00    +0.032 C 
ENDBRANCH  34  41
ENDBRANCH  28  37
ENDBRANCH   1  31
TORSDOF 5
