REMARK  Name = ZINC09264248
REMARK  4 active torsions:
REMARK  status: ('A' for Active; 'I' for Inactive)
REMARK    1  A    between atoms: C_1  and  C_2
REMARK    2  A    between atoms: C_5  and  N_8
REMARK    3  A    between atoms: C_21  and  C_23
REMARK    4  A    between atoms: C_33  and  C_36
REMARK                            x       y       z     vdW  Elec       q    Type
REMARK                         _______ _______ _______ _____ _____    ______ ____
ROOT
ATOM      1  N   UNL     1       3.227  -3.888   2.525  0.00  0.00    -0.269 N 
ATOM      2  C   UNL     1       2.231  -3.631   1.653  0.00  0.00    +0.312 C 
ATOM      3  O   UNL     1       1.144  -4.155   1.801  0.00  0.00    -0.252 OA
ATOM      4  N   UNL     1       2.441  -2.793   0.619  0.00  0.00    -0.242 N 
ATOM      5  C   UNL     1       3.693  -2.197   0.458  0.00  0.00    +0.060 A 
ATOM      6  C   UNL     1       4.193  -1.300   1.388  0.00  0.00    +0.025 A 
ATOM      7  C   UNL     1       5.418  -0.699   1.161  0.00  0.00    +0.002 A 
ATOM      8  C   UNL     1       6.138  -0.986   0.015  0.00  0.00    +0.002 A 
ATOM      9  C   UNL     1       5.650  -1.896  -0.907  0.00  0.00    +0.025 A 
ATOM     10  C   UNL     1       4.435  -2.515  -0.669  0.00  0.00    +0.053 A 
ATOM     11  N   UNL     1       3.941  -3.520  -1.492  0.00  0.00    -0.316 N 
ATOM     12  C   UNL     1       2.789  -3.446  -2.206  0.00  0.00    +0.017 C 
ATOM     13  C   UNL     1       1.614  -3.010  -1.718  0.00  0.00    +0.037 C 
ATOM     14  C   UNL     1       1.364  -2.525  -0.311  0.00  0.00    +0.148 C 
ATOM     15  C   UNL     1       0.468  -2.974  -2.548  0.00  0.00    +0.163 C 
ATOM     16  O   UNL     1      -0.585  -2.593  -2.077  0.00  0.00    -0.292 OA
ATOM     17  C   UNL     1       0.508  -3.391  -3.988  0.00  0.00    +0.091 C 
ATOM     18  C   UNL     1       1.922  -3.146  -4.527  0.00  0.00    +0.068 C 
ATOM     19  C   UNL     1       2.898  -3.921  -3.644  0.00  0.00    +0.063 C 
ATOM     20  H   UNL     1       4.072  -3.418   2.448  0.00  0.00    +0.156 HD
ATOM     21  H   UNL     1       4.458  -4.337  -1.561  0.00  0.00    +0.152 HD
ENDROOT
BRANCH   1  26
ATOM     22  C   UNL     1       2.476  -7.715   6.644  0.00  0.00    +0.044 C 
ATOM     23  C   UNL     1       2.676  -6.699   5.550  0.00  0.00    -0.050 A 
ATOM     24  C   UNL     1       3.909  -6.577   4.938  0.00  0.00    +0.005 A 
ATOM     25  C   UNL     1       4.096  -5.646   3.934  0.00  0.00    +0.023 A 
ATOM     26  C   UNL     1       3.042  -4.832   3.540  0.00  0.00    +0.035 A 
ATOM     27  C   UNL     1       1.805  -4.954   4.160  0.00  0.00    +0.023 A 
ATOM     28  C   UNL     1       1.624  -5.890   5.160  0.00  0.00    +0.005 A 
ENDBRANCH   1  26
BRANCH  14  29
ATOM     29  C   UNL     1       1.131  -1.036  -0.354  0.00  0.00    -0.022 A 
ATOM     30  C   UNL     1       2.151  -0.188  -0.740  0.00  0.00    +0.007 A 
ATOM     31  C   UNL     1       1.938   1.177  -0.780  0.00  0.00    +0.020 A 
ATOM     32  C   UNL     1       0.703   1.694  -0.432  0.00  0.00    +0.041 A 
ATOM     33  C   UNL     1      -0.318   0.844  -0.044  0.00  0.00    +0.020 A 
ATOM     34  C   UNL     1      -0.104  -0.520  -0.006  0.00  0.00    +0.007 A 
ATOM     35 CL   UNL     1       0.434   3.409  -0.481  0.00  0.00    -0.084 Cl
ENDBRANCH  14  29
BRANCH  18  36
ATOM     36  C   UNL     1       2.019  -3.636  -5.949  0.00  0.00    +0.109 A 
ATOM     37  C   UNL     1       2.357  -2.891  -7.017  0.00  0.00    +0.045 A 
ATOM     38  C   UNL     1       2.322  -3.747  -8.141  0.00  0.00    +0.041 A 
ATOM     39  C   UNL     1       1.965  -4.964  -7.693  0.00  0.00    +0.195 A 
ATOM     40  O   UNL     1       1.788  -4.892  -6.364  0.00  0.00    -0.468 OA
ENDBRANCH  18  36
TORSDOF 3
