REMARK  Name = ZINC43218993
REMARK  5 active torsions:
REMARK  status: ('A' for Active; 'I' for Inactive)
REMARK    1  A    between atoms: C_1  and  C_2
REMARK    2  A    between atoms: C_5  and  N_9
REMARK    3  A    between atoms: C_14  and  C_31
REMARK    4  A    between atoms: C_17  and  C_22
REMARK    5  A    between atoms: C_17  and  C_28
REMARK                            x       y       z     vdW  Elec       q    Type
REMARK                         _______ _______ _______ _____ _____    ______ ____
ROOT
ATOM      1  N   UNL     1       0.430  -4.037   0.705  0.00  0.00    -0.210 N 
ATOM      2  C   UNL     1       0.457  -4.545  -0.570  0.00  0.00    +0.229 C 
ATOM      3  O   UNL     1       0.782  -3.973  -1.588  0.00  0.00    -0.275 OA
ATOM      4  C   UNL     1       0.015  -5.911  -0.431  0.00  0.00    +0.079 C 
ATOM      5  C   UNL     1       0.068  -7.201  -1.139  0.00  0.00    -0.007 C 
ATOM      6  N   UNL     1      -0.464  -8.152  -0.102  0.00  0.00    +0.399 N 
ATOM      7  C   UNL     1      -0.255  -7.529   1.239  0.00  0.00    +0.074 C 
ATOM      8  C   UNL     1       0.632  -6.303   0.971  0.00  0.00    +0.091 C 
ATOM      9  C   UNL     1       0.301  -5.007   1.658  0.00  0.00    +0.229 C 
ATOM     10  O   UNL     1      -0.016  -4.856   2.818  0.00  0.00    -0.275 OA
ATOM     11  H   UNL     1      -1.448  -8.309  -0.256  0.00  0.00    -0.083 HD
ATOM     12  H   UNL     1       0.036  -9.027  -0.154  0.00  0.00    -0.083 HD
ENDROOT
BRANCH   1  17
ATOM     13  C   UNL     1       0.833   1.500   1.889  0.00  0.00    +0.045 C 
ATOM     14  C   UNL     1       0.726   0.030   1.575  0.00  0.00    -0.032 A 
ATOM     15  C   UNL     1       0.756  -0.399   0.261  0.00  0.00    +0.006 A 
ATOM     16  C   UNL     1       0.659  -1.745  -0.030  0.00  0.00    +0.024 A 
ATOM     17  C   UNL     1       0.530  -2.669   0.998  0.00  0.00    +0.045 A 
ATOM     18  C   UNL     1       0.500  -2.237   2.317  0.00  0.00    +0.044 A 
ATOM     19  C   UNL     1       0.603  -0.888   2.603  0.00  0.00    +0.046 A 
ATOM     20 CL   UNL     1       0.572  -0.346   4.251  0.00  0.00    -0.083 Cl
ENDBRANCH   1  17
BRANCH   7  21
ATOM     21  C   UNL     1      -1.577  -7.125   1.839  0.00  0.00    -0.047 A 
ATOM     22  C   UNL     1      -1.691  -6.949   3.205  0.00  0.00    +0.003 A 
ATOM     23  C   UNL     1      -2.904  -6.580   3.755  0.00  0.00    +0.000 A 
ATOM     24  C   UNL     1      -4.003  -6.385   2.939  0.00  0.00    +0.000 A 
ATOM     25  C   UNL     1      -3.888  -6.560   1.572  0.00  0.00    +0.000 A 
ATOM     26  C   UNL     1      -2.674  -6.926   1.022  0.00  0.00    +0.003 A 
ENDBRANCH   7  21
BRANCH   5  27
ATOM     27  C   UNL     1      -0.819  -7.182  -2.357  0.00  0.00    +0.028 A 
ATOM     28  C   UNL     1      -0.289  -7.500  -3.594  0.00  0.00    +0.021 A 
ATOM     29  C   UNL     1      -1.113  -7.480  -4.708  0.00  0.00    +0.003 A 
ATOM     30  C   UNL     1      -2.446  -7.139  -4.537  0.00  0.00    +0.020 A 
ATOM     31  C   UNL     1      -2.906  -6.834  -3.270  0.00  0.00    +0.111 A 
ATOM     32  N   UNL     1      -2.094  -6.869  -2.231  0.00  0.00    -0.262 NA
ENDBRANCH   5  27
BRANCH   7  33
ATOM     33  C   UNL     1       0.464  -8.487   2.153  0.00  0.00    +0.350 C 
ATOM     34  O   UNL     1       0.759  -9.602   1.758  0.00  0.00    -0.248 OA
ATOM     35  O   UNL     1       0.750  -8.148   3.289  0.00  0.00    -0.248 OA
ENDBRANCH   7  33
TORSDOF 4
