REMARK  Name = ZINC52634536
REMARK  9 active torsions:
REMARK  status: ('A' for Active; 'I' for Inactive)
REMARK    1  A    between atoms: C_4  and  C_7
REMARK    2  A    between atoms: C_7  and  O_8
REMARK    3  A    between atoms: O_8  and  C_9
REMARK    4  A    between atoms: N_11  and  C_12
REMARK    5  A    between atoms: C_12  and  C_14
REMARK    6  A    between atoms: C_12  and  C_24
REMARK    7  A    between atoms: C_14  and  C_15
REMARK    8  A    between atoms: N_26  and  C_27
REMARK    9  A    between atoms: C_27  and  C_28
REMARK                            x       y       z     vdW  Elec       q    Type
REMARK                         _______ _______ _______ _____ _____    ______ ____
ROOT
ATOM      1  C   UNL     1       7.040  -2.566   2.880  0.00  0.00    +0.166 C 
ENDROOT
BRANCH   1   4
ATOM      2  C   UNL     1       5.308  -1.599   1.465  0.00  0.00    +0.401 C 
ATOM      3  O   UNL     1       5.944  -1.955   0.493  0.00  0.00    -0.226 OA
ATOM      4  N   UNL     1       5.770  -1.857   2.704  0.00  0.00    -0.270 N 
ATOM      5  H   UNL     1       5.263  -1.572   3.481  0.00  0.00    +0.153 HD
BRANCH   2   6
ATOM      6  O   UNL     1       4.141  -0.946   1.304  0.00  0.00    -0.446 OA
BRANCH   6   7
ATOM      7  C   UNL     1       3.711  -0.707  -0.038  0.00  0.00    +0.269 C 
BRANCH   7  11
ATOM      8  C   UNL     1      -0.017   1.378   0.010  0.00  0.00    +0.000 A 
ATOM      9  C   UNL     1       1.171   2.086   0.002  0.00  0.00    +0.000 A 
ATOM     10  C   UNL     1       2.377   1.411  -0.013  0.00  0.00    +0.007 A 
ATOM     11  C   UNL     1       2.396   0.029  -0.020  0.00  0.00    -0.010 A 
ATOM     12  C   UNL     1       1.208  -0.679  -0.012  0.00  0.00    +0.007 A 
ATOM     13  C   UNL     1       0.002  -0.004   0.002  0.00  0.00    +0.000 A 
ENDBRANCH   7  11
ENDBRANCH   6   7
ENDBRANCH   2   6
ENDBRANCH   1   4
BRANCH   1  14
ATOM     14  C   UNL     1       7.048  -3.258   4.218  0.00  0.00    +0.234 C 
ATOM     15  O   UNL     1       6.088  -3.167   4.954  0.00  0.00    -0.274 OA
ATOM     16  N   UNL     1       8.122  -3.978   4.599  0.00  0.00    -0.310 N 
ATOM     17  H   UNL     1       8.890  -4.051   4.010  0.00  0.00    +0.149 HD
BRANCH  16  18
ATOM     18  C   UNL     1       8.130  -4.650   5.900  0.00  0.00    +0.151 C 
BRANCH  18  19
ATOM     19  C   UNL     1       9.456  -5.391   6.083  0.00  0.00    +0.228 C 
ATOM     20  C   UNL     1       9.485  -6.153   7.430  0.00  0.00    +0.115 C 
ATOM     21  C   UNL     1      10.921  -5.965   7.882  0.00  0.00    +0.126 C 
ATOM     22  N   UNL     1      11.443  -5.027   7.191  0.00  0.00    -0.082 NA
ATOM     23  O   UNL     1      10.548  -4.464   6.251  0.00  0.00    -0.388 OA
ATOM     24 BR   UNL     1      11.790  -6.953   9.240  0.00  0.00    -0.030 Br
ENDBRANCH  18  19
ENDBRANCH  16  18
ENDBRANCH   1  14
BRANCH   1  25
ATOM     25  C   UNL     1       8.196  -1.567   2.815  0.00  0.00    +0.065 C 
BRANCH  25  26
ATOM     26  C   UNL     1       8.263  -0.965   1.435  0.00  0.00    -0.038 C 
ATOM     27  C   UNL     1       7.714   0.203   1.028  0.00  0.00    +0.018 A 
ATOM     28  C   UNL     1       6.920   1.226   1.719  0.00  0.00    +0.013 A 
ATOM     29  C   UNL     1       6.516   2.304   0.996  0.00  0.00    +0.020 A 
ATOM     30  C   UNL     1       6.853   2.421  -0.356  0.00  0.00    +0.113 A 
ATOM     31  N   UNL     1       7.556   1.533  -1.002  0.00  0.00    -0.238 NA
ATOM     32  C   UNL     1       8.021   0.414  -0.405  0.00  0.00    +0.134 A 
ATOM     33  N   UNL     1       8.733  -0.586  -0.866  0.00  0.00    -0.365 N 
ATOM     34  C   UNL     1       8.963  -1.540   0.224  0.00  0.00    +0.146 C 
ATOM     35  H   UNL     1       9.056  -0.677  -1.776  0.00  0.00    +0.161 HD
ENDBRANCH  25  26
ENDBRANCH   1  25
TORSDOF 9
