REMARK  Name = ZINC20154391
REMARK  6 active torsions:
REMARK  status: ('A' for Active; 'I' for Inactive)
REMARK    1  A    between atoms: C_5  and  C_7
REMARK    2  A    between atoms: C_10  and  C_12
REMARK    3  A    between atoms: C_13  and  C_14
REMARK    4  A    between atoms: N_16  and  C_17
REMARK    5  A    between atoms: C_20  and  N_26
REMARK    6  A    between atoms: C_21  and  N_23
REMARK                            x       y       z     vdW  Elec       q    Type
REMARK                         _______ _______ _______ _____ _____    ______ ____
ROOT
ATOM      1  C   UNL     1      -1.694  -5.038   4.671  0.00  0.00    +0.241 C 
ATOM      2  O   UNL     1      -1.894  -5.021   5.872  0.00  0.00    -0.270 OA
ATOM      3  N   UNL     1      -1.958  -6.153   3.960  0.00  0.00    -0.282 N 
ATOM      4  H   UNL     1      -1.851  -6.145   2.865  0.00  0.00    +0.155 HD
ENDROOT
BRANCH   3   5
ATOM      5  C   UNL     1      -2.369  -7.320   4.615  0.00  0.00    +0.036 A 
ATOM      6  C   UNL     1      -1.969  -8.562   4.138  0.00  0.00    +0.025 A 
ATOM      7  C   UNL     1      -2.369  -9.713   4.787  0.00  0.00    +0.027 A 
ATOM      8  C   UNL     1      -3.182  -9.629   5.911  0.00  0.00    +0.060 A 
ATOM      9  C   UNL     1      -3.587  -8.388   6.384  0.00  0.00    +0.149 A 
ATOM     10  C   UNL     1      -3.182  -7.237   5.738  0.00  0.00    +0.058 A 
BRANCH   8  11
ATOM     11  N   UNL     1      -3.593 -10.796   6.565  0.00  0.00    -0.332 N 
ATOM     12  C   UNL     1      -4.353 -11.668   5.659  0.00  0.00    +0.086 C 
ATOM     13  C   UNL     1      -4.851 -12.892   6.431  0.00  0.00    -0.063 C 
ATOM     14  N   UNL     1      -3.702 -13.606   7.005  0.00  0.00    +0.381 N 
ATOM     15  C   UNL     1      -2.942 -12.734   7.911  0.00  0.00    -0.063 C 
ATOM     16  C   UNL     1      -2.444 -11.510   7.139  0.00  0.00    +0.086 C 
ATOM     17  H   UNL     1      -4.059 -14.479   7.571  0.00  0.00    -0.086 HD
ATOM     18  H   UNL     1      -3.037 -13.941   6.196  0.00  0.00    -0.086 HD
ENDBRANCH   8  11
BRANCH   9  19
ATOM     19  N   UNL     1      -4.453  -8.299   7.582  0.00  0.00    +0.058 N 
ATOM     20  O   UNL     1      -4.886  -7.219   7.941  0.00  0.00    -0.126 OA
ATOM     21  O   UNL     1      -4.732  -9.306   8.208  0.00  0.00    -0.126 OA
ENDBRANCH   9  19
ENDBRANCH   3   5
BRANCH   1  23
ATOM     22  C   UNL     1      -0.920  -2.767   4.738  0.00  0.00    +0.051 C 
ATOM     23  C   UNL     1      -1.186  -3.890   4.022  0.00  0.00    +0.071 C 
BRANCH  22  27
ATOM     24  C   UNL     1       0.324  -0.274   2.512  0.00  0.00    +0.137 A 
ATOM     25  C   UNL     1       0.367   0.434   3.691  0.00  0.00    +0.050 A 
ATOM     26  C   UNL     1      -0.099  -0.417   4.696  0.00  0.00    +0.050 A 
ATOM     27  C   UNL     1      -0.411  -1.619   4.089  0.00  0.00    +0.129 A 
ATOM     28  O   UNL     1      -0.153  -1.505   2.770  0.00  0.00    -0.455 OA
BRANCH  24  33
ATOM     29  C   UNL     1       1.970  -0.027  -0.853  0.00  0.00    +0.001 A 
ATOM     30  C   UNL     1       1.481   1.188  -1.303  0.00  0.00    +0.001 A 
ATOM     31  C   UNL     1       0.618   1.928  -0.516  0.00  0.00    +0.021 A 
ATOM     32  C   UNL     1       0.236   1.460   0.725  0.00  0.00    +0.052 A 
ATOM     33  C   UNL     1       0.726   0.234   1.186  0.00  0.00    +0.036 A 
ATOM     34  C   UNL     1       1.598  -0.508   0.385  0.00  0.00    +0.013 A 
ATOM     35 CL   UNL     1      -0.849   2.390   1.711  0.00  0.00    -0.083 Cl
ENDBRANCH  24  33
ENDBRANCH  22  27
ENDBRANCH   1  23
TORSDOF 6
