REMARK  Name = ZINC04884037
REMARK  8 active torsions:
REMARK  status: ('A' for Active; 'I' for Inactive)
REMARK    1  A    between atoms: C_1  and  C_2
REMARK    2  A    between atoms: C_2  and  O_3
REMARK    3  A    between atoms: O_3  and  C_4
REMARK    4  A    between atoms: C_4  and  C_6
REMARK    5  A    between atoms: C_6  and  C_26
REMARK    6  A    between atoms: C_11  and  C_13
REMARK    7  A    between atoms: C_16  and  O_19
REMARK    8  A    between atoms: N_22  and  C_25
REMARK                            x       y       z     vdW  Elec       q    Type
REMARK                         _______ _______ _______ _____ _____    ______ ____
ROOT
ATOM      1  C   UNL     1       0.145   0.983   4.903  0.00  0.00    +0.070 C 
ATOM      2  C   UNL     1      -0.358   2.102   5.839  0.00  0.00    +0.090 C 
ATOM      3  C   UNL     1       0.765   2.273   6.896  0.00  0.00    +0.077 C 
ATOM      4  C   UNL     1       1.842   1.241   6.500  0.00  0.00    -0.026 C 
ATOM      5  C   UNL     1       1.289   3.666   6.627  0.00  0.00    +0.224 C 
ATOM      6  O   UNL     1       2.186   4.207   7.238  0.00  0.00    -0.275 OA
ATOM      7  N   UNL     1       0.608   4.208   5.612  0.00  0.00    -0.245 N 
ATOM      8  C   UNL     1      -0.340   3.418   5.094  0.00  0.00    +0.225 C 
ATOM      9  O   UNL     1      -1.071   3.712   4.173  0.00  0.00    -0.275 OA
ATOM     10  C   UNL     1       0.878   5.557   5.107  0.00  0.00    +0.141 C 
ATOM     11  N   UNL     1       1.597   1.007   5.076  0.00  0.00    +0.398 N 
ATOM     12  H   UNL     1       2.009   1.762   4.516  0.00  0.00    -0.083 HD
ATOM     13  H   UNL     1       2.004   0.108   4.789  0.00  0.00    -0.083 HD
ENDROOT
BRANCH   4  14
ATOM     14  C   UNL     1       3.220   1.802   6.739  0.00  0.00    -0.060 A 
ATOM     15  C   UNL     1       3.783   2.666   5.818  0.00  0.00    +0.005 A 
ATOM     16  C   UNL     1       5.043   3.186   6.037  0.00  0.00    +0.045 A 
ATOM     17  C   UNL     1       5.750   2.831   7.177  0.00  0.00    +0.117 A 
ATOM     18  C   UNL     1       5.186   1.960   8.097  0.00  0.00    +0.045 A 
ATOM     19  C   UNL     1       3.922   1.447   7.876  0.00  0.00    +0.005 A 
BRANCH  17  20
ATOM     20  O   UNL     1       6.993   3.337   7.392  0.00  0.00    -0.507 OA
ATOM     21  H   UNL     1       7.706   2.799   7.023  0.00  0.00    +0.292 HD
ENDBRANCH  17  20
ENDBRANCH   4  14
BRANCH   1  22
ATOM     22  C   UNL     1      -0.408  -0.350   5.335  0.00  0.00    -0.047 A 
ATOM     23  C   UNL     1      -1.768  -0.504   5.529  0.00  0.00    +0.003 A 
ATOM     24  C   UNL     1      -2.276  -1.729   5.922  0.00  0.00    +0.000 A 
ATOM     25  C   UNL     1      -1.423  -2.797   6.129  0.00  0.00    +0.000 A 
ATOM     26  C   UNL     1      -0.062  -2.641   5.939  0.00  0.00    +0.000 A 
ATOM     27  C   UNL     1       0.445  -1.418   5.543  0.00  0.00    +0.003 A 
ENDBRANCH   1  22
BRANCH   1  28
ATOM     28  C   UNL     1      -0.245   1.275   3.478  0.00  0.00    +0.301 C 
ATOM     29  O   UNL     1      -1.254   0.796   3.017  0.00  0.00    -0.252 OA
BRANCH  28  30
ATOM     30  O   UNL     1       0.528   2.068   2.719  0.00  0.00    -0.466 OA
BRANCH  30  32
ATOM     31  C   UNL     1       1.091   3.225   0.651  0.00  0.00    +0.048 C 
ATOM     32  C   UNL     1       0.090   2.306   1.355  0.00  0.00    +0.228 C 
ENDBRANCH  30  32
ENDBRANCH  28  30
ENDBRANCH   1  28
TORSDOF 6
