REMARK  Name = ZINC39362588
REMARK  10 active torsions:
REMARK  status: ('A' for Active; 'I' for Inactive)
REMARK    1  A    between atoms: C_1  and  C_2
REMARK    2  A    between atoms: C_2  and  O_3
REMARK    3  A    between atoms: O_3  and  C_4
REMARK    4  A    between atoms: C_7  and  N_10
REMARK    5  A    between atoms: C_11  and  C_27
REMARK    6  A    between atoms: C_15  and  S_16
REMARK    7  A    between atoms: S_16  and  C_17
REMARK    8  A    between atoms: C_17  and  C_18
REMARK    9  A    between atoms: C_23  and  C_26
REMARK   10  A    between atoms: C_27  and  C_28
REMARK                            x       y       z     vdW  Elec       q    Type
REMARK                         _______ _______ _______ _____ _____    ______ ____
ROOT
ATOM      1  N   UNL     1       1.102  -5.937  -1.834  0.00  0.00    -0.258 N 
ATOM      2  C   UNL     1       1.663  -6.642  -3.000  0.00  0.00    +0.187 C 
ATOM      3  N   UNL     1       1.532  -8.066  -2.648  0.00  0.00    -0.246 N 
ATOM      4  N   UNL     1       0.940  -8.102  -1.380  0.00  0.00    -0.162 NA
ATOM      5  C   UNL     1       0.709  -6.915  -0.932  0.00  0.00    +0.180 C 
ATOM      6  H   UNL     1       1.801  -8.826  -3.188  0.00  0.00    +0.170 HD
ENDROOT
BRANCH   1  10
ATOM      7  C   UNL     1       0.777  -1.811  -1.337  0.00  0.00    +0.121 A 
ATOM      8  C   UNL     1       1.636  -2.541  -0.529  0.00  0.00    +0.047 A 
ATOM      9  C   UNL     1       1.744  -3.908  -0.693  0.00  0.00    +0.027 A 
ATOM     10  C   UNL     1       0.992  -4.551  -1.667  0.00  0.00    +0.038 A 
ATOM     11  C   UNL     1       0.132  -3.820  -2.476  0.00  0.00    +0.027 A 
ATOM     12  C   UNL     1       0.021  -2.454  -2.307  0.00  0.00    +0.047 A 
BRANCH   7  13
ATOM     13  O   UNL     1       0.671  -0.465  -1.175  0.00  0.00    -0.492 OA
BRANCH  13  15
ATOM     14  C   UNL     1       1.225   1.640  -0.126  0.00  0.00    +0.048 C 
ATOM     15  C   UNL     1       1.478   0.132  -0.158  0.00  0.00    +0.225 C 
ENDBRANCH  13  15
ENDBRANCH   7  13
ENDBRANCH   1  10
BRANCH   5  16
ATOM     16  S   UNL     1      -0.022  -6.575   0.635  0.00  0.00    -0.079 S 
BRANCH  16  17
ATOM     17  C   UNL     1      -0.312  -8.218   1.349  0.00  0.00    +0.173 C 
BRANCH  17  18
ATOM     18  C   UNL     1      -0.944  -8.070   2.709  0.00  0.00    +0.229 C 
ATOM     19  O   UNL     1      -1.175  -6.966   3.153  0.00  0.00    -0.275 OA
ATOM     20  N   UNL     1      -1.251  -9.165   3.432  0.00  0.00    -0.267 N 
ATOM     21  C   UNL     1      -1.835  -9.028   4.691  0.00  0.00    +0.168 A 
ATOM     22  C   UNL     1      -2.164  -7.811   5.327  0.00  0.00    +0.091 A 
ATOM     23  C   UNL     1      -2.707  -8.098   6.524  0.00  0.00    +0.136 A 
ATOM     24  O   UNL     1      -2.732  -9.433   6.662  0.00  0.00    -0.358 OA
ATOM     25  N   UNL     1      -2.181 -10.005   5.490  0.00  0.00    -0.063 NA
ATOM     26  C   UNL     1      -3.202  -7.095   7.534  0.00  0.00    +0.089 C 
ATOM     27  H   UNL     1      -1.066 -10.049   3.076  0.00  0.00    +0.156 HD
ENDBRANCH  17  18
ENDBRANCH  16  17
ENDBRANCH   5  16
BRANCH   2  28
ATOM     28  C   UNL     1       3.133  -6.267  -3.197  0.00  0.00    +0.097 C 
BRANCH  28  29
ATOM     29  C   UNL     1       3.648  -6.903  -4.463  0.00  0.00    +0.029 A 
ATOM     30  N   UNL     1       4.109  -8.191  -4.446  0.00  0.00    -0.311 N 
ATOM     31  C   UNL     1       4.571  -8.768  -5.570  0.00  0.00    +0.327 A 
ATOM     32  O   UNL     1       4.976  -9.914  -5.533  0.00  0.00    -0.247 OA
ATOM     33  N   UNL     1       4.589  -8.096  -6.736  0.00  0.00    -0.275 N 
ATOM     34  C   UNL     1       4.142  -6.825  -6.794  0.00  0.00    +0.254 A 
ATOM     35  O   UNL     1       4.159  -6.215  -7.848  0.00  0.00    -0.268 OA
ATOM     36  C   UNL     1       3.650  -6.207  -5.619  0.00  0.00    +0.091 A 
ATOM     37  H   UNL     1       4.925  -8.527  -7.537  0.00  0.00    +0.173 HD
ATOM     38  H   UNL     1       4.105  -8.693  -3.615  0.00  0.00    +0.170 HD
ENDBRANCH  28  29
ENDBRANCH   2  28
TORSDOF 8
