REMARK  Name = ZINC36357530
REMARK  3 active torsions:
REMARK  status: ('A' for Active; 'I' for Inactive)
REMARK    1  A    between atoms: C_5  and  C_7
REMARK    2  A    between atoms: C_11  and  C_12
REMARK    3  A    between atoms: C_17  and  O_19
REMARK                            x       y       z     vdW  Elec       q    Type
REMARK                         _______ _______ _______ _____ _____    ______ ____
ROOT
ATOM      1  C   UNL     1       1.248  -2.162  -0.023  0.00  0.00    +0.032 A 
ATOM      2  C   UNL     1       1.269  -2.909   1.158  0.00  0.00    +0.087 A 
ATOM      3  C   UNL     1       1.297  -4.290   1.012  0.00  0.00    +0.036 A 
ATOM      4  S   UNL     1       1.291  -4.578  -0.625  0.00  0.00    -0.082 S 
ATOM      5  C   UNL     1       1.249  -2.895  -1.214  0.00  0.00    +0.110 A 
ATOM      6  C   UNL     1       1.330  -5.245   2.161  0.00  0.00    +0.115 C 
ATOM      7  C   UNL     1       2.011  -4.558   3.347  0.00  0.00    +0.121 C 
ATOM      8  C   UNL     1       1.579  -3.124   3.452  0.00  0.00    +0.189 C 
ATOM      9  N   UNL     1       1.258  -2.381   2.446  0.00  0.00    -0.216 NA
ATOM     10  C   UNL     1      -0.041  -5.716   2.527  0.00  0.00    -0.006 A 
ATOM     11  C   UNL     1      -1.160  -5.032   2.950  0.00  0.00    +0.007 A 
ATOM     12  C   UNL     1      -2.299  -5.787   3.211  0.00  0.00    +0.000 A 
ATOM     13  C   UNL     1      -2.304  -7.158   3.054  0.00  0.00    +0.002 A 
ATOM     14  C   UNL     1      -1.182  -7.853   2.630  0.00  0.00    +0.023 A 
ATOM     15  C   UNL     1      -0.032  -7.107   2.365  0.00  0.00    +0.038 A 
ATOM     16  N   UNL     1       1.213  -7.534   1.936  0.00  0.00    -0.284 N 
ATOM     17  C   UNL     1       2.077  -6.507   1.791  0.00  0.00    +0.233 C 
ATOM     18  O   UNL     1       3.233  -6.582   1.431  0.00  0.00    -0.274 OA
ATOM     19  H   UNL     1       1.438  -8.461   1.762  0.00  0.00    +0.155 HD
ENDROOT
BRANCH   1  24
ATOM     20  C   UNL     1      -0.017   1.375   0.010  0.00  0.00    +0.001 A 
ATOM     21  C   UNL     1       1.170   2.087   0.002  0.00  0.00    +0.003 A 
ATOM     22  C   UNL     1       2.383   1.423  -0.013  0.00  0.00    +0.039 A 
ATOM     23  C   UNL     1       2.417   0.041  -0.022  0.00  0.00    +0.131 A 
ATOM     24  C   UNL     1       1.221  -0.683  -0.014  0.00  0.00    +0.021 A 
ATOM     25  C   UNL     1       0.002  -0.004   0.002  0.00  0.00    +0.011 A 
ATOM     26  F   UNL     1       3.602  -0.607  -0.038  0.00  0.00    -0.205 F 
ENDBRANCH   1  24
BRANCH   5  27
ATOM     27  C   UNL     1       1.225  -2.423  -2.546  0.00  0.00    +0.394 C 
ATOM     28  O   UNL     1       1.200  -1.218  -2.768  0.00  0.00    -0.240 OA
ATOM     29  O   UNL     1       1.230  -3.218  -3.478  0.00  0.00    -0.240 OA
ENDBRANCH   5  27
BRANCH   8  30
ATOM     30  O   UNL     1       1.524  -2.573   4.683  0.00  0.00    -0.495 OA
ATOM     31  H   UNL     1       1.240  -1.649   4.688  0.00  0.00    +0.293 HD
ENDBRANCH   8  30
TORSDOF 3
