REMARK  Name = ZINC24506865
REMARK  7 active torsions:
REMARK  status: ('A' for Active; 'I' for Inactive)
REMARK    1  A    between atoms: C_1  and  C_2
REMARK    2  A    between atoms: C_3  and  C_30
REMARK    3  A    between atoms: N_9  and  N_12
REMARK    4  A    between atoms: C_13  and  C_15
REMARK    5  A    between atoms: C_15  and  S_16
REMARK    6  A    between atoms: S_16  and  C_17
REMARK    7  A    between atoms: N_22  and  C_23
REMARK                            x       y       z     vdW  Elec       q    Type
REMARK                         _______ _______ _______ _____ _____    ______ ____
ROOT
ATOM      1  N   UNL     1       1.904   0.260  -0.267  0.00  0.00    -0.218 N 
ATOM      2  C   UNL     1       2.635   0.211  -1.397  0.00  0.00    +0.241 C 
ATOM      3  O   UNL     1       2.159   0.592  -2.445  0.00  0.00    -0.273 OA
ATOM      4  H   UNL     1       2.336  -0.086   0.684  0.00  0.00    +0.176 HD
ENDROOT
BRANCH   1  13
ATOM      5  C   UNL     1      -3.057  -1.816  -0.082  0.00  0.00    +0.045 C 
ATOM      6  C   UNL     1      -3.037  -0.314  -0.208  0.00  0.00    -0.026 A 
ATOM      7  C   UNL     1      -4.186   0.378  -0.266  0.00  0.00    -0.008 A 
ATOM      8  S   UNL     1      -3.642   2.071  -0.394  0.00  0.00    -0.073 S 
ATOM      9  C   UNL     1      -1.889   1.798  -0.379  0.00  0.00    +0.116 A 
ATOM     10  C   UNL     1      -1.776   0.401  -0.267  0.00  0.00    +0.077 A 
ATOM     11  C   UNL     1      -0.438  -0.111  -0.224  0.00  0.00    +0.280 A 
ATOM     12  O   UNL     1      -0.236  -1.309  -0.124  0.00  0.00    -0.265 OA
ATOM     13  N   UNL     1       0.592   0.752  -0.302  0.00  0.00    -0.212 N 
ATOM     14  C   UNL     1       0.387   2.090  -0.414  0.00  0.00    +0.223 A 
ATOM     15  N   UNL     1      -0.821   2.587  -0.450  0.00  0.00    -0.228 NA
ATOM     16  C   UNL     1      -5.597  -0.149  -0.223  0.00  0.00    +0.052 C 
ENDBRANCH   1  13
BRANCH   2  17
ATOM     17  C   UNL     1       4.046  -0.318  -1.360  0.00  0.00    +0.173 C 
BRANCH  17  18
ATOM     18  S   UNL     1       4.760  -0.256  -3.026  0.00  0.00    -0.088 S 
BRANCH  18  19
ATOM     19  C   UNL     1       6.387  -0.899  -2.817  0.00  0.00    +0.160 A 
ATOM     20  N   UNL     1       6.980  -1.334  -1.721  0.00  0.00    -0.133 NA
ATOM     21  N   UNL     1       8.273  -1.800  -1.782  0.00  0.00    -0.125 NA
ATOM     22  C   UNL     1       8.914  -1.811  -2.934  0.00  0.00    +0.187 A 
ATOM     23  S   UNL     1       7.672  -1.145  -4.033  0.00  0.00    -0.024 S 
ATOM     24  N   UNL     1      10.207  -2.233  -3.220  0.00  0.00    -0.292 N 
ATOM     25  H   UNL     1      10.626  -2.082  -4.226  0.00  0.00    +0.154 HD
BRANCH  24  26
ATOM     26  C   UNL     1      10.976  -2.850  -2.228  0.00  0.00    +0.033 A 
ATOM     27  C   UNL     1      12.363  -2.794  -2.287  0.00  0.00    +0.026 A 
ATOM     28  C   UNL     1      13.120  -3.398  -1.303  0.00  0.00    +0.040 A 
ATOM     29  C   UNL     1      12.498  -4.070  -0.264  0.00  0.00    +0.124 A 
ATOM     30  C   UNL     1      11.116  -4.132  -0.206  0.00  0.00    +0.040 A 
ATOM     31  C   UNL     1      10.354  -3.524  -1.184  0.00  0.00    +0.026 A 
ATOM     32  F   UNL     1      13.240  -4.666   0.695  0.00  0.00    -0.205 F 
ENDBRANCH  24  26
ENDBRANCH  18  19
ENDBRANCH  17  18
ENDBRANCH   2  17
TORSDOF 5
