REMARK  Name = ZINC08410868
REMARK  13 active torsions:
REMARK  status: ('A' for Active; 'I' for Inactive)
REMARK    1  A    between atoms: C_1  and  C_2
REMARK    2  A    between atoms: C_2  and  C_3
REMARK    3  A    between atoms: C_2  and  C_4
REMARK    4  A    between atoms: C_2  and  C_5
REMARK    5  A    between atoms: C_7  and  C_16
REMARK    6  A    between atoms: C_9  and  C_12
REMARK    7  A    between atoms: C_10  and  O_11
REMARK    8  A    between atoms: C_12  and  C_13
REMARK    9  A    between atoms: C_12  and  C_14
REMARK   10  A    between atoms: C_12  and  C_15
REMARK   11  A    between atoms: C_19  and  C_30
REMARK   12  A    between atoms: C_25  and  N_29
REMARK   13  A    between atoms: C_26  and  C_27
REMARK                            x       y       z     vdW  Elec       q    Type
REMARK                         _______ _______ _______ _____ _____    ______ ____
ROOT
ATOM      1  C   UNL     1       2.081   0.647  -4.297  0.00  0.00    +0.102 C 
ATOM      2  C   UNL     1       1.360   0.792  -5.612  0.00  0.00    +0.054 A 
ATOM      3  C   UNL     1       0.138   1.413  -5.886  0.00  0.00    +0.100 A 
ATOM      4  N   UNL     1      -0.097   1.294  -7.179  0.00  0.00    -0.171 NA
ATOM      5  N   UNL     1       0.972   0.593  -7.759  0.00  0.00    -0.246 N 
ATOM      6  H   UNL     1       1.061   0.363  -8.697  0.00  0.00    +0.192 HD
ATOM      7  C   UNL     1       1.854   0.296  -6.783  0.00  0.00    +0.223 A 
ATOM      8  O   UNL     1       3.036  -0.366  -6.857  0.00  0.00    -0.423 OA
ATOM      9  C   UNL     1       3.861  -0.293  -5.792  0.00  0.00    +0.200 C 
ATOM     10  C   UNL     1       3.484   0.169  -4.578  0.00  0.00    +0.098 C 
ENDROOT
BRANCH   3  11
ATOM     11  C   UNL     1      -0.741   2.087  -4.898  0.00  0.00    +0.003 A 
ATOM     12  C   UNL     1      -0.190   2.924  -3.929  0.00  0.00    +0.011 A 
ATOM     13  C   UNL     1      -1.011   3.549  -3.013  0.00  0.00    +0.016 A 
ATOM     14  C   UNL     1      -2.379   3.346  -3.055  0.00  0.00    +0.018 A 
ATOM     15  C   UNL     1      -2.931   2.515  -4.015  0.00  0.00    +0.016 A 
ATOM     16  C   UNL     1      -2.119   1.891  -4.939  0.00  0.00    +0.011 A 
ATOM     17 BR   UNL     1      -3.498   4.205  -1.796  0.00  0.00    -0.050 Br
ENDBRANCH   3  11
BRANCH   1  20
ATOM     18  C   UNL     1       0.186  -0.891  -1.417  0.00  0.00    -0.000 A 
ATOM     19  C   UNL     1       0.843   0.029  -2.212  0.00  0.00    +0.012 A 
ATOM     20  C   UNL     1       1.365  -0.358  -3.432  0.00  0.00    -0.034 A 
ATOM     21  C   UNL     1       1.230  -1.666  -3.861  0.00  0.00    +0.012 A 
ATOM     22  C   UNL     1       0.574  -2.589  -3.071  0.00  0.00    -0.000 A 
ATOM     23  C   UNL     1       0.054  -2.205  -1.843  0.00  0.00    +0.124 A 
BRANCH  18  25
ATOM     24  C   UNL     1      -0.066   1.008   0.157  0.00  0.00    +0.015 C 
ATOM     25  C   UNL     1      -0.383  -0.469  -0.087  0.00  0.00    -0.009 C 
ATOM     26  C   UNL     1       0.240  -1.315   1.025  0.00  0.00    +0.015 C 
ATOM     27  C   UNL     1      -1.899  -0.671  -0.093  0.00  0.00    +0.015 C 
ENDBRANCH  18  25
BRANCH  22  28
ATOM     28  C   UNL     1       0.427  -4.014  -3.539  0.00  0.00    -0.009 C 
ATOM     29  C   UNL     1       1.089  -4.171  -4.910  0.00  0.00    +0.015 C 
ATOM     30  C   UNL     1       1.103  -4.952  -2.537  0.00  0.00    +0.015 C 
ATOM     31  C   UNL     1      -1.058  -4.365  -3.646  0.00  0.00    +0.015 C 
ENDBRANCH  22  28
BRANCH  23  32
ATOM     32  O   UNL     1      -0.587  -3.113  -1.061  0.00  0.00    -0.506 OA
ATOM     33  H   UNL     1      -1.538  -3.172  -1.226  0.00  0.00    +0.292 HD
ENDBRANCH  23  32
ENDBRANCH   1  20
BRANCH   9  34
ATOM     34  N   UNL     1       5.158  -0.712  -5.950  0.00  0.00    -0.328 N 
ATOM     35  H   UNL     1       5.459  -1.048  -6.809  0.00  0.00    +0.145 HD
ATOM     36  H   UNL     1       5.775  -0.672  -5.202  0.00  0.00    +0.145 HD
ENDBRANCH   9  34
BRANCH  10  37
ATOM     37  C   UNL     1       4.450   0.204  -3.522  0.00  0.00    +0.101 C 
ATOM     38  N   UNL     1       5.217   0.232  -2.684  0.00  0.00    -0.191 NA
ENDBRANCH  10  37
TORSDOF 7
