REMARK  Name = ZINC36545410
REMARK  11 active torsions:
REMARK  status: ('A' for Active; 'I' for Inactive)
REMARK    1  A    between atoms: C_1  and  C_2
REMARK    2  A    between atoms: C_2  and  C_3
REMARK    3  A    between atoms: C_3  and  C_4
REMARK    4  A    between atoms: C_5  and  C_6
REMARK    5  A    between atoms: C_6  and  C_8
REMARK    6  A    between atoms: C_6  and  N_17
REMARK    7  A    between atoms: N_10  and  C_11
REMARK    8  A    between atoms: N_17  and  C_18
REMARK    9  A    between atoms: C_25  and  C_27
REMARK   10  A    between atoms: C_31  and  O_34
REMARK   11  A    between atoms: C_32  and  O_33
REMARK                            x       y       z     vdW  Elec       q    Type
REMARK                         _______ _______ _______ _____ _____    ______ ____
ROOT
ATOM      1  N   UNL     1       0.461  -4.434   1.190  0.00  0.00    -0.250 N 
ATOM      2  C   UNL     1       0.026  -4.524  -0.082  0.00  0.00    +0.255 C 
ATOM      3  O   UNL     1       0.776  -4.261  -1.002  0.00  0.00    -0.269 OA
ENDROOT
BRANCH   1   4
ATOM      4  C   UNL     1      -0.368  -4.836   2.243  0.00  0.00    +0.056 A 
ATOM      5  C   UNL     1      -1.144  -3.900   2.915  0.00  0.00    +0.025 A 
ATOM      6  C   UNL     1      -1.961  -4.301   3.954  0.00  0.00    +0.002 A 
ATOM      7  C   UNL     1      -2.007  -5.631   4.326  0.00  0.00    +0.002 A 
ATOM      8  C   UNL     1      -1.236  -6.566   3.660  0.00  0.00    +0.022 A 
ATOM      9  C   UNL     1      -0.420  -6.174   2.616  0.00  0.00    +0.062 A 
ATOM     10 CL   UNL     1       0.543  -7.349   1.776  0.00  0.00    -0.082 Cl
ENDBRANCH   1   4
BRANCH   2  11
ATOM     11  C   UNL     1      -1.361  -4.944  -0.359  0.00  0.00    +0.082 A 
ATOM     12  C   UNL     1      -2.429  -4.301   0.275  0.00  0.00    +0.017 A 
ATOM     13  C   UNL     1      -3.723  -4.695   0.013  0.00  0.00    +0.005 A 
ATOM     14  C   UNL     1      -3.974  -5.728  -0.876  0.00  0.00    +0.049 A 
ATOM     15  C   UNL     1      -2.927  -6.374  -1.511  0.00  0.00    +0.159 A 
ATOM     16  C   UNL     1      -1.615  -5.983  -1.262  0.00  0.00    +0.171 A 
BRANCH  16  17
ATOM     17  O   UNL     1      -0.586  -6.610  -1.888  0.00  0.00    -0.503 OA
ATOM     18  H   UNL     1      -0.243  -7.376  -1.409  0.00  0.00    +0.292 HD
ENDBRANCH  16  17
BRANCH  15  19
ATOM     19  O   UNL     1      -3.182  -7.387  -2.382  0.00  0.00    -0.503 OA
ATOM     20  H   UNL     1      -3.299  -7.098  -3.298  0.00  0.00    +0.292 HD
ENDBRANCH  15  19
ENDBRANCH   2  11
BRANCH   1  21
ATOM     21  C   UNL     1       1.802  -3.914   1.470  0.00  0.00    +0.190 C 
BRANCH  21  22
ATOM     22  C   UNL     1       2.829  -4.779   0.787  0.00  0.00    +0.238 C 
ATOM     23  O   UNL     1       2.476  -5.737   0.131  0.00  0.00    -0.273 OA
ATOM     24  N   UNL     1       4.140  -4.490   0.906  0.00  0.00    -0.311 N 
ATOM     25  H   UNL     1       4.422  -3.725   1.431  0.00  0.00    +0.149 HD
BRANCH  24  26
ATOM     26  C   UNL     1       5.139  -5.332   0.242  0.00  0.00    +0.073 C 
ATOM     27  C   UNL     1       5.472  -6.529   1.135  0.00  0.00    +0.022 C 
ATOM     28  C   UNL     1       6.515  -7.407   0.442  0.00  0.00    +0.002 C 
ATOM     29  C   UNL     1       7.784  -6.590   0.189  0.00  0.00    +0.000 C 
ATOM     30  C   UNL     1       7.450  -5.394  -0.704  0.00  0.00    +0.002 C 
ATOM     31  C   UNL     1       6.407  -4.515  -0.011  0.00  0.00    +0.022 C 
ENDBRANCH  24  26
ENDBRANCH  21  22
BRANCH  21  33
ATOM     32  C   UNL     1       0.852  -1.895   0.479  0.00  0.00    -0.029 C 
ATOM     33  C   UNL     1       1.911  -2.502   0.954  0.00  0.00    +0.001 C 
BRANCH  32  34
ATOM     34  C   UNL     1       0.946  -0.460   0.027  0.00  0.00    +0.027 C 
BRANCH  34  36
ATOM     35  C   UNL     1       0.552   1.108  -1.878  0.00  0.00    +0.004 C 
ATOM     36  C   UNL     1       0.457  -0.348  -1.419  0.00  0.00    +0.001 C 
ENDBRANCH  34  36
ENDBRANCH  32  34
ENDBRANCH  21  33
ENDBRANCH   1  21
TORSDOF 10
