REMARK  Name = ZINC19241073
REMARK  11 active torsions:
REMARK  status: ('A' for Active; 'I' for Inactive)
REMARK    1  A    between atoms: C_1  and  C_2
REMARK    2  A    between atoms: C_4  and  C_13
REMARK    3  A    between atoms: C_6  and  S_9
REMARK    4  A    between atoms: C_7  and  C_8
REMARK    5  A    between atoms: S_9  and  N_12
REMARK    6  A    between atoms: C_13  and  O_15
REMARK    7  A    between atoms: O_15  and  C_16
REMARK    8  A    between atoms: C_16  and  C_17
REMARK    9  A    between atoms: N_19  and  C_20
REMARK   10  A    between atoms: C_20  and  C_22
REMARK   11  A    between atoms: C_20  and  C_23
REMARK                            x       y       z     vdW  Elec       q    Type
REMARK                         _______ _______ _______ _____ _____    ______ ____
ROOT
ATOM      1  O   UNL     1       8.116   3.811   1.818  0.00  0.00    -0.452 OA
ENDROOT
BRANCH   1   2
ATOM      2  C   UNL     1       9.172   4.509   2.280  0.00  0.00    +0.340 C 
ATOM      3  O   UNL     1       9.128   5.722   2.319  0.00  0.00    -0.245 OA
BRANCH   2   7
ATOM      4  C   UNL     1      11.630   0.241   3.081  0.00  0.00    +0.044 C 
ATOM      5  C   UNL     1      11.570   1.747   3.127  0.00  0.00    -0.045 A 
ATOM      6  C   UNL     1      10.434   2.404   2.701  0.00  0.00    +0.018 A 
ATOM      7  C   UNL     1      10.383   3.798   2.739  0.00  0.00    +0.061 A 
ATOM      8  C   UNL     1      11.479   4.518   3.218  0.00  0.00    +0.043 A 
ATOM      9  C   UNL     1      12.607   3.849   3.646  0.00  0.00    +0.109 A 
ATOM     10  C   UNL     1      12.653   2.466   3.601  0.00  0.00    -0.021 A 
ATOM     11  C   UNL     1      13.888   1.741   4.070  0.00  0.00    +0.046 C 
BRANCH   9  12
ATOM     12  S   UNL     1      13.991   4.755   4.250  0.00  0.00    +0.056 S 
ATOM     13  O   UNL     1      15.136   4.240   3.584  0.00  0.00    -0.153 OA
ATOM     14  O   UNL     1      13.632   6.129   4.197  0.00  0.00    -0.153 OA
BRANCH  12  15
ATOM     15  N   UNL     1      14.165   4.373   5.853  0.00  0.00    -0.204 NA
ATOM     16  H   UNL     1      15.023   4.921   6.269  0.00  0.00    +0.144 HD
ATOM     17  H   UNL     1      14.335   3.292   5.955  0.00  0.00    +0.144 HD
ENDBRANCH  12  15
ENDBRANCH   9  12
ENDBRANCH   2   7
ENDBRANCH   1   2
BRANCH   1  18
ATOM     18  C   UNL     1       6.960   4.575   1.384  0.00  0.00    +0.328 C 
BRANCH  18  19
ATOM     19  C   UNL     1       5.887   3.633   0.904  0.00  0.00    +0.251 C 
ATOM     20  O   UNL     1       6.077   2.435   0.925  0.00  0.00    -0.272 OA
ATOM     21  N   UNL     1       4.715   4.121   0.450  0.00  0.00    -0.306 N 
ATOM     22  H   UNL     1       4.542   5.207   0.430  0.00  0.00    +0.149 HD
BRANCH  21  23
ATOM     23  C   UNL     1       3.671   3.205  -0.017  0.00  0.00    +0.101 C 
ATOM     24  C   UNL     1       3.898   2.885  -1.496  0.00  0.00    +0.033 C 
BRANCH  23  25
ATOM     25  C   UNL     1       2.321   3.851   0.157  0.00  0.00    -0.020 A 
ATOM     26  C   UNL     1       2.206   5.208   0.152  0.00  0.00    +0.006 A 
ATOM     27  C   UNL     1       0.967   5.823   0.311  0.00  0.00    +0.001 A 
ATOM     28  C   UNL     1      -0.166   5.086   0.475  0.00  0.00    +0.008 A 
ATOM     29  C   UNL     1      -0.087   3.683   0.484  0.00  0.00    -0.018 A 
ATOM     30  C   UNL     1       1.174   3.057   0.323  0.00  0.00    -0.013 A 
ATOM     31  C   UNL     1       1.253   1.654   0.333  0.00  0.00    +0.009 A 
ATOM     32  C   UNL     1       0.120   0.917   0.496  0.00  0.00    +0.001 A 
ATOM     33  C   UNL     1      -1.121   1.533   0.649  0.00  0.00    +0.001 A 
ATOM     34  C   UNL     1      -1.235   2.889   0.651  0.00  0.00    +0.008 A 
ENDBRANCH  23  25
ENDBRANCH  21  23
ENDBRANCH  18  19
ENDBRANCH   1  18
TORSDOF 8
