REMARK  Name = ZINC16608960
REMARK  11 active torsions:
REMARK  status: ('A' for Active; 'I' for Inactive)
REMARK    1  A    between atoms: C_1  and  C_2
REMARK    2  A    between atoms: C_3  and  C_27
REMARK    3  A    between atoms: C_4  and  C_11
REMARK    4  A    between atoms: N_9  and  C_10
REMARK    5  A    between atoms: C_14  and  N_17
REMARK    6  A    between atoms: C_18  and  C_20
REMARK    7  A    between atoms: C_27  and  O_29
REMARK    8  A    between atoms: O_29  and  C_30
REMARK    9  A    between atoms: C_30  and  C_31
REMARK   10  A    between atoms: C_31  and  C_32
REMARK   11  A    between atoms: C_31  and  C_33
REMARK                            x       y       z     vdW  Elec       q    Type
REMARK                         _______ _______ _______ _____ _____    ______ ____
ROOT
ATOM      1  C   UNL     1      -0.165   3.990   0.348  0.00  0.00    +0.061 C 
ATOM      2  C   UNL     1      -0.952   3.087   1.263  0.00  0.00    +0.021 C 
ATOM      3  C   UNL     1      -1.480   3.590   2.400  0.00  0.00    +0.078 C 
ATOM      4  C   UNL     1      -2.259   2.646   3.293  0.00  0.00    +0.141 C 
ATOM      5  N   UNL     1      -2.380   1.249   2.842  0.00  0.00    -0.315 N 
ATOM      6  C   UNL     1      -1.800   0.898   1.678  0.00  0.00    +0.137 C 
ATOM      7  S   UNL     1      -1.933  -0.722   1.141  0.00  0.00    -0.018 S 
ATOM      8  N   UNL     1      -1.123   1.776   0.926  0.00  0.00    -0.289 N 
ATOM      9  C   UNL     1      -0.527   1.300  -0.325  0.00  0.00    +0.137 C 
ATOM     10  H   UNL     1      -2.866   0.597   3.371  0.00  0.00    +0.149 HD
ENDROOT
BRANCH   4  11
ATOM     11  C   UNL     1      -1.601   2.641   4.649  0.00  0.00    -0.022 A 
ATOM     12  C   UNL     1      -0.571   1.756   4.913  0.00  0.00    +0.007 A 
ATOM     13  C   UNL     1       0.038   1.753   6.153  0.00  0.00    +0.023 A 
ATOM     14  C   UNL     1      -0.393   2.631   7.138  0.00  0.00    +0.034 A 
ATOM     15  C   UNL     1      -1.431   3.515   6.872  0.00  0.00    +0.023 A 
ATOM     16  C   UNL     1      -2.032   3.517   5.628  0.00  0.00    +0.007 A 
BRANCH  14  17
ATOM     17  N   UNL     1       0.218   2.627   8.397  0.00  0.00    -0.282 N 
ATOM     18  C   UNL     1       1.535   2.365   8.506  0.00  0.00    +0.248 C 
ATOM     19  O   UNL     1       2.210   2.214   7.506  0.00  0.00    -0.270 OA
ATOM     20  H   UNL     1      -0.307   2.811   9.191  0.00  0.00    +0.155 HD
BRANCH  18  21
ATOM     21  C   UNL     1       2.160   2.260   9.841  0.00  0.00    +0.037 A 
ATOM     22  C   UNL     1       1.389   2.438  10.991  0.00  0.00    +0.014 A 
ATOM     23  C   UNL     1       1.976   2.333  12.234  0.00  0.00    +0.016 A 
ATOM     24  C   UNL     1       3.330   2.064  12.343  0.00  0.00    +0.018 A 
ATOM     25  C   UNL     1       4.102   1.893  11.206  0.00  0.00    +0.016 A 
ATOM     26  C   UNL     1       3.525   1.989   9.957  0.00  0.00    +0.014 A 
ATOM     27 BR   UNL     1       4.130   1.930  14.052  0.00  0.00    -0.050 Br
ENDBRANCH  18  21
ENDBRANCH  14  17
ENDBRANCH   4  11
BRANCH   3  28
ATOM     28  C   UNL     1      -1.308   4.950   2.747  0.00  0.00    +0.339 C 
ATOM     29  O   UNL     1      -1.723   5.363   3.814  0.00  0.00    -0.245 OA
BRANCH  28  30
ATOM     30  O   UNL     1      -0.683   5.790   1.895  0.00  0.00    -0.461 OA
BRANCH  30  31
ATOM     31  C   UNL     1      -0.444   7.122   2.356  0.00  0.00    +0.235 C 
BRANCH  31  32
ATOM     32  C   UNL     1       0.375   7.883   1.312  0.00  0.00    +0.020 C 
ATOM     33  C   UNL     1      -0.420   7.977   0.008  0.00  0.00    +0.010 C 
ATOM     34  C   UNL     1       0.677   9.291   1.828  0.00  0.00    +0.010 C 
ENDBRANCH  31  32
ENDBRANCH  30  31
ENDBRANCH  28  30
ENDBRANCH   3  28
TORSDOF 7
