REMARK  Name = ZINC19754399
REMARK  7 active torsions:
REMARK  status: ('A' for Active; 'I' for Inactive)
REMARK    1  A    between atoms: C_1  and  C_2
REMARK    2  A    between atoms: C_2  and  C_3
REMARK    3  A    between atoms: C_2  and  C_4
REMARK    4  A    between atoms: C_4  and  C_5
REMARK    5  A    between atoms: N_7  and  C_8
REMARK    6  A    between atoms: C_9  and  C_21
REMARK    7  A    between atoms: C_16  and  C_18
REMARK                            x       y       z     vdW  Elec       q    Type
REMARK                         _______ _______ _______ _____ _____    ______ ____
ROOT
ATOM      1  C   UNL     1       0.896   5.854   3.450  0.00  0.00    +0.084 A 
ATOM      2  C   UNL     1      -0.242   6.599   3.726  0.00  0.00    +0.069 A 
ATOM      3  C   UNL     1      -1.374   5.903   4.315  0.00  0.00    -0.009 A 
ATOM      4  C   UNL     1      -1.188   4.583   4.531  0.00  0.00    -0.004 A 
ATOM      5  S   UNL     1       0.455   4.257   3.959  0.00  0.00    -0.077 S 
ATOM      6  C   UNL     1      -2.170   3.618   5.121  0.00  0.00    +0.043 C 
ATOM      7  C   UNL     1      -3.293   4.420   5.793  0.00  0.00    +0.006 C 
ATOM      8  C   UNL     1      -3.771   5.507   4.825  0.00  0.00    +0.020 C 
ATOM      9  C   UNL     1      -2.691   6.580   4.674  0.00  0.00    +0.134 C 
ENDROOT
BRANCH   2  10
ATOM     10  C   UNL     1      -0.299   8.035   3.435  0.00  0.00    +0.244 C 
ATOM     11  O   UNL     1      -0.591   8.418   2.317  0.00  0.00    -0.270 OA
ATOM     12  N   UNL     1      -0.029   8.930   4.405  0.00  0.00    -0.325 N 
ATOM     13  H   UNL     1      -0.072  10.008   4.186  0.00  0.00    +0.145 HD
ATOM     14  H   UNL     1       0.235   8.584   5.415  0.00  0.00    +0.145 HD
ENDBRANCH   2  10
BRANCH   1  17
ATOM     15  C   UNL     1       3.096   5.404   2.699  0.00  0.00    +0.218 C 
ATOM     16  O   UNL     1       2.953   4.240   3.008  0.00  0.00    -0.275 OA
ATOM     17  N   UNL     1       2.092   6.282   2.895  0.00  0.00    -0.279 N 
ATOM     18  H   UNL     1       2.223   7.337   2.615  0.00  0.00    +0.155 HD
BRANCH  15  19
ATOM     19  C   UNL     1       4.397   5.869   2.097  0.00  0.00    +0.099 C 
BRANCH  19  21
ATOM     20  C   UNL     1       4.796   3.663   0.993  0.00  0.00    +0.008 C 
ATOM     21  C   UNL     1       5.359   4.685   1.984  0.00  0.00    -0.008 C 
ATOM     22  C   UNL     1       6.720   5.178   1.489  0.00  0.00    +0.008 C 
ENDBRANCH  19  21
ENDBRANCH  15  19
ENDBRANCH   1  17
BRANCH   9  23
ATOM     23  C   UNL     1      -3.081   7.539   3.579  0.00  0.00    +0.363 C 
ATOM     24  O   UNL     1      -3.227   7.138   2.449  0.00  0.00    -0.246 OA
ATOM     25  O   UNL     1      -3.268   8.838   3.860  0.00  0.00    -0.246 OA
ENDBRANCH   9  23
TORSDOF 5
