REMARK  Name = ZINC39609106
REMARK  6 active torsions:
REMARK  status: ('A' for Active; 'I' for Inactive)
REMARK    1  A    between atoms: C_4  and  C_7
REMARK    2  A    between atoms: C_7  and  O_8
REMARK    3  A    between atoms: O_8  and  C_9
REMARK    4  A    between atoms: C_14  and  N_16
REMARK    5  A    between atoms: C_17  and  C_19
REMARK    6  A    between atoms: C_30  and  C_32
REMARK                            x       y       z     vdW  Elec       q    Type
REMARK                         _______ _______ _______ _____ _____    ______ ____
ROOT
ATOM      1  C   UNL     1       9.514   1.226   2.603  0.00  0.00    +0.100 C 
ATOM      2  C   UNL     1      10.442  -0.006   2.690  0.00  0.00    +0.121 C 
ATOM      3  N   UNL     1      11.649   0.482   3.398  0.00  0.00    -0.296 N 
ATOM      4  C   UNL     1      11.120   1.389   4.445  0.00  0.00    +0.115 C 
ATOM      5  C   UNL     1       9.962   2.139   3.757  0.00  0.00    -0.004 C 
ATOM      6  C   UNL     1       8.814   2.350   4.740  0.00  0.00    -0.010 C 
ATOM      7  C   UNL     1       9.265   3.307   5.847  0.00  0.00    -0.082 C 
ATOM      8  N   UNL     1       9.670   4.588   5.254  0.00  0.00    +0.379 N 
ATOM      9  C   UNL     1      10.834   4.390   4.382  0.00  0.00    -0.082 C 
ATOM     10  C   UNL     1      10.449   3.478   3.213  0.00  0.00    -0.010 C 
ATOM     11  C   UNL     1      12.936   0.172   3.146  0.00  0.00    +0.248 C 
ATOM     12  O   UNL     1      13.815   0.584   3.880  0.00  0.00    -0.270 OA
ATOM     13  H   UNL     1       8.906   4.963   4.713  0.00  0.00    -0.086 HD
ATOM     14  H   UNL     1       9.909   5.237   5.989  0.00  0.00    -0.086 HD
ENDROOT
BRANCH  11  15
ATOM     15  C   UNL     1      13.277  -0.662   1.987  0.00  0.00    +0.052 A 
ATOM     16  C   UNL     1      12.452  -1.659   1.575  0.00  0.00    +0.059 A 
ATOM     17  S   UNL     1      13.211  -2.345   0.246  0.00  0.00    -0.096 S 
ATOM     18  C   UNL     1      14.669  -1.342   0.165  0.00  0.00    +0.020 A 
ATOM     19  C   UNL     1      14.515  -0.442   1.236  0.00  0.00    +0.001 A 
ATOM     20  C   UNL     1      15.536   0.508   1.433  0.00  0.00    +0.010 A 
ATOM     21  C   UNL     1      16.626   0.539   0.598  0.00  0.00    +0.001 A 
ATOM     22  C   UNL     1      16.751  -0.356  -0.454  0.00  0.00    +0.001 A 
ATOM     23  C   UNL     1      15.770  -1.306  -0.664  0.00  0.00    +0.015 A 
ENDBRANCH  11  15
BRANCH   1  25
ATOM     24  N   UNL     1       7.091   1.529   2.208  0.00  0.00    -0.310 N 
ATOM     25  C   UNL     1       8.076   0.815   2.788  0.00  0.00    +0.218 C 
ATOM     26  O   UNL     1       7.805  -0.159   3.458  0.00  0.00    -0.275 OA
ATOM     27  H   UNL     1       7.308   2.308   1.672  0.00  0.00    +0.149 HD
BRANCH  24  32
ATOM     28  C   UNL     1       4.769   2.346   2.205  0.00  0.00    +0.139 C 
ATOM     29  C   UNL     1       3.840   2.022   1.017  0.00  0.00    +0.033 C 
ATOM     30  C   UNL     1       4.624   0.965   0.199  0.00  0.00    +0.004 C 
ATOM     31  C   UNL     1       5.292   0.106   1.302  0.00  0.00    +0.025 C 
ATOM     32  C   UNL     1       5.693   1.129   2.386  0.00  0.00    +0.102 C 
BRANCH  28  33
ATOM     33  O   UNL     1       3.996   2.554   3.389  0.00  0.00    -0.370 OA
BRANCH  33  34
ATOM     34  C   UNL     1       3.636   3.918   3.615  0.00  0.00    +0.195 C 
BRANCH  34  38
ATOM     35  C   UNL     1       1.344   4.211   7.207  0.00  0.00    +0.000 A 
ATOM     36  C   UNL     1       2.720   4.324   7.255  0.00  0.00    +0.000 A 
ATOM     37  C   UNL     1       3.462   4.229   6.093  0.00  0.00    +0.006 A 
ATOM     38  C   UNL     1       2.827   4.021   4.882  0.00  0.00    -0.022 A 
ATOM     39  C   UNL     1       1.451   3.907   4.835  0.00  0.00    +0.006 A 
ATOM     40  C   UNL     1       0.709   4.003   5.997  0.00  0.00    +0.000 A 
ENDBRANCH  34  38
ENDBRANCH  33  34
ENDBRANCH  28  33
ENDBRANCH  24  32
ENDBRANCH   1  25
TORSDOF 6
