REMARK  Name = ZINC31781094
REMARK  7 active torsions:
REMARK  status: ('A' for Active; 'I' for Inactive)
REMARK    1  A    between atoms: C_1  and  C_2
REMARK    2  A    between atoms: C_2  and  O_3
REMARK    3  A    between atoms: O_3  and  C_4
REMARK    4  A    between atoms: C_4  and  C_6
REMARK    5  A    between atoms: C_7  and  C_21
REMARK    6  A    between atoms: C_12  and  C_14
REMARK    7  A    between atoms: C_21  and  N_22
REMARK                            x       y       z     vdW  Elec       q    Type
REMARK                         _______ _______ _______ _____ _____    ______ ____
ROOT
ATOM      1  C   UNL     1      -2.795  -2.411   0.131  0.00  0.00    +0.080 C 
ATOM      2  C   UNL     1      -2.985  -3.731  -0.085  0.00  0.00    +0.044 C 
ATOM      3  N   UNL     1      -4.241  -4.255  -0.191  0.00  0.00    -0.271 N 
ATOM      4  C   UNL     1      -5.360  -3.526  -0.094  0.00  0.00    +0.304 C 
ATOM      5  O   UNL     1      -6.436  -4.082  -0.202  0.00  0.00    -0.252 OA
ATOM      6  N   UNL     1      -5.333  -2.195   0.120  0.00  0.00    -0.288 N 
ATOM      7  C   UNL     1      -4.024  -1.534   0.256  0.00  0.00    +0.144 C 
ATOM      8  H   UNL     1      -4.328  -5.208  -0.345  0.00  0.00    +0.156 HD
ATOM      9  H   UNL     1      -6.156  -1.686   0.186  0.00  0.00    +0.151 HD
ENDROOT
BRANCH   7  10
ATOM     10  C   UNL     1      -3.939  -0.462  -0.800  0.00  0.00    -0.022 A 
ATOM     11  C   UNL     1      -4.300  -0.746  -2.104  0.00  0.00    +0.007 A 
ATOM     12  C   UNL     1      -4.223   0.236  -3.073  0.00  0.00    +0.020 A 
ATOM     13  C   UNL     1      -3.783   1.505  -2.738  0.00  0.00    +0.041 A 
ATOM     14  C   UNL     1      -3.422   1.789  -1.433  0.00  0.00    +0.020 A 
ATOM     15  C   UNL     1      -3.506   0.807  -0.464  0.00  0.00    +0.007 A 
ATOM     16 CL   UNL     1      -3.685   2.739  -3.954  0.00  0.00    -0.084 Cl
ENDBRANCH   7  10
BRANCH   1  17
ATOM     17  C   UNL     1      -1.494  -1.867   0.241  0.00  0.00    +0.339 C 
ATOM     18  O   UNL     1      -1.034  -1.608   1.338  0.00  0.00    -0.245 OA
BRANCH  17  19
ATOM     19  O   UNL     1      -0.763  -1.636  -0.869  0.00  0.00    -0.462 OA
BRANCH  19  21
ATOM     20  C   UNL     1       1.214  -0.894  -2.044  0.00  0.00    +0.048 C 
ATOM     21  C   UNL     1       0.543  -1.085  -0.683  0.00  0.00    +0.229 C 
ENDBRANCH  19  21
ENDBRANCH  17  19
ENDBRANCH   1  17
BRANCH   2  22
ATOM     22  C   UNL     1      -1.789  -4.640  -0.210  0.00  0.00    +0.177 C 
BRANCH  22  23
ATOM     23  N   UNL     1      -1.771  -5.580   0.914  0.00  0.00    -0.293 N 
ATOM     24  C   UNL     1      -1.120  -5.246   2.059  0.00  0.00    +0.203 A 
ATOM     25  N   UNL     1      -1.058  -6.023   3.098  0.00  0.00    -0.237 NA
ATOM     26  C   UNL     1      -1.650  -7.243   3.108  0.00  0.00    +0.081 A 
ATOM     27  C   UNL     1      -1.585  -8.080   4.223  0.00  0.00    +0.067 A 
ATOM     28  C   UNL     1      -2.204  -9.313   4.185  0.00  0.00    +0.125 A 
ATOM     29  C   UNL     1      -2.891  -9.729   3.049  0.00  0.00    +0.039 A 
ATOM     30  C   UNL     1      -2.967  -8.926   1.946  0.00  0.00    +0.018 A 
ATOM     31  C   UNL     1      -2.351  -7.676   1.959  0.00  0.00    +0.065 A 
ATOM     32  C   UNL     1      -2.406  -6.769   0.804  0.00  0.00    +0.262 A 
ATOM     33  O   UNL     1      -2.997  -7.079  -0.215  0.00  0.00    -0.267 OA
ATOM     34  F   UNL     1      -2.143 -10.124   5.263  0.00  0.00    -0.205 F 
ENDBRANCH  22  23
ENDBRANCH   2  22
TORSDOF 6
