REMARK  Name = ZINC39380788
REMARK  6 active torsions:
REMARK  status: ('A' for Active; 'I' for Inactive)
REMARK    1  A    between atoms: C_5  and  C_7
REMARK    2  A    between atoms: C_9  and  C_21
REMARK    3  A    between atoms: N_12  and  C_14
REMARK    4  A    between atoms: C_21  and  N_22
REMARK    5  A    between atoms: N_22  and  C_23
REMARK    6  A    between atoms: C_23  and  C_24
REMARK                            x       y       z     vdW  Elec       q    Type
REMARK                         _______ _______ _______ _____ _____    ______ ____
ROOT
ATOM      1  C   UNL     1       1.229  -2.186  -0.022  0.00  0.00    +0.107 C 
ATOM      2  C   UNL     1       1.396  -2.731  -1.466  0.00  0.00    +0.014 C 
ATOM      3  C   UNL     1       0.691  -4.104  -1.352  0.00  0.00    +0.127 C 
ATOM      4  N   UNL     1      -0.172  -4.003  -0.165  0.00  0.00    -0.266 N 
ATOM      5  N   UNL     1      -0.097  -2.738   0.360  0.00  0.00    -0.232 NA
ATOM      6  H   UNL     1      -0.207  -2.754   1.363  0.00  0.00    +0.145 HD
ENDROOT
BRANCH   1  11
ATOM      7  C   UNL     1      -0.017   1.378   0.010  0.00  0.00    +0.000 A 
ATOM      8  C   UNL     1       1.171   2.086   0.002  0.00  0.00    +0.001 A 
ATOM      9  C   UNL     1       2.377   1.412  -0.013  0.00  0.00    +0.020 A 
ATOM     10  C   UNL     1       2.397   0.029  -0.021  0.00  0.00    +0.046 A 
ATOM     11  C   UNL     1       1.208  -0.679  -0.013  0.00  0.00    -0.010 A 
ATOM     12  C   UNL     1       0.002  -0.004   0.002  0.00  0.00    +0.006 A 
ATOM     13 CL   UNL     1       3.912  -0.818  -0.041  0.00  0.00    -0.083 Cl
ENDBRANCH   1  11
BRANCH   4  14
ATOM     14  C   UNL     1      -0.953  -5.041   0.352  0.00  0.00    +0.045 A 
ATOM     15  C   UNL     1      -0.946  -6.287  -0.260  0.00  0.00    +0.027 A 
ATOM     16  C   UNL     1      -1.718  -7.312   0.253  0.00  0.00    +0.040 A 
ATOM     17  C   UNL     1      -2.498  -7.097   1.377  0.00  0.00    +0.124 A 
ATOM     18  C   UNL     1      -2.506  -5.855   1.989  0.00  0.00    +0.040 A 
ATOM     19  C   UNL     1      -1.732  -4.829   1.483  0.00  0.00    +0.027 A 
ATOM     20  F   UNL     1      -3.252  -8.101   1.876  0.00  0.00    -0.205 F 
ENDBRANCH   4  14
BRANCH   2  21
ATOM     21  C   UNL     1       0.688  -1.830  -2.480  0.00  0.00    -0.076 C 
BRANCH  21  22
ATOM     22  N   UNL     1       0.968  -2.309  -3.840  0.00  0.00    +0.381 N 
ATOM     23  H   UNL     1       1.963  -2.286  -4.007  0.00  0.00    -0.086 HD
ATOM     24  H   UNL     1       0.633  -3.256  -3.939  0.00  0.00    -0.086 HD
BRANCH  22  25
ATOM     25  C   UNL     1       0.289  -1.444  -4.814  0.00  0.00    -0.049 C 
BRANCH  25  26
ATOM     26  C   UNL     1       0.580  -1.943  -6.230  0.00  0.00    +0.139 C 
ATOM     27  C   UNL     1      -0.251  -1.188  -7.247  0.00  0.00    -0.023 C 
ATOM     28  C   UNL     1      -1.009  -2.119  -7.824  0.00  0.00    +0.064 C 
ATOM     29  C   UNL     1      -1.898  -1.480  -8.876  0.00  0.00    +0.057 C 
ATOM     30  C   UNL     1      -1.877   0.031  -8.556  0.00  0.00    +0.011 C 
ATOM     31  C   UNL     1      -0.525   0.177  -7.822  0.00  0.00    +0.035 C 
ATOM     32  N   UNL     1      -0.740  -3.337  -7.281  0.00  0.00    -0.159 NA
ATOM     33  N   UNL     1       0.125  -3.334  -6.398  0.00  0.00    -0.181 NA
ENDBRANCH  25  26
ENDBRANCH  22  25
ENDBRANCH  21  22
ENDBRANCH   2  21
TORSDOF 6
