REMARK  Name = ZINC28466707
REMARK  8 active torsions:
REMARK  status: ('A' for Active; 'I' for Inactive)
REMARK    1  A    between atoms: C_1  and  C_2
REMARK    2  A    between atoms: C_3  and  C_27
REMARK    3  A    between atoms: C_4  and  C_17
REMARK    4  A    between atoms: C_22  and  O_23
REMARK    5  A    between atoms: O_23  and  C_24
REMARK    6  A    between atoms: C_27  and  O_29
REMARK    7  A    between atoms: O_29  and  C_30
REMARK    8  A    between atoms: C_30  and  C_31
REMARK                            x       y       z     vdW  Elec       q    Type
REMARK                         _______ _______ _______ _____ _____    ______ ____
ROOT
ATOM      1  C   UNL     1      -3.849   5.800  -0.687  0.00  0.00    +0.061 C 
ATOM      2  C   UNL     1      -2.516   5.205  -0.311  0.00  0.00    +0.017 C 
ATOM      3  C   UNL     1      -1.419   5.979  -0.325  0.00  0.00    +0.065 C 
ATOM      4  C   UNL     1      -0.068   5.440   0.049  0.00  0.00    +0.099 C 
ATOM      5  C   UNL     1      -0.067   3.937   0.029  0.00  0.00    +0.067 A 
ATOM      6  C   UNL     1      -1.233   3.232   0.032  0.00  0.00    +0.113 A 
ATOM      7  N   UNL     1      -1.194   1.859   0.018  0.00  0.00    -0.295 N 
ATOM      8  H   UNL     1      -2.131   1.282   0.014  0.00  0.00    +0.172 HD
ATOM      9  C   UNL     1      -0.014   1.212   0.009  0.00  0.00    +0.328 A 
ATOM     10  O   UNL     1       0.002  -0.004   0.002  0.00  0.00    -0.247 OA
ATOM     11  N   UNL     1       1.147   1.890   0.001  0.00  0.00    -0.275 N 
ATOM     12  H   UNL     1       2.103   1.345  -0.013  0.00  0.00    +0.173 HD
ATOM     13  C   UNL     1       1.153   3.238   0.011  0.00  0.00    +0.260 A 
ATOM     14  O   UNL     1       2.210   3.847   0.003  0.00  0.00    -0.267 OA
ATOM     15  N   UNL     1      -2.442   3.885   0.040  0.00  0.00    -0.304 N 
ATOM     16  H   UNL     1      -3.353   3.341   0.330  0.00  0.00    +0.153 HD
ENDROOT
BRANCH   4  17
ATOM     17  C   UNL     1       0.289   5.917   1.433  0.00  0.00    +0.007 A 
ATOM     18  C   UNL     1      -0.500   5.564   2.511  0.00  0.00    +0.008 A 
ATOM     19  C   UNL     1      -0.172   6.002   3.781  0.00  0.00    +0.001 A 
ATOM     20  C   UNL     1       0.945   6.793   3.976  0.00  0.00    +0.004 A 
ATOM     21  C   UNL     1       1.737   7.148   2.901  0.00  0.00    +0.046 A 
ATOM     22  C   UNL     1       1.413   6.706   1.627  0.00  0.00    +0.131 A 
BRANCH  22  23
ATOM     23  O   UNL     1       2.194   7.050   0.569  0.00  0.00    -0.434 OA
BRANCH  23  24
ATOM     24  C   UNL     1       3.336   7.865   0.842  0.00  0.00    +0.541 C 
ATOM     25  F   UNL     1       2.920   9.073   1.411  0.00  0.00    -0.166 F 
ATOM     26  F   UNL     1       4.183   7.196   1.733  0.00  0.00    -0.166 F 
ENDBRANCH  23  24
ENDBRANCH  22  23
ENDBRANCH   4  17
BRANCH   3  27
ATOM     27  C   UNL     1      -1.538   7.337  -0.701  0.00  0.00    +0.338 C 
ATOM     28  O   UNL     1      -2.625   7.791  -1.007  0.00  0.00    -0.245 OA
BRANCH  27  29
ATOM     29  O   UNL     1      -0.446   8.130  -0.720  0.00  0.00    -0.457 OA
BRANCH  29  30
ATOM     30  C   UNL     1      -0.640   9.491  -1.110  0.00  0.00    +0.259 C 
BRANCH  30  31
ATOM     31  C   UNL     1       0.680  10.217  -1.073  0.00  0.00    +0.006 C 
ATOM     32  C   UNL     1       1.022  11.006  -2.062  0.00  0.00    +0.007 C 
ENDBRANCH  30  31
ENDBRANCH  29  30
ENDBRANCH  27  29
ENDBRANCH   3  27
TORSDOF 7
