REMARK  Name = ZINC67617043
REMARK  3 active torsions:
REMARK  status: ('A' for Active; 'I' for Inactive)
REMARK    1  A    between atoms: C_4  and  C_7
REMARK    2  A    between atoms: C_10  and  N_12
REMARK    3  A    between atoms: N_15  and  C_16
REMARK                            x       y       z     vdW  Elec       q    Type
REMARK                         _______ _______ _______ _____ _____    ______ ____
ROOT
ATOM      1  N   UNL     1       5.363  -1.676  -1.719  0.00  0.00    -0.296 N 
ATOM      2  C   UNL     1       5.608  -2.039  -2.994  0.00  0.00    +0.300 C 
ATOM      3  O   UNL     1       4.683  -2.232  -3.759  0.00  0.00    -0.253 OA
ATOM      4  N   UNL     1       6.878  -2.187  -3.420  0.00  0.00    -0.288 N 
ATOM      5  H   UNL     1       6.101  -1.521  -1.108  0.00  0.00    +0.151 HD
ATOM      6  H   UNL     1       7.615  -2.033  -2.809  0.00  0.00    +0.151 HD
ENDROOT
BRANCH   4   7
ATOM      7  C   UNL     1       7.144  -2.582  -4.806  0.00  0.00    +0.160 C 
ATOM      8  C   UNL     1       8.590  -3.067  -4.934  0.00  0.00    +0.032 C 
ATOM      9  C   UNL     1       9.504  -2.280  -4.012  0.00  0.00    +0.004 C 
ATOM     10  C   UNL     1       9.649  -0.819  -4.394  0.00  0.00    +0.019 C 
ATOM     11  C   UNL     1       8.328  -0.071  -4.201  0.00  0.00    +0.104 C 
ATOM     12  N   UNL     1       7.520  -0.219  -5.422  0.00  0.00    -0.314 N 
ATOM     13  C   UNL     1       6.949  -1.391  -5.720  0.00  0.00    +0.233 C 
ATOM     14  O   UNL     1       6.280  -1.503  -6.725  0.00  0.00    -0.274 OA
ATOM     15  H   UNL     1       7.398   0.540  -6.014  0.00  0.00    +0.149 HD
ENDBRANCH   4   7
BRANCH   1  18
ATOM     16  C   UNL     1       3.741  -0.580  -0.068  0.00  0.00    +0.041 C 
ATOM     17  C   UNL     1       3.625  -2.095   0.115  0.00  0.00    +0.033 C 
ATOM     18  C   UNL     1       3.983  -1.514  -1.255  0.00  0.00    +0.082 C 
BRANCH  16  22
ATOM     19  C   UNL     1       0.123   1.691  -0.053  0.00  0.00    +0.000 A 
ATOM     20  C   UNL     1       1.345   2.337  -0.036  0.00  0.00    +0.000 A 
ATOM     21  C   UNL     1       2.516   1.602  -0.041  0.00  0.00    +0.004 A 
ATOM     22  C   UNL     1       2.465   0.221  -0.062  0.00  0.00    -0.042 A 
ATOM     23  C   UNL     1       1.243  -0.425  -0.077  0.00  0.00    +0.004 A 
ATOM     24  C   UNL     1       0.072   0.310  -0.074  0.00  0.00    +0.000 A 
ENDBRANCH  16  22
ENDBRANCH   1  18
TORSDOF 3
