REMARK  Name = ZINC02953125
REMARK  12 active torsions:
REMARK  status: ('A' for Active; 'I' for Inactive)
REMARK    1  A    between atoms: C_1  and  C_2
REMARK    2  A    between atoms: C_2  and  C_3
REMARK    3  A    between atoms: C_8  and  N_9
REMARK    4  A    between atoms: C_10  and  C_12
REMARK    5  A    between atoms: C_15  and  C_35
REMARK    6  A    between atoms: C_18  and  C_34
REMARK    7  A    between atoms: N_22  and  C_23
REMARK    8  A    between atoms: C_26  and  C_29
REMARK    9  A    between atoms: C_29  and  O_31
REMARK   10  A    between atoms: O_31  and  C_32
REMARK   11  A    between atoms: C_32  and  C_33
REMARK   12  A    between atoms: C_35  and  O_36
REMARK                            x       y       z     vdW  Elec       q    Type
REMARK                         _______ _______ _______ _____ _____    ______ ____
ROOT
ATOM      1  C   UNL     1       2.324   5.566   0.242  0.00  0.00    +0.098 A 
ATOM      2  C   UNL     1       3.402   6.154   0.893  0.00  0.00    +0.030 A 
ATOM      3  C   UNL     1       4.447   5.262   1.399  0.00  0.00    +0.027 A 
ATOM      4  C   UNL     1       5.435   5.710   2.284  0.00  0.00    +0.007 A 
ATOM      5  C   UNL     1       6.383   4.810   2.721  0.00  0.00    +0.117 A 
ATOM      6  N   UNL     1       6.369   3.552   2.321  0.00  0.00    -0.256 NA
ATOM      7  C   UNL     1       5.461   3.082   1.489  0.00  0.00    +0.081 A 
ATOM      8  C   UNL     1       4.466   3.913   0.993  0.00  0.00    +0.159 A 
ATOM      9  O   UNL     1       3.526   3.455   0.135  0.00  0.00    -0.437 OA
ATOM     10  C   UNL     1       2.329   4.093   0.134  0.00  0.00    +0.212 A 
ATOM     11  N   UNL     1       1.202   3.418   0.035  0.00  0.00    -0.325 N 
ATOM     12  C   UNL     1       5.504   1.634   1.074  0.00  0.00    +0.069 C 
ATOM     13  H   UNL     1       0.245   3.954  -0.048  0.00  0.00    +0.169 HD
ENDROOT
BRANCH  11  14
ATOM     14  C   UNL     1       1.222   2.056   0.034  0.00  0.00    +0.042 A 
ATOM     15  C   UNL     1       1.233   1.357  -1.179  0.00  0.00    +0.026 A 
ATOM     16  C   UNL     1       1.253  -0.007  -1.180  0.00  0.00    +0.017 A 
ATOM     17  C   UNL     1       1.263  -0.708   0.032  0.00  0.00    +0.059 A 
ATOM     18  C   UNL     1       1.253  -0.009   1.245  0.00  0.00    +0.017 A 
ATOM     19  C   UNL     1       1.232   1.355   1.246  0.00  0.00    +0.026 A 
BRANCH  17  20
ATOM     20  C   UNL     1       1.285  -2.180   0.032  0.00  0.00    +0.339 C 
ATOM     21  O   UNL     1       1.294  -2.787  -1.021  0.00  0.00    -0.245 OA
BRANCH  20  22
ATOM     22  O   UNL     1       1.295  -2.855   1.199  0.00  0.00    -0.461 OA
BRANCH  22  23
ATOM     23  C   UNL     1       1.316  -4.304   1.122  0.00  0.00    +0.229 C 
ATOM     24  C   UNL     1       1.325  -4.890   2.535  0.00  0.00    +0.048 C 
ENDBRANCH  22  23
ENDBRANCH  20  22
ENDBRANCH  17  20
ENDBRANCH  11  14
BRANCH   1  26
ATOM     25  N   UNL     1       0.190   5.769  -0.934  0.00  0.00    -0.281 N 
ATOM     26  C   UNL     1       1.222   6.373  -0.312  0.00  0.00    +0.253 C 
ATOM     27  O   UNL     1       1.244   7.585  -0.209  0.00  0.00    -0.270 OA
ATOM     28  H   UNL     1       0.132   4.671  -0.964  0.00  0.00    +0.155 HD
BRANCH  25  34
ATOM     29  C   UNL     1      -1.413   6.096  -2.710  0.00  0.00    -0.026 A 
ATOM     30  C   UNL     1      -2.401   6.856  -3.305  0.00  0.00    +0.005 A 
ATOM     31  C   UNL     1      -2.782   8.060  -2.742  0.00  0.00    +0.000 A 
ATOM     32  C   UNL     1      -2.178   8.505  -1.580  0.00  0.00    +0.002 A 
ATOM     33  C   UNL     1      -1.193   7.748  -0.978  0.00  0.00    +0.023 A 
ATOM     34  C   UNL     1      -0.808   6.538  -1.541  0.00  0.00    +0.037 A 
BRANCH  29  36
ATOM     35  C   UNL     1      -1.768   3.642  -2.668  0.00  0.00    +0.009 C 
ATOM     36  C   UNL     1      -0.995   4.786  -3.327  0.00  0.00    +0.033 C 
ENDBRANCH  29  36
ENDBRANCH  25  34
ENDBRANCH   1  26
BRANCH   4  37
ATOM     37  C   UNL     1       5.462   7.144   2.747  0.00  0.00    +0.193 C 
BRANCH  37  38
ATOM     38  O   UNL     1       6.562   7.337   3.638  0.00  0.00    -0.390 OA
ATOM     39  H   UNL     1       6.745   8.327   4.081  0.00  0.00    +0.210 HD
ENDBRANCH  37  38
ENDBRANCH   4  37
TORSDOF 9
