REMARK  Name = ZINC39205244
REMARK  5 active torsions:
REMARK  status: ('A' for Active; 'I' for Inactive)
REMARK    1  A    between atoms: C_7  and  C_10
REMARK    2  A    between atoms: N_11  and  N_12
REMARK    3  A    between atoms: C_13  and  C_15
REMARK    4  A    between atoms: C_17  and  C_28
REMARK    5  A    between atoms: C_31  and  N_34
REMARK                            x       y       z     vdW  Elec       q    Type
REMARK                         _______ _______ _______ _____ _____    ______ ____
ROOT
ATOM      1  C   UNL     1       4.480  -6.068  -0.377  0.00  0.00    +0.243 C 
ATOM      2  C   UNL     1       5.074  -5.708  -1.755  0.00  0.00    +0.167 C 
ATOM      3  N   UNL     1       5.622  -7.000  -2.210  0.00  0.00    -0.173 N 
ATOM      4  N   UNL     1       5.361  -7.939  -1.211  0.00  0.00    -0.076 NA
ATOM      5  N   UNL     1       4.766  -7.501  -0.228  0.00  0.00    -0.156 NA
ATOM      6  C   UNL     1       6.279  -7.238  -3.415  0.00  0.00    +0.228 A 
ATOM      7  C   UNL     1       6.815  -8.529  -3.860  0.00  0.00    +0.204 A 
ATOM      8  N   UNL     1       7.358  -8.364  -5.034  0.00  0.00    -0.032 NA
ATOM      9  O   UNL     1       7.205  -7.003  -5.397  0.00  0.00    -0.239 OA
ATOM     10  N   UNL     1       6.517  -6.354  -4.343  0.00  0.00    -0.030 NA
ATOM     11  N   UNL     1       6.754  -9.724  -3.151  0.00  0.00    -0.338 N 
ATOM     12  H   UNL     1       6.328  -9.750  -2.280  0.00  0.00    +0.144 HD
ATOM     13  H   UNL     1       7.138 -10.531  -3.528  0.00  0.00    +0.144 HD
ENDROOT
BRANCH   2  14
ATOM     14  C   UNL     1       6.165  -4.678  -1.615  0.00  0.00    -0.022 A 
ATOM     15  C   UNL     1       7.435  -5.064  -1.233  0.00  0.00    +0.008 A 
ATOM     16  C   UNL     1       8.436  -4.118  -1.105  0.00  0.00    +0.033 A 
ATOM     17  C   UNL     1       8.166  -2.787  -1.361  0.00  0.00    +0.126 A 
ATOM     18  C   UNL     1       6.895  -2.401  -1.744  0.00  0.00    +0.033 A 
ATOM     19  C   UNL     1       5.896  -3.347  -1.876  0.00  0.00    +0.008 A 
BRANCH  17  20
ATOM     20  N   UNL     1       9.237  -1.775  -1.223  0.00  0.00    +0.056 N 
ATOM     21  O   UNL     1      10.348  -2.112  -0.887  0.00  0.00    -0.126 OA
ATOM     22  O   UNL     1       9.001  -0.610  -1.446  0.00  0.00    -0.126 OA
ENDBRANCH  17  20
ENDBRANCH   2  14
BRANCH   1  24
ATOM     23  N   UNL     1       2.519  -4.578  -0.146  0.00  0.00    -0.205 N 
ATOM     24  C   UNL     1       2.994  -5.822  -0.360  0.00  0.00    +0.261 C 
ATOM     25  O   UNL     1       2.224  -6.741  -0.540  0.00  0.00    -0.272 OA
ATOM     26  H   UNL     1       3.135  -3.842  -0.003  0.00  0.00    +0.177 HD
BRANCH  23  28
ATOM     27  C   UNL     1       0.678  -3.126  -0.044  0.00  0.00    +0.136 C 
ATOM     28  N   UNL     1       1.137  -4.349  -0.132  0.00  0.00    -0.188 NA
BRANCH  27  35
ATOM     29  C   UNL     1      -0.046   1.346  -0.225  0.00  0.00    +0.001 A 
ATOM     30  C   UNL     1       1.127   2.099  -0.331  0.00  0.00    +0.002 A 
ATOM     31  C   UNL     1       2.349   1.517  -0.373  0.00  0.00    +0.026 A 
ATOM     32  C   UNL     1       2.460   0.102  -0.309  0.00  0.00    +0.043 A 
ATOM     33  N   UNL     1       3.510  -0.692  -0.331  0.00  0.00    -0.380 N 
ATOM     34  C   UNL     1       3.065  -2.086  -0.236  0.00  0.00    +0.150 C 
ATOM     35  C   UNL     1       1.556  -2.038  -0.150  0.00  0.00    +0.000 C 
ATOM     36  C   UNL     1       1.220  -0.687  -0.197  0.00  0.00    +0.004 A 
ATOM     37  C   UNL     1      -0.018  -0.009  -0.159  0.00  0.00    +0.010 A 
ATOM     38  H   UNL     1       4.433  -0.400  -0.400  0.00  0.00    +0.160 HD
ENDBRANCH  27  35
ENDBRANCH  23  28
ENDBRANCH   1  24
TORSDOF 5
