REMARK  Name = ZINC59914520
REMARK  14 active torsions:
REMARK  status: ('A' for Active; 'I' for Inactive)
REMARK    1  A    between atoms: C_1  and  C_2
REMARK    2  A    between atoms: C_3  and  C_11
REMARK    3  A    between atoms: C_4  and  C_10
REMARK    4  A    between atoms: N_5  and  C_7
REMARK    5  A    between atoms: C_7  and  C_8
REMARK    6  A    between atoms: C_8  and  O_9
REMARK    7  A    between atoms: N_12  and  N_13
REMARK    8  A    between atoms: C_17  and  S_20
REMARK    9  A    between atoms: N_18  and  N_19
REMARK   10  A    between atoms: S_20  and  C_21
REMARK   11  A    between atoms: C_21  and  C_22
REMARK   12  A    between atoms: N_24  and  C_25
REMARK   13  A    between atoms: C_28  and  O_31
REMARK   14  A    between atoms: O_31  and  C_32
REMARK                            x       y       z     vdW  Elec       q    Type
REMARK                         _______ _______ _______ _____ _____    ______ ____
ROOT
ATOM      1  N   UNL     1      -0.063   1.333  -4.149  0.00  0.00    -0.204 N 
ATOM      2  C   UNL     1      -0.079   2.690  -4.437  0.00  0.00    +0.254 A 
ATOM      3  N   UNL     1      -0.088   3.664  -3.560  0.00  0.00    -0.109 NA
ATOM      4  N   UNL     1      -0.104   4.878  -4.260  0.00  0.00    -0.119 NA
ATOM      5  C   UNL     1      -0.105   4.605  -5.543  0.00  0.00    +0.210 A 
ATOM      6  N   UNL     1      -0.084   3.247  -5.686  0.00  0.00    -0.211 N 
ATOM      7  H   UNL     1      -0.053   0.684  -4.870  0.00  0.00    +0.177 HD
ENDROOT
BRANCH   6   8
ATOM      8  N   UNL     1      -0.072   2.564  -6.870  0.00  0.00    -0.294 N 
ATOM      9  H   UNL     1      -1.011   2.371  -7.185  0.00  0.00    +0.163 HD
ATOM     10  H   UNL     1       0.450   3.067  -7.572  0.00  0.00    +0.163 HD
ENDBRANCH   6   8
BRANCH   1  12
ATOM     11  C   UNL     1      -0.045  -0.369  -2.548  0.00  0.00    +0.141 C 
ATOM     12  N   UNL     1      -0.060   0.900  -2.817  0.00  0.00    -0.187 NA
BRANCH  11  15
ATOM     13  C   UNL     1      -0.075   1.503   0.011  0.00  0.00    +0.068 C 
ATOM     14  C   UNL     1      -0.056  -0.004   0.003  0.00  0.00    +0.069 A 
ATOM     15  C   UNL     1      -0.043  -0.826  -1.144  0.00  0.00    +0.038 A 
ATOM     16  C   UNL     1      -0.026  -2.134  -0.710  0.00  0.00    +0.045 A 
ATOM     17  N   UNL     1      -0.030  -2.111   0.638  0.00  0.00    -0.266 N 
ATOM     18  N   UNL     1      -0.044  -0.776   1.056  0.00  0.00    -0.176 NA
ATOM     19  C   UNL     1      -0.009  -3.363  -1.582  0.00  0.00    +0.066 C 
BRANCH  17  20
ATOM     20  C   UNL     1      -0.017  -3.285   1.515  0.00  0.00    +0.171 C 
BRANCH  20  21
ATOM     21  C   UNL     1       1.430  -3.674   1.824  0.00  0.00    +0.179 C 
BRANCH  21  22
ATOM     22  O   UNL     1       1.443  -4.819   2.680  0.00  0.00    -0.393 OA
ATOM     23  H   UNL     1       2.330  -5.122   2.917  0.00  0.00    +0.209 HD
ENDBRANCH  21  22
ENDBRANCH  20  21
ENDBRANCH  17  20
ENDBRANCH  11  15
ENDBRANCH   1  12
BRANCH   5  24
ATOM     24  S   UNL     1      -0.123   5.784  -6.852  0.00  0.00    -0.075 S 
BRANCH  24  25
ATOM     25  C   UNL     1      -0.139   7.386  -6.000  0.00  0.00    +0.173 C 
BRANCH  25  26
ATOM     26  C   UNL     1      -0.155   8.496  -7.018  0.00  0.00    +0.227 C 
ATOM     27  O   UNL     1      -0.156   8.234  -8.202  0.00  0.00    -0.275 OA
ATOM     28  N   UNL     1      -0.169   9.782  -6.613  0.00  0.00    -0.285 N 
ATOM     29  H   UNL     1      -0.236   9.992  -5.669  0.00  0.00    +0.155 HD
BRANCH  28  30
ATOM     30  C   UNL     1      -0.086  10.815  -7.557  0.00  0.00    +0.034 A 
ATOM     31  C   UNL     1       0.604  11.980  -7.252  0.00  0.00    +0.027 A 
ATOM     32  C   UNL     1       0.685  12.997  -8.182  0.00  0.00    +0.048 A 
ATOM     33  C   UNL     1       0.078  12.855  -9.421  0.00  0.00    +0.130 A 
ATOM     34  C   UNL     1      -0.612  11.691  -9.726  0.00  0.00    +0.048 A 
ATOM     35  C   UNL     1      -0.689  10.670  -8.799  0.00  0.00    +0.027 A 
BRANCH  33  36
ATOM     36  O   UNL     1       0.158  13.857 -10.336  0.00  0.00    -0.406 OA
BRANCH  36  37
ATOM     37  C   UNL     1      -0.491  13.643 -11.591  0.00  0.00    +0.575 C 
ATOM     38  F   UNL     1      -1.858  13.435 -11.380  0.00  0.00    -0.133 F 
ATOM     39  F   UNL     1      -0.310  14.765 -12.407  0.00  0.00    -0.133 F 
ATOM     40  F   UNL     1       0.060  12.519 -12.215  0.00  0.00    -0.133 F 
ENDBRANCH  36  37
ENDBRANCH  33  36
ENDBRANCH  28  30
ENDBRANCH  25  26
ENDBRANCH  24  25
ENDBRANCH   5  24
TORSDOF 12
