REMARK  Name = ZINC28861981
REMARK  11 active torsions:
REMARK  status: ('A' for Active; 'I' for Inactive)
REMARK    1  A    between atoms: C_1  and  C_2
REMARK    2  A    between atoms: C_3  and  C_4
REMARK    3  A    between atoms: C_4  and  N_5
REMARK    4  A    between atoms: N_5  and  C_6
REMARK    5  A    between atoms: C_9  and  S_12
REMARK    6  A    between atoms: S_12  and  C_15
REMARK    7  A    between atoms: C_15  and  C_16
REMARK    8  A    between atoms: C_16  and  C_29
REMARK    9  A    between atoms: N_19  and  C_22
REMARK   10  A    between atoms: C_22  and  C_23
REMARK   11  A    between atoms: N_31  and  O_32
REMARK                            x       y       z     vdW  Elec       q    Type
REMARK                         _______ _______ _______ _____ _____    ______ ____
ROOT
ATOM      1  C   UNL     1      -4.592   3.747  -3.693  0.00  0.00    +0.065 C 
ATOM      2  C   UNL     1      -4.699   5.083  -2.953  0.00  0.00    -0.001 C 
ATOM      3  C   UNL     1      -4.173   4.913  -1.526  0.00  0.00    -0.077 C 
ATOM      4  N   UNL     1      -2.774   4.468  -1.569  0.00  0.00    +0.382 N 
ATOM      5  C   UNL     1      -2.653   3.164  -2.233  0.00  0.00    -0.077 C 
ATOM      6  C   UNL     1      -3.134   3.281  -3.681  0.00  0.00    -0.001 C 
ATOM      7  H   UNL     1      -2.207   5.200  -2.161  0.00  0.00    -0.081 HD
ENDROOT
BRANCH   1   8
ATOM      8  C   UNL     1      -5.456   2.720  -3.007  0.00  0.00    +0.243 C 
ATOM      9  O   UNL     1      -6.187   3.053  -2.099  0.00  0.00    -0.273 OA
ATOM     10  N   UNL     1      -5.415   1.432  -3.402  0.00  0.00    -0.197 N 
ATOM     11  H   UNL     1      -4.813   1.144  -4.277  0.00  0.00    +0.182 HD
BRANCH  10  12
ATOM     12  O   UNL     1      -6.147   0.450  -2.692  0.00  0.00    -0.295 OA
ATOM     13  H   UNL     1      -6.114  -0.601  -3.015  0.00  0.00    +0.241 HD
ENDBRANCH  10  12
ENDBRANCH   1   8
BRANCH   1  14
ATOM     14  C   UNL     1      -5.060   3.925  -5.139  0.00  0.00    +0.188 C 
BRANCH  14  15
ATOM     15  S   UNL     1      -6.818   4.373  -5.155  0.00  0.00    -0.002 S 
ATOM     16  O   UNL     1      -7.596   3.322  -4.601  0.00  0.00    -0.169 OA
ATOM     17  O   UNL     1      -6.985   5.712  -4.708  0.00  0.00    -0.169 OA
BRANCH  15  21
ATOM     18  C   UNL     1      -7.956   4.467  -9.538  0.00  0.00    +0.028 A 
ATOM     19  C   UNL     1      -8.078   3.289  -8.812  0.00  0.00    +0.025 A 
ATOM     20  C   UNL     1      -7.730   3.264  -7.476  0.00  0.00    +0.029 A 
ATOM     21  C   UNL     1      -7.260   4.410  -6.860  0.00  0.00    +0.088 A 
ATOM     22  C   UNL     1      -7.142   5.585  -7.578  0.00  0.00    +0.029 A 
ATOM     23  C   UNL     1      -7.483   5.616  -8.916  0.00  0.00    +0.025 A 
BRANCH  18  24
ATOM     24  N   UNL     1      -8.306   4.496 -10.889  0.00  0.00    -0.333 N 
ATOM     25  H   UNL     1      -8.680   3.585 -11.380  0.00  0.00    +0.147 HD
BRANCH  24  26
ATOM     26  C   UNL     1      -8.176   5.739 -11.653  0.00  0.00    +0.191 C 
BRANCH  26  29
ATOM     27  C   UNL     1      -9.378   5.095 -15.539  0.00  0.00    +0.106 C 
ATOM     28  C   UNL     1      -8.948   5.325 -14.150  0.00  0.00    -0.104 C 
ATOM     29  C   UNL     1      -8.606   5.509 -13.042  0.00  0.00    -0.084 C 
ENDBRANCH  26  29
ENDBRANCH  24  26
ENDBRANCH  18  24
ENDBRANCH  15  21
ENDBRANCH  14  15
ENDBRANCH   1  14
BRANCH   4  30
ATOM     30  C   UNL     1      -2.193   4.427  -0.220  0.00  0.00    -0.043 C 
BRANCH  30  31
ATOM     31  C   UNL     1      -0.854   3.739  -0.270  0.00  0.00    -0.061 A 
ATOM     32  C   UNL     1      -0.754   2.366  -0.103  0.00  0.00    +0.021 A 
ATOM     33  C   UNL     1       0.492   1.771  -0.151  0.00  0.00    +0.111 A 
ATOM     34  N   UNL     1       1.576   2.491  -0.363  0.00  0.00    -0.263 NA
ATOM     35  C   UNL     1       1.519   3.798  -0.532  0.00  0.00    +0.111 A 
ATOM     36  C   UNL     1       0.308   4.463  -0.491  0.00  0.00    +0.021 A 
ENDBRANCH  30  31
ENDBRANCH   4  30
TORSDOF 10
