REMARK  Name = ZINC36588649
REMARK  13 active torsions:
REMARK  status: ('A' for Active; 'I' for Inactive)
REMARK    1  A    between atoms: C_1  and  C_2
REMARK    2  A    between atoms: C_2  and  C_3
REMARK    3  A    between atoms: C_2  and  C_4
REMARK    4  A    between atoms: C_2  and  N_5
REMARK    5  A    between atoms: N_5  and  C_6
REMARK    6  A    between atoms: C_6  and  C_8
REMARK    7  A    between atoms: C_6  and  C_15
REMARK    8  A    between atoms: C_13  and  O_14
REMARK    9  A    between atoms: N_17  and  C_18
REMARK   10  A    between atoms: C_24  and  C_26
REMARK   11  A    between atoms: C_26  and  C_27
REMARK   12  A    between atoms: C_26  and  C_33
REMARK   13  A    between atoms: C_26  and  O_39
REMARK                            x       y       z     vdW  Elec       q    Type
REMARK                         _______ _______ _______ _____ _____    ______ ____
ROOT
ATOM      1  N   UNL     1       0.603  -0.619  -0.426  0.00  0.00    -0.278 N 
ATOM      2  C   UNL     1       0.448  -1.733  -1.169  0.00  0.00    +0.258 C 
ATOM      3  O   UNL     1       1.416  -2.394  -1.479  0.00  0.00    -0.272 OA
ENDROOT
BRANCH   1   5
ATOM      4  C   UNL     1      -1.018   1.051  -1.177  0.00  0.00    +0.031 C 
ATOM      5  C   UNL     1      -0.570   0.159  -0.018  0.00  0.00    +0.030 C 
ATOM      6  C   UNL     1      -0.210   1.030   1.187  0.00  0.00    +0.031 C 
ATOM      7  C   UNL     1      -1.706  -0.793   0.362  0.00  0.00    +0.031 C 
ENDBRANCH   1   5
BRANCH   1   8
ATOM      8  C   UNL     1       1.944  -0.186  -0.026  0.00  0.00    +0.196 C 
BRANCH   8   9
ATOM      9  C   UNL     1       2.559  -1.226   0.876  0.00  0.00    +0.023 A 
ATOM     10  C   UNL     1       2.148  -2.542   0.795  0.00  0.00    +0.009 A 
ATOM     11  C   UNL     1       2.711  -3.496   1.622  0.00  0.00    +0.001 A 
ATOM     12  C   UNL     1       3.687  -3.135   2.533  0.00  0.00    +0.004 A 
ATOM     13  C   UNL     1       4.102  -1.820   2.618  0.00  0.00    +0.046 A 
ATOM     14  C   UNL     1       3.542  -0.862   1.785  0.00  0.00    +0.122 A 
BRANCH  14  15
ATOM     15  O   UNL     1       3.953   0.431   1.862  0.00  0.00    -0.506 OA
ATOM     16  H   UNL     1       3.451   0.966   2.492  0.00  0.00    +0.292 HD
ENDBRANCH  14  15
ENDBRANCH   8   9
BRANCH   8  17
ATOM     17  C   UNL     1       2.803  -0.014  -1.252  0.00  0.00    +0.238 C 
ATOM     18  O   UNL     1       2.320  -0.153  -2.355  0.00  0.00    -0.273 OA
ATOM     19  N   UNL     1       4.109   0.295  -1.122  0.00  0.00    -0.311 N 
ATOM     20  H   UNL     1       4.495   0.407  -0.239  0.00  0.00    +0.149 HD
BRANCH  19  21
ATOM     21  C   UNL     1       4.944   0.463  -2.314  0.00  0.00    +0.073 C 
ATOM     22  C   UNL     1       5.463  -0.902  -2.769  0.00  0.00    +0.022 C 
ATOM     23  C   UNL     1       6.335  -0.727  -4.014  0.00  0.00    +0.002 C 
ATOM     24  C   UNL     1       7.518   0.184  -3.684  0.00  0.00    +0.000 C 
ATOM     25  C   UNL     1       6.999   1.550  -3.229  0.00  0.00    +0.002 C 
ATOM     26  C   UNL     1       6.127   1.375  -1.984  0.00  0.00    +0.022 C 
ENDBRANCH  19  21
ENDBRANCH   8  17
ENDBRANCH   1   8
BRANCH   2  27
ATOM     27  C   UNL     1      -0.928  -2.156  -1.614  0.00  0.00    +0.192 C 
BRANCH  27  28
ATOM     28  C   UNL     1      -1.558  -1.048  -2.420  0.00  0.00    -0.003 A 
ATOM     29  C   UNL     1      -0.836  -0.425  -3.420  0.00  0.00    +0.007 A 
ATOM     30  C   UNL     1      -1.414   0.591  -4.159  0.00  0.00    +0.000 A 
ATOM     31  C   UNL     1      -2.713   0.983  -3.897  0.00  0.00    +0.000 A 
ATOM     32  C   UNL     1      -3.436   0.358  -2.898  0.00  0.00    +0.000 A 
ATOM     33  C   UNL     1      -2.860  -0.661  -2.162  0.00  0.00    +0.007 A 
ENDBRANCH  27  28
BRANCH  27  34
ATOM     34  C   UNL     1      -0.822  -3.396  -2.463  0.00  0.00    -0.003 A 
ATOM     35  C   UNL     1       0.305  -3.613  -3.233  0.00  0.00    +0.007 A 
ATOM     36  C   UNL     1       0.402  -4.751  -4.012  0.00  0.00    +0.000 A 
ATOM     37  C   UNL     1      -0.628  -5.673  -4.020  0.00  0.00    +0.000 A 
ATOM     38  C   UNL     1      -1.755  -5.457  -3.249  0.00  0.00    +0.000 A 
ATOM     39  C   UNL     1      -1.850  -4.321  -2.467  0.00  0.00    +0.007 A 
ENDBRANCH  27  34
BRANCH  27  40
ATOM     40  O   UNL     1      -1.736  -2.430  -0.468  0.00  0.00    -0.371 OA
ATOM     41  H   UNL     1      -1.434  -3.185   0.055  0.00  0.00    +0.212 HD
ENDBRANCH  27  40
ENDBRANCH   2  27
TORSDOF 10
