REMARK  Name = ZINC09284735
REMARK  12 active torsions:
REMARK  status: ('A' for Active; 'I' for Inactive)
REMARK    1  A    between atoms: C_1  and  C_2
REMARK    2  A    between atoms: C_2  and  O_3
REMARK    3  A    between atoms: O_3  and  C_4
REMARK    4  A    between atoms: N_10  and  C_30
REMARK    5  A    between atoms: N_12  and  C_13
REMARK    6  A    between atoms: C_13  and  C_15
REMARK    7  A    between atoms: C_18  and  S_21
REMARK    8  A    between atoms: S_21  and  N_24
REMARK    9  A    between atoms: C_30  and  C_31
REMARK   10  A    between atoms: C_31  and  C_32
REMARK   11  A    between atoms: C_32  and  O_34
REMARK   12  A    between atoms: O_34  and  C_35
REMARK                            x       y       z     vdW  Elec       q    Type
REMARK                         _______ _______ _______ _____ _____    ______ ____
ROOT
ATOM      1  C   UNL     1      -3.895   1.716   2.537  0.00  0.00    +0.145 A 
ATOM      2  C   UNL     1      -4.625   2.122   3.635  0.00  0.00    +0.048 A 
ATOM      3  C   UNL     1      -5.826   2.794   3.487  0.00  0.00    +0.005 A 
ATOM      4  C   UNL     1      -6.300   3.062   2.215  0.00  0.00    +0.017 A 
ATOM      5  C   UNL     1      -5.574   2.659   1.118  0.00  0.00    +0.042 A 
ATOM      6  C   UNL     1      -4.358   1.972   1.232  0.00  0.00    +0.100 A 
ATOM      7  N   UNL     1      -3.757   1.645   0.029  0.00  0.00    -0.318 N 
ATOM      8  C   UNL     1      -4.356   1.983  -1.144  0.00  0.00    +0.167 A 
ATOM      9  N   UNL     1      -3.933   1.749  -2.382  0.00  0.00    -0.152 NA
ATOM     10  S   UNL     1      -5.804   2.791  -0.637  0.00  0.00    -0.052 S 
ENDROOT
BRANCH   9  11
ATOM     11  C   UNL     1      -4.662   2.159  -3.426  0.00  0.00    +0.269 C 
ATOM     12  O   UNL     1      -5.713   2.747  -3.241  0.00  0.00    -0.268 OA
BRANCH  11  13
ATOM     13  C   UNL     1      -4.191   1.898  -4.806  0.00  0.00    +0.039 A 
ATOM     14  C   UNL     1      -2.985   1.231  -5.020  0.00  0.00    +0.015 A 
ATOM     15  C   UNL     1      -2.554   0.986  -6.308  0.00  0.00    +0.029 A 
ATOM     16  C   UNL     1      -3.310   1.412  -7.385  0.00  0.00    +0.106 A 
ATOM     17  C   UNL     1      -4.504   2.079  -7.179  0.00  0.00    +0.029 A 
ATOM     18  C   UNL     1      -4.948   2.325  -5.896  0.00  0.00    +0.015 A 
BRANCH  16  19
ATOM     19  S   UNL     1      -2.749   1.102  -9.027  0.00  0.00    +0.061 S 
ATOM     20  O   UNL     1      -1.877  -0.017  -8.954  0.00  0.00    -0.153 OA
ATOM     21  O   UNL     1      -3.901   1.118  -9.859  0.00  0.00    -0.153 OA
BRANCH  19  22
ATOM     22  N   UNL     1      -1.821   2.397  -9.479  0.00  0.00    -0.177 NA
ATOM     23  C   UNL     1      -2.311   3.608 -10.153  0.00  0.00    +0.109 C 
ATOM     24  C   UNL     1      -1.091   4.522 -10.396  0.00  0.00    +0.018 C 
ATOM     25  C   UNL     1       0.099   3.526 -10.363  0.00  0.00    +0.018 C 
ATOM     26  C   UNL     1      -0.366   2.523  -9.279  0.00  0.00    +0.109 C 
ENDBRANCH  19  22
ENDBRANCH  16  19
ENDBRANCH  11  13
ENDBRANCH   9  11
BRANCH   1  27
ATOM     27  O   UNL     1      -2.719   1.057   2.717  0.00  0.00    -0.490 OA
BRANCH  27  29
ATOM     28  C   UNL     1      -0.971   0.076   4.067  0.00  0.00    +0.048 C 
ATOM     29  C   UNL     1      -2.306   0.823   4.065  0.00  0.00    +0.226 C 
ENDBRANCH  27  29
ENDBRANCH   1  27
BRANCH   7  30
ATOM     30  C   UNL     1      -2.479   0.930   0.019  0.00  0.00    +0.135 C 
BRANCH  30  31
ATOM     31  C   UNL     1      -1.329   1.940   0.019  0.00  0.00    +0.142 C 
BRANCH  31  32
ATOM     32  C   UNL     1      -0.014   1.204   0.009  0.00  0.00    +0.309 C 
ATOM     33  O   UNL     1       0.002  -0.004   0.002  0.00  0.00    -0.251 OA
BRANCH  32  34
ATOM     34  O   UNL     1       1.139   1.891   0.001  0.00  0.00    -0.468 OA
ATOM     35  C   UNL     1       2.367   1.117  -0.015  0.00  0.00    +0.280 C 
ENDBRANCH  32  34
ENDBRANCH  31  32
ENDBRANCH  30  31
ENDBRANCH   7  30
TORSDOF 10
