REMARK  Name = ZINC20522354
REMARK  8 active torsions:
REMARK  status: ('A' for Active; 'I' for Inactive)
REMARK    1  A    between atoms: C_4  and  C_7
REMARK    2  A    between atoms: C_7  and  N_8
REMARK    3  A    between atoms: N_8  and  C_9
REMARK    4  A    between atoms: N_8  and  C_16
REMARK    5  A    between atoms: C_9  and  C_10
REMARK    6  A    between atoms: C_16  and  C_17
REMARK    7  A    between atoms: N_19  and  N_20
REMARK    8  A    between atoms: C_21  and  C_22
REMARK                            x       y       z     vdW  Elec       q    Type
REMARK                         _______ _______ _______ _____ _____    ______ ____
ROOT
ATOM      1  C   UNL     1       5.150  -1.177   1.437  0.00  0.00    +0.021 C 
ENDROOT
BRANCH   1   2
ATOM      2  C   UNL     1       5.829  -1.343   2.772  0.00  0.00    +0.214 C 
ATOM      3  O   UNL     1       5.228  -1.085   3.793  0.00  0.00    -0.276 OA
ATOM      4  N   UNL     1       7.103  -1.779   2.831  0.00  0.00    -0.231 N 
ATOM      5  H   UNL     1       7.583  -1.985   2.014  0.00  0.00    +0.175 HD
BRANCH   4   6
ATOM      6  N   UNL     1       7.734  -1.933   4.072  0.00  0.00    -0.311 N 
ATOM      7  C   UNL     1       9.002  -2.366   4.131  0.00  0.00    +0.111 C 
ATOM      8  H   UNL     1       7.253  -1.726   4.889  0.00  0.00    +0.184 HD
BRANCH   7   9
ATOM      9  C   UNL     1       9.588  -2.645   5.368  0.00  0.00    +0.042 A 
ATOM     10  C   UNL     1      10.957  -2.979   5.459  0.00  0.00    +0.033 A 
ATOM     11  C   UNL     1      11.510  -3.247   6.672  0.00  0.00    +0.043 A 
ATOM     12  C   UNL     1      10.755  -3.201   7.842  0.00  0.00    +0.044 A 
ATOM     13  C   UNL     1       9.430  -2.887   7.823  0.00  0.00    +0.090 A 
ATOM     14  C   UNL     1       8.795  -2.592   6.603  0.00  0.00    +0.206 A 
ATOM     15  O   UNL     1       7.607  -2.303   6.571  0.00  0.00    -0.286 OA
ATOM     16 CL   UNL     1       8.527  -2.842   9.305  0.00  0.00    -0.080 Cl
ATOM     17 CL   UNL     1      13.194  -3.656   6.765  0.00  0.00    -0.083 Cl
ENDBRANCH   7   9
ENDBRANCH   4   6
ENDBRANCH   1   2
BRANCH   1  18
ATOM     18  N   UNL     1       3.731  -0.859   1.644  0.00  0.00    +0.391 N 
ATOM     19  H   UNL     1       3.635  -0.260   2.451  0.00  0.00    -0.080 HD
BRANCH  18  20
ATOM     20  C   UNL     1       3.205  -0.171   0.458  0.00  0.00    -0.042 C 
BRANCH  20  24
ATOM     21  C   UNL     1      -0.818   1.064   1.193  0.00  0.00    +0.000 A 
ATOM     22  C   UNL     1       0.232   1.908   1.504  0.00  0.00    +0.000 A 
ATOM     23  C   UNL     1       1.534   1.508   1.266  0.00  0.00    +0.002 A 
ATOM     24  C   UNL     1       1.786   0.265   0.718  0.00  0.00    -0.064 A 
ATOM     25  C   UNL     1       0.736  -0.580   0.408  0.00  0.00    +0.002 A 
ATOM     26  C   UNL     1      -0.566  -0.179   0.645  0.00  0.00    +0.000 A 
ENDBRANCH  20  24
ENDBRANCH  18  20
BRANCH  18  27
ATOM     27  C   UNL     1       2.978  -2.101   1.865  0.00  0.00    -0.042 C 
BRANCH  27  28
ATOM     28  C   UNL     1       3.403  -2.722   3.170  0.00  0.00    -0.064 A 
ATOM     29  C   UNL     1       4.365  -3.714   3.183  0.00  0.00    +0.002 A 
ATOM     30  C   UNL     1       4.755  -4.284   4.380  0.00  0.00    +0.000 A 
ATOM     31  C   UNL     1       4.184  -3.860   5.566  0.00  0.00    +0.000 A 
ATOM     32  C   UNL     1       3.223  -2.867   5.553  0.00  0.00    +0.000 A 
ATOM     33  C   UNL     1       2.836  -2.294   4.356  0.00  0.00    +0.002 A 
ENDBRANCH  27  28
ENDBRANCH  18  27
ENDBRANCH   1  18
TORSDOF 8
