REMARK  Name = ZINC67463559
REMARK  7 active torsions:
REMARK  status: ('A' for Active; 'I' for Inactive)
REMARK    1  A    between atoms: C_1  and  C_2
REMARK    2  A    between atoms: C_4  and  C_7
REMARK    3  A    between atoms: C_7  and  C_8
REMARK    4  A    between atoms: C_8  and  C_9
REMARK    5  A    between atoms: C_9  and  N_10
REMARK    6  A    between atoms: N_13  and  N_14
REMARK    7  A    between atoms: C_15  and  C_17
REMARK                            x       y       z     vdW  Elec       q    Type
REMARK                         _______ _______ _______ _____ _____    ______ ____
ROOT
ATOM      1  N   UNL     1       2.881  -5.134  -3.300  0.00  0.00    -0.298 N 
ATOM      2  C   UNL     1       3.137  -6.160  -4.135  0.00  0.00    +0.316 C 
ATOM      3  O   UNL     1       2.219  -6.787  -4.627  0.00  0.00    -0.251 OA
ATOM      4  N   UNL     1       4.411  -6.492  -4.423  0.00  0.00    -0.218 N 
ATOM      5  H   UNL     1       3.613  -4.633  -2.907  0.00  0.00    +0.150 HD
ATOM      6  H   UNL     1       4.596  -7.232  -5.023  0.00  0.00    +0.174 HD
ENDROOT
BRANCH   4   7
ATOM      7  N   UNL     1       5.469  -5.770  -3.855  0.00  0.00    -0.229 N 
ATOM      8  C   UNL     1       6.743  -6.102  -4.144  0.00  0.00    +0.267 C 
ATOM      9  O   UNL     1       6.974  -7.029  -4.897  0.00  0.00    -0.268 OA
ATOM     10  H   UNL     1       5.284  -5.031  -3.255  0.00  0.00    +0.173 HD
BRANCH   8  11
ATOM     11  C   UNL     1       7.850  -5.346  -3.550  0.00  0.00    +0.076 A 
ATOM     12  C   UNL     1       9.207  -5.515  -3.714  0.00  0.00    +0.024 A 
ATOM     13  C   UNL     1      10.045  -4.656  -2.996  0.00  0.00    -0.036 A 
ATOM     14  C   UNL     1       9.451  -3.769  -2.176  0.00  0.00    -0.006 A 
ATOM     15  S   UNL     1       7.796  -3.963  -2.431  0.00  0.00    -0.088 S 
ATOM     16  C   UNL     1       9.995  -2.812  -1.145  0.00  0.00    +0.043 C 
ATOM     17  C   UNL     1      11.515  -2.900  -1.015  0.00  0.00    +0.005 C 
ATOM     18  C   UNL     1      12.201  -2.132  -2.134  0.00  0.00    +0.000 C 
ATOM     19  C   UNL     1      11.485  -2.261  -3.463  0.00  0.00    +0.000 C 
ATOM     20  C   UNL     1      11.972  -3.563  -4.105  0.00  0.00    +0.005 C 
ATOM     21  C   UNL     1      11.547  -4.739  -3.225  0.00  0.00    +0.036 C 
ENDBRANCH   8  11
ENDBRANCH   4   7
BRANCH   1  22
ATOM     22  C   UNL     1       1.496  -4.773  -2.987  0.00  0.00    +0.106 C 
BRANCH  22  23
ATOM     23  C   UNL     1       1.484  -3.583  -2.025  0.00  0.00    +0.028 C 
BRANCH  23  24
ATOM     24  C   UNL     1       0.038  -3.206  -1.697  0.00  0.00    +0.100 C 
BRANCH  24  28
ATOM     25  C   UNL     1      -0.018   1.503   0.010  0.00  0.00    +0.091 C 
ATOM     26  C   UNL     1       0.002  -0.004   0.002  0.00  0.00    +0.169 A 
ATOM     27  N   UNL     1       0.008  -0.776  -1.091  0.00  0.00    -0.196 NA
ATOM     28  C   UNL     1       0.026  -2.034  -0.750  0.00  0.00    +0.227 A 
ATOM     29  O   UNL     1       0.033  -2.107   0.587  0.00  0.00    -0.338 OA
ATOM     30  N   UNL     1       0.023  -0.767   1.057  0.00  0.00    -0.062 NA
ENDBRANCH  24  28
ENDBRANCH  23  24
ENDBRANCH  22  23
ENDBRANCH   1  22
TORSDOF 6
