REMARK  Name = ZINC08876578
REMARK  4 active torsions:
REMARK  status: ('A' for Active; 'I' for Inactive)
REMARK    1  A    between atoms: C_1  and  C_2
REMARK    2  A    between atoms: C_4  and  C_36
REMARK    3  A    between atoms: C_22  and  C_29
REMARK    4  A    between atoms: C_29  and  C_31
REMARK                            x       y       z     vdW  Elec       q    Type
REMARK                         _______ _______ _______ _____ _____    ______ ____
ROOT
ATOM      1  C   UNL     1       0.883  11.291   2.619  0.00  0.00    +0.044 C 
ATOM      2  C   UNL     1       2.027  10.692   1.843  0.00  0.00    -0.050 A 
ATOM      3  C   UNL     1       3.229  11.370   1.744  0.00  0.00    +0.008 A 
ATOM      4  C   UNL     1       4.280  10.826   1.036  0.00  0.00    -0.029 A 
ATOM      5  C   UNL     1       4.138   9.587   0.413  0.00  0.00    +0.039 A 
ATOM      6  C   UNL     1       2.925   8.916   0.518  0.00  0.00    -0.026 A 
ATOM      7  C   UNL     1       1.879   9.462   1.227  0.00  0.00    +0.008 A 
ATOM      8  C   UNL     1       3.091   7.631  -0.251  0.00  0.00    +0.060 C 
ATOM      9  C   UNL     1       4.506   7.680  -0.773  0.00  0.00    +0.212 C 
ATOM     10  O   UNL     1       5.058   6.836  -1.447  0.00  0.00    -0.277 OA
ATOM     11  N   UNL     1       5.040   8.840  -0.347  0.00  0.00    -0.286 N 
ATOM     12  C   UNL     1       2.881   6.419   0.649  0.00  0.00    +0.085 C 
ATOM     13  C   UNL     1       4.132   5.595   0.778  0.00  0.00    -0.011 A 
ATOM     14  C   UNL     1       4.933   4.942  -0.132  0.00  0.00    +0.006 A 
ATOM     15  C   UNL     1       6.049   4.249   0.301  0.00  0.00    +0.000 A 
ATOM     16  C   UNL     1       6.358   4.213   1.649  0.00  0.00    +0.002 A 
ATOM     17  C   UNL     1       5.558   4.866   2.563  0.00  0.00    +0.023 A 
ATOM     18  C   UNL     1       4.432   5.566   2.136  0.00  0.00    +0.038 A 
ATOM     19  N   UNL     1       3.482   6.293   2.856  0.00  0.00    -0.285 N 
ATOM     20  C   UNL     1       2.537   6.825   2.058  0.00  0.00    +0.228 C 
ATOM     21  O   UNL     1       1.592   7.500   2.406  0.00  0.00    -0.275 OA
ATOM     22  C   UNL     1       1.745   5.606   0.015  0.00  0.00    +0.066 C 
ATOM     23  C   UNL     1       1.645   6.147  -1.428  0.00  0.00    -0.055 C 
ATOM     24  C   UNL     1       0.931   8.375  -1.068  0.00  0.00    -0.076 C 
ATOM     25  C   UNL     1      -0.170   7.717  -1.936  0.00  0.00    -0.020 C 
ATOM     26  C   UNL     1       0.159   6.210  -1.828  0.00  0.00    -0.016 C 
ATOM     27  C   UNL     1       5.585  11.573   0.934  0.00  0.00    +0.045 C 
ATOM     28  H   UNL     1       5.945   9.124  -0.546  0.00  0.00    +0.155 HD
ATOM     29  H   UNL     1       3.501   6.403   3.820  0.00  0.00    +0.155 HD
ATOM     30  N   UNL     1       2.104   7.524  -1.346  0.00  0.00    +0.395 N 
ATOM     31  H   UNL     1       2.539   7.807  -2.233  0.00  0.00    -0.079 HD
ENDROOT
BRANCH  22  32
ATOM     32  C   UNL     1       2.089   4.139   0.004  0.00  0.00    +0.172 C 
ATOM     33  O   UNL     1       2.648   3.653  -0.958  0.00  0.00    -0.291 OA
BRANCH  32  34
ATOM     34  C   UNL     1       1.762   3.329   1.114  0.00  0.00    +0.055 A 
ATOM     35  C   UNL     1       1.988   1.970   1.305  0.00  0.00    +0.019 A 
ATOM     36  C   UNL     1       1.565   1.428   2.490  0.00  0.00    +0.008 A 
ATOM     37  C   UNL     1       0.951   2.228   3.405  0.00  0.00    +0.046 A 
ATOM     38  S   UNL     1       0.952   3.782   2.638  0.00  0.00    -0.094 S 
ENDBRANCH  32  34
ENDBRANCH  22  32
TORSDOF 2
