REMARK  Name = ZINC39595069
REMARK  6 active torsions:
REMARK  status: ('A' for Active; 'I' for Inactive)
REMARK    1  A    between atoms: C_7  and  C_10
REMARK    2  A    between atoms: C_14  and  C_23
REMARK    3  A    between atoms: N_25  and  C_26
REMARK    4  A    between atoms: C_26  and  C_27
REMARK    5  A    between atoms: C_27  and  C_29
REMARK    6  A    between atoms: C_27  and  N_35
REMARK                            x       y       z     vdW  Elec       q    Type
REMARK                         _______ _______ _______ _____ _____    ______ ____
ROOT
ATOM      1  C   UNL     1       0.376  -3.129  -0.022  0.00  0.00    +0.248 C 
ATOM      2  O   UNL     1       1.262  -2.296  -0.064  0.00  0.00    -0.270 OA
ATOM      3  N   UNL     1       0.685  -4.439   0.056  0.00  0.00    -0.296 N 
ATOM      4  C   UNL     1       2.030  -5.048   0.182  0.00  0.00    +0.121 C 
ATOM      5  C   UNL     1       1.836  -6.222   1.168  0.00  0.00    +0.100 C 
ATOM      6  C   UNL     1       0.343  -6.577   1.066  0.00  0.00    -0.004 C 
ATOM      7  C   UNL     1      -0.243  -5.594   0.043  0.00  0.00    +0.115 C 
ATOM      8  C   UNL     1      -0.338  -6.389   2.418  0.00  0.00    -0.010 C 
ATOM      9  C   UNL     1      -1.808  -6.803   2.306  0.00  0.00    -0.082 C 
ATOM     10  N   UNL     1      -1.893  -8.206   1.883  0.00  0.00    +0.379 N 
ATOM     11  C   UNL     1      -1.318  -8.360   0.541  0.00  0.00    -0.082 C 
ATOM     12  C   UNL     1       0.173  -8.013   0.579  0.00  0.00    -0.010 C 
ATOM     13  H   UNL     1      -1.382  -8.783   2.534  0.00  0.00    -0.086 HD
ATOM     14  H   UNL     1      -2.860  -8.494   1.869  0.00  0.00    -0.086 HD
ENDROOT
BRANCH   1  21
ATOM     15  C   UNL     1      -1.340   0.573   1.871  0.00  0.00    +0.001 A 
ATOM     16  C   UNL     1      -2.703   0.782   1.714  0.00  0.00    +0.001 A 
ATOM     17  C   UNL     1      -3.457  -0.131   1.002  0.00  0.00    +0.015 A 
ATOM     18  C   UNL     1      -2.846  -1.239   0.456  0.00  0.00    +0.020 A 
ATOM     19  C   UNL     1      -1.466  -1.474   0.600  0.00  0.00    +0.001 A 
ATOM     20  C   UNL     1      -0.723  -0.527   1.331  0.00  0.00    +0.010 A 
ATOM     21  C   UNL     1      -1.030  -2.708  -0.059  0.00  0.00    +0.052 A 
ATOM     22  C   UNL     1      -1.967  -3.450  -0.704  0.00  0.00    +0.059 A 
ATOM     23  S   UNL     1      -3.410  -2.620  -0.500  0.00  0.00    -0.096 S 
ENDBRANCH   1  21
BRANCH   5  24
ATOM     24  C   UNL     1       2.181  -5.792   2.570  0.00  0.00    +0.218 C 
ATOM     25  O   UNL     1       1.943  -4.659   2.933  0.00  0.00    -0.275 OA
ATOM     26  N   UNL     1       2.754  -6.666   3.422  0.00  0.00    -0.316 N 
ATOM     27  H   UNL     1       2.944  -7.572   3.131  0.00  0.00    +0.149 HD
BRANCH  26  28
ATOM     28  C   UNL     1       3.090  -6.247   4.785  0.00  0.00    +0.093 C 
BRANCH  28  29
ATOM     29  C   UNL     1       3.607  -7.451   5.575  0.00  0.00    -0.019 C 
BRANCH  29  30
ATOM     30  C   UNL     1       2.526  -8.498   5.661  0.00  0.00    -0.041 A 
ATOM     31  C   UNL     1       2.544  -9.597   4.816  0.00  0.00    +0.005 A 
ATOM     32  C   UNL     1       1.530 -10.535   4.931  0.00  0.00    +0.020 A 
ATOM     33  C   UNL     1       0.540 -10.344   5.877  0.00  0.00    +0.111 A 
ATOM     34  N   UNL     1       0.554  -9.286   6.663  0.00  0.00    -0.263 NA
ATOM     35  C   UNL     1       1.507  -8.377   6.586  0.00  0.00    +0.112 A 
ENDBRANCH  29  30
BRANCH  29  36
ATOM     36  N   UNL     1       3.983  -7.024   6.929  0.00  0.00    +0.385 N 
ATOM     37  C   UNL     1       4.666  -8.132   7.645  0.00  0.00    -0.078 C 
ATOM     38  C   UNL     1       5.466  -7.399   8.751  0.00  0.00    -0.020 C 
ATOM     39  C   UNL     1       5.941  -6.111   8.038  0.00  0.00    -0.020 C 
ATOM     40  C   UNL     1       4.966  -5.921   6.861  0.00  0.00    -0.078 C 
ATOM     41  H   UNL     1       3.165  -6.729   7.441  0.00  0.00    -0.081 HD
ENDBRANCH  29  36
ENDBRANCH  28  29
ENDBRANCH  26  28
ENDBRANCH   5  24
TORSDOF 6
