REMARK  Name = ZINC32506289
REMARK  12 active torsions:
REMARK  status: ('A' for Active; 'I' for Inactive)
REMARK    1  A    between atoms: C_1  and  C_2
REMARK    2  A    between atoms: C_2  and  C_3
REMARK    3  A    between atoms: C_3  and  C_4
REMARK    4  A    between atoms: C_4  and  C_5
REMARK    5  A    between atoms: C_5  and  N_7
REMARK    6  A    between atoms: N_9  and  C_20
REMARK    7  A    between atoms: C_22  and  O_30
REMARK    8  A    between atoms: C_23  and  O_27
REMARK    9  A    between atoms: O_27  and  C_28
REMARK   10  A    between atoms: C_28  and  C_29
REMARK   11  A    between atoms: O_30  and  C_31
REMARK   12  A    between atoms: C_31  and  C_32
REMARK                            x       y       z     vdW  Elec       q    Type
REMARK                         _______ _______ _______ _____ _____    ______ ____
ROOT
ATOM      1  N   UNL     1       1.716  -3.867  -2.669  0.00  0.00    -0.159 NA
ATOM      2  C   UNL     1       2.183  -4.272  -3.845  0.00  0.00    +0.154 C 
ATOM      3  N   UNL     1       2.663  -3.501  -4.870  0.00  0.00    -0.275 N 
ATOM      4  C   UNL     1       2.765  -4.078  -6.186  0.00  0.00    +0.116 C 
ATOM      5  C   UNL     1       2.135  -3.226  -7.287  0.00  0.00    +0.190 C 
ATOM      6  S   UNL     1       0.723  -4.247  -7.865  0.00  0.00    -0.028 S 
ATOM      7  O   UNL     1       0.959  -4.638  -9.211  0.00  0.00    -0.174 OA
ATOM      8  O   UNL     1      -0.490  -3.586  -7.533  0.00  0.00    -0.174 OA
ATOM      9  C   UNL     1       0.920  -5.713  -6.778  0.00  0.00    +0.182 C 
ATOM     10  C   UNL     1       2.355  -5.558  -6.259  0.00  0.00    +0.097 C 
ATOM     11  S   UNL     1       2.337  -5.947  -4.447  0.00  0.00    -0.086 S 
ENDROOT
BRANCH   3  12
ATOM     12  C   UNL     1       3.046  -2.173  -4.643  0.00  0.00    +0.053 A 
ATOM     13  C   UNL     1       4.363  -1.877  -4.316  0.00  0.00    +0.074 A 
ATOM     14  C   UNL     1       4.741  -0.564  -4.093  0.00  0.00    +0.164 A 
ATOM     15  C   UNL     1       3.800   0.457  -4.196  0.00  0.00    +0.163 A 
ATOM     16  C   UNL     1       2.487   0.159  -4.522  0.00  0.00    +0.066 A 
ATOM     17  C   UNL     1       2.111  -1.152  -4.751  0.00  0.00    +0.043 A 
ATOM     18 BR   UNL     1       0.320  -1.555  -5.204  0.00  0.00    -0.048 Br
BRANCH  15  19
ATOM     19  O   UNL     1       4.170   1.748  -3.977  0.00  0.00    -0.489 OA
BRANCH  19  20
ATOM     20  C   UNL     1       3.154   2.744  -4.101  0.00  0.00    +0.226 C 
ATOM     21  C   UNL     1       3.754   4.123  -3.820  0.00  0.00    +0.048 C 
ENDBRANCH  19  20
ENDBRANCH  15  19
BRANCH  14  22
ATOM     22  O   UNL     1       6.030  -0.272  -3.772  0.00  0.00    -0.489 OA
BRANCH  22  23
ATOM     23  C   UNL     1       6.941  -1.369  -3.683  0.00  0.00    +0.226 C 
ATOM     24  C   UNL     1       8.332  -0.849  -3.315  0.00  0.00    +0.048 C 
ENDBRANCH  22  23
ENDBRANCH  14  22
ENDBRANCH   3  12
BRANCH   1  25
ATOM     25  C   UNL     1       1.822  -2.588  -2.316  0.00  0.00    +0.238 C 
ATOM     26  O   UNL     1       2.916  -2.062  -2.259  0.00  0.00    -0.274 OA
BRANCH  25  27
ATOM     27  C   UNL     1       0.585  -1.794  -1.986  0.00  0.00    +0.098 C 
BRANCH  27  28
ATOM     28  C   UNL     1       0.981  -0.363  -1.614  0.00  0.00    +0.009 C 
BRANCH  28  30
ATOM     29  C   UNL     1       0.122   1.874  -0.908  0.00  0.00    +0.004 C 
ATOM     30  C   UNL     1      -0.275   0.444  -1.279  0.00  0.00    -0.003 C 
ENDBRANCH  28  30
ENDBRANCH  27  28
ENDBRANCH  25  27
ENDBRANCH   1  25
TORSDOF 9
