REMARK  Name = ZINC36156907
REMARK  10 active torsions:
REMARK  status: ('A' for Active; 'I' for Inactive)
REMARK    1  A    between atoms: C_2  and  C_3
REMARK    2  A    between atoms: C_3  and  C_4
REMARK    3  A    between atoms: C_4  and  C_5
REMARK    4  A    between atoms: C_5  and  C_7
REMARK    5  A    between atoms: C_5  and  O_32
REMARK    6  A    between atoms: C_7  and  N_8
REMARK    7  A    between atoms: N_8  and  C_9
REMARK    8  A    between atoms: N_8  and  C_16
REMARK    9  A    between atoms: C_9  and  C_10
REMARK   10  A    between atoms: C_16  and  C_17
REMARK                            x       y       z     vdW  Elec       q    Type
REMARK                         _______ _______ _______ _____ _____    ______ ____
ROOT
ATOM      1  N   UNL     1       4.004  -4.440   2.205  0.00  0.00    +0.389 N 
ATOM      2  H   UNL     1       4.829  -3.876   2.343  0.00  0.00    -0.081 HD
ENDROOT
BRANCH   1   3
ATOM      3  C   UNL     1       2.807  -3.613   2.407  0.00  0.00    -0.046 C 
BRANCH   3   4
ATOM      4  C   UNL     1       2.881  -2.379   1.506  0.00  0.00    +0.098 C 
BRANCH   4   5
ATOM      5  O   UNL     1       4.017  -1.592   1.870  0.00  0.00    -0.394 OA
ATOM      6  H   UNL     1       4.002  -1.277   2.784  0.00  0.00    +0.210 HD
ENDBRANCH   4   5
BRANCH   4   7
ATOM      7  C   UNL     1       1.609  -1.546   1.676  0.00  0.00    +0.033 C 
BRANCH   7   8
ATOM      8  C   UNL     1       1.626  -0.380   0.686  0.00  0.00    +0.029 C 
BRANCH   8  10
ATOM      9  C   UNL     1       0.458   1.727   1.085  0.00  0.00    +0.004 C 
ATOM     10  C   UNL     1       0.373   0.440   0.853  0.00  0.00    -0.034 C 
ENDBRANCH   8  10
ENDBRANCH   7   8
ENDBRANCH   4   7
ENDBRANCH   3   4
ENDBRANCH   1   3
BRANCH   1  11
ATOM     11  C   UNL     1       4.002  -4.978   0.838  0.00  0.00    -0.042 C 
BRANCH  11  12
ATOM     12  C   UNL     1       2.748  -5.783   0.616  0.00  0.00    -0.064 A 
ATOM     13  C   UNL     1       2.729  -7.130   0.924  0.00  0.00    +0.002 A 
ATOM     14  C   UNL     1       1.578  -7.869   0.721  0.00  0.00    +0.000 A 
ATOM     15  C   UNL     1       0.447  -7.261   0.210  0.00  0.00    +0.000 A 
ATOM     16  C   UNL     1       0.466  -5.913  -0.096  0.00  0.00    +0.000 A 
ATOM     17  C   UNL     1       1.615  -5.173   0.111  0.00  0.00    +0.002 A 
ENDBRANCH  11  12
ENDBRANCH   1  11
BRANCH   1  18
ATOM     18  C   UNL     1       4.002  -5.550   3.167  0.00  0.00    -0.003 C 
BRANCH  18  19
ATOM     19  C   UNL     1       5.287  -6.326   3.043  0.00  0.00    +0.094 A 
ATOM     20  N   UNL     1       5.495  -7.405   3.840  0.00  0.00    -0.312 N 
ATOM     21  H   UNL     1       4.812  -7.661   4.480  0.00  0.00    +0.170 HD
ATOM     22  C   UNL     1       6.628  -8.126   3.761  0.00  0.00    +0.260 A 
ATOM     23  O   UNL     1       6.799  -9.093   4.484  0.00  0.00    -0.267 OA
ATOM     24  C   UNL     1       7.631  -7.739   2.813  0.00  0.00    +0.075 A 
ATOM     25  C   UNL     1       8.927  -8.365   2.555  0.00  0.00    -0.023 A 
ATOM     26  C   UNL     1       9.698  -7.804   1.599  0.00  0.00    -0.004 A 
ATOM     27  S   UNL     1       8.756  -6.429   0.997  0.00  0.00    -0.073 S 
ATOM     28  C   UNL     1       7.327  -6.612   2.034  0.00  0.00    +0.116 A 
ATOM     29  N   UNL     1       6.180  -5.952   2.165  0.00  0.00    -0.229 NA
ATOM     30  C   UNL     1      11.056  -8.251   1.151  0.00  0.00    +0.043 C 
ATOM     31  C   UNL     1      11.614  -9.228   2.196  0.00  0.00    +0.005 C 
ATOM     32  C   UNL     1      10.533 -10.261   2.528  0.00  0.00    +0.005 C 
ATOM     33  C   UNL     1       9.406  -9.597   3.319  0.00  0.00    +0.037 C 
ENDBRANCH  18  19
ENDBRANCH   1  18
TORSDOF 10
