REMARK  Name = ZINC20556950
REMARK  4 active torsions:
REMARK  status: ('A' for Active; 'I' for Inactive)
REMARK    1  A    between atoms: C_2  and  N_10
REMARK    2  A    between atoms: N_10  and  S_11
REMARK    3  A    between atoms: S_11  and  C_14
REMARK    4  A    between atoms: C_14  and  C_15
REMARK                            x       y       z     vdW  Elec       q    Type
REMARK                         _______ _______ _______ _____ _____    ______ ____
ROOT
ATOM      1  C   UNL     1      -1.981  -0.056  -2.335  0.00  0.00    +0.049 A 
ATOM      2  C   UNL     1      -2.439  -0.052  -1.024  0.00  0.00    +0.094 A 
ATOM      3  C   UNL     1      -3.742   0.345  -0.746  0.00  0.00    +0.067 A 
ATOM      4  C   UNL     1      -4.575   0.745  -1.774  0.00  0.00    +0.043 A 
ATOM      5  C   UNL     1      -4.117   0.740  -3.079  0.00  0.00    +0.061 A 
ATOM      6  C   UNL     1      -2.820   0.340  -3.359  0.00  0.00    +0.061 A 
ATOM      7 CL   UNL     1      -2.249   0.335  -4.999  0.00  0.00    -0.082 Cl
ATOM      8 CL   UNL     1      -5.168   1.236  -4.369  0.00  0.00    -0.082 Cl
ATOM      9 CL   UNL     1      -4.320   0.345   0.891  0.00  0.00    -0.081 Cl
ENDROOT
BRANCH   2  10
ATOM     10  N   UNL     1      -1.592  -0.451   0.015  0.00  0.00    -0.101 NA
BRANCH  10  11
ATOM     11  S   UNL     1       0.025  -0.100  -0.053  0.00  0.00    +0.073 S 
ATOM     12  O   UNL     1       0.466  -0.660  -1.282  0.00  0.00    -0.153 OA
ATOM     13  O   UNL     1       0.549  -0.564   1.183  0.00  0.00    -0.153 OA
BRANCH  11  14
ATOM     14  C   UNL     1       0.105   1.711  -0.127  0.00  0.00    +0.315 C 
BRANCH  14  15
ATOM     15  C   UNL     1       1.546   2.147  -0.192  0.00  0.00    +0.379 C 
ATOM     16  O   UNL     1       2.428   1.321  -0.190  0.00  0.00    -0.244 OA
ATOM     17  O   UNL     1       1.850   3.453  -0.253  0.00  0.00    -0.244 OA
ENDBRANCH  14  15
ENDBRANCH  11  14
ENDBRANCH  10  11
ENDBRANCH   2  10
TORSDOF 4
