REMARK  Name = ZINC09312281
REMARK  7 active torsions:
REMARK  status: ('A' for Active; 'I' for Inactive)
REMARK    1  A    between atoms: C_1  and  C_2
REMARK    2  A    between atoms: C_2  and  C_33
REMARK    3  A    between atoms: C_6  and  N_25
REMARK    4  A    between atoms: C_12  and  O_24
REMARK    5  A    between atoms: C_14  and  S_16
REMARK    6  A    between atoms: S_16  and  C_17
REMARK    7  A    between atoms: C_17  and  C_18
REMARK                            x       y       z     vdW  Elec       q    Type
REMARK                         _______ _______ _______ _____ _____    ______ ____
ROOT
ATOM      1  C   UNL     1       5.805  -2.021  -7.432  0.00  0.00    +0.041 C 
ATOM      2  C   UNL     1       7.170  -2.387  -6.847  0.00  0.00    +0.068 C 
ATOM      3  C   UNL     1       7.023  -2.709  -5.358  0.00  0.00    +0.070 C 
ATOM      4  C   UNL     1       8.291  -3.339  -4.848  0.00  0.00    -0.024 A 
ATOM      5  C   UNL     1       9.225  -3.861  -5.687  0.00  0.00    +0.020 A 
ATOM      6  C   UNL     1      10.384  -4.444  -5.163  0.00  0.00    +0.105 A 
ATOM      7  C   UNL     1       9.697  -3.990  -3.015  0.00  0.00    +0.089 A 
ATOM      8  C   UNL     1       8.504  -3.387  -3.448  0.00  0.00    +0.036 A 
ATOM      9  C   UNL     1       7.615  -2.879  -2.387  0.00  0.00    +0.095 A 
ATOM     10  C   UNL     1       8.068  -3.054  -1.073  0.00  0.00    +0.101 A 
ATOM     11  S   UNL     1       9.630  -3.874  -1.244  0.00  0.00    -0.064 S 
ATOM     12  C   UNL     1       7.318  -2.616   0.006  0.00  0.00    +0.231 A 
ATOM     13  N   UNL     1       6.151  -2.022  -0.232  0.00  0.00    -0.186 NA
ATOM     14  C   UNL     1       5.731  -1.861  -1.481  0.00  0.00    +0.192 A 
ATOM     15  N   UNL     1       6.417  -2.270  -2.528  0.00  0.00    -0.220 NA
ATOM     16  C   UNL     1       9.046  -3.825  -7.183  0.00  0.00    +0.199 C 
ATOM     17  O   UNL     1       7.685  -3.547  -7.511  0.00  0.00    -0.369 OA
ATOM     18  C   UNL     1       8.139  -1.217  -7.028  0.00  0.00    +0.041 C 
ATOM     19  N   UNL     1      10.644  -4.520  -3.827  0.00  0.00    -0.337 N 
ATOM     20  H   UNL     1      11.501  -4.951  -3.460  0.00  0.00    +0.168 HD
ENDROOT
BRANCH   6  21
ATOM     21  N   UNL     1      11.334  -4.979  -6.021  0.00  0.00    -0.312 N 
ATOM     22  C   UNL     1      11.503  -6.421  -5.786  0.00  0.00    +0.134 C 
ATOM     23  C   UNL     1      12.513  -6.981  -6.791  0.00  0.00    +0.178 C 
ATOM     24  O   UNL     1      13.745  -6.265  -6.671  0.00  0.00    -0.377 OA
ATOM     25  C   UNL     1      13.617  -4.858  -6.895  0.00  0.00    +0.178 C 
ATOM     26  C   UNL     1      12.618  -4.276  -5.891  0.00  0.00    +0.134 C 
ENDBRANCH   6  21
BRANCH  12  27
ATOM     27  O   UNL     1       7.762  -2.789   1.275  0.00  0.00    -0.492 OA
ATOM     28  H   UNL     1       7.484  -3.623   1.679  0.00  0.00    +0.294 HD
ENDBRANCH  12  27
BRANCH  14  29
ATOM     29  S   UNL     1       4.180  -1.069  -1.749  0.00  0.00    -0.081 S 
BRANCH  29  30
ATOM     30  C   UNL     1       3.695  -0.739  -0.037  0.00  0.00    +0.112 C 
BRANCH  30  31
ATOM     31  C   UNL     1       2.357  -0.045  -0.019  0.00  0.00    -0.037 A 
ATOM     32  C   UNL     1       1.193  -0.788   0.038  0.00  0.00    +0.004 A 
ATOM     33  C   UNL     1      -0.034  -0.151   0.055  0.00  0.00    +0.000 A 
ATOM     34  C   UNL     1      -0.096   1.229   0.015  0.00  0.00    +0.000 A 
ATOM     35  C   UNL     1       1.068   1.972  -0.042  0.00  0.00    +0.000 A 
ATOM     36  C   UNL     1       2.295   1.336  -0.058  0.00  0.00    +0.004 A 
ENDBRANCH  30  31
ENDBRANCH  29  30
ENDBRANCH  14  29
TORSDOF 5
