REMARK  Name = ZINC52603507
REMARK  10 active torsions:
REMARK  status: ('A' for Active; 'I' for Inactive)
REMARK    1  A    between atoms: C_1  and  C_2
REMARK    2  A    between atoms: C_6  and  N_26
REMARK    3  A    between atoms: N_9  and  C_10
REMARK    4  A    between atoms: C_10  and  C_11
REMARK    5  A    between atoms: N_13  and  C_14
REMARK    6  A    between atoms: C_14  and  C_15
REMARK    7  A    between atoms: C_23  and  N_25
REMARK    8  A    between atoms: N_26  and  S_27
REMARK    9  A    between atoms: S_27  and  C_30
REMARK   10  A    between atoms: C_30  and  C_31
REMARK                            x       y       z     vdW  Elec       q    Type
REMARK                         _______ _______ _______ _____ _____    ______ ____
ROOT
ATOM      1  C   UNL     1      -0.019   1.526   0.010  0.00  0.00    +0.028 C 
ATOM      2  C   UNL     1       0.002  -0.004   0.002  0.00  0.00    +0.078 C 
ATOM      3  C   UNL     1       0.710  -0.493  -1.259  0.00  0.00    +0.051 C 
ATOM      4  C   UNL     1       0.949  -1.978  -1.179  0.00  0.00    +0.004 C 
ATOM      5  C   UNL     1       1.202  -2.553  -0.002  0.00  0.00    +0.106 C 
ATOM      6  C   UNL     1       1.219  -1.728   1.223  0.00  0.00    +0.262 C 
ATOM      7  O   UNL     1       1.699  -2.168   2.250  0.00  0.00    -0.269 OA
ATOM      8  N   UNL     1       0.704  -0.486   1.193  0.00  0.00    -0.285 N 
ENDROOT
BRANCH   5   9
ATOM      9  N   UNL     1       1.449  -3.929   0.072  0.00  0.00    -0.216 N 
ATOM     10  H   UNL     1       1.632  -4.343   0.929  0.00  0.00    +0.173 HD
BRANCH   9  11
ATOM     11  S   UNL     1       1.428  -4.848  -1.305  0.00  0.00    +0.047 S 
ATOM     12  O   UNL     1       1.689  -6.173  -0.861  0.00  0.00    -0.155 OA
ATOM     13  O   UNL     1       0.197  -4.526  -1.938  0.00  0.00    -0.155 OA
BRANCH  11  14
ATOM     14  C   UNL     1       2.819  -4.236  -2.296  0.00  0.00    +0.223 C 
BRANCH  14  15
ATOM     15  C   UNL     1       2.896  -5.011  -3.586  0.00  0.00    -0.025 A 
ATOM     16  C   UNL     1       3.650  -6.168  -3.654  0.00  0.00    +0.005 A 
ATOM     17  C   UNL     1       3.721  -6.878  -4.838  0.00  0.00    +0.000 A 
ATOM     18  C   UNL     1       3.037  -6.432  -5.953  0.00  0.00    +0.000 A 
ATOM     19  C   UNL     1       2.282  -5.276  -5.885  0.00  0.00    +0.000 A 
ATOM     20  C   UNL     1       2.208  -4.568  -4.700  0.00  0.00    +0.005 A 
ENDBRANCH  14  15
ENDBRANCH  11  14
ENDBRANCH   9  11
ENDBRANCH   5   9
BRANCH   8  21
ATOM     21  C   UNL     1       0.842   0.388   2.361  0.00  0.00    +0.204 C 
BRANCH  21  22
ATOM     22  C   UNL     1      -0.335   0.187   3.280  0.00  0.00    +0.231 C 
ATOM     23  O   UNL     1      -1.204  -0.608   2.989  0.00  0.00    -0.274 OA
ATOM     24  N   UNL     1      -0.422   0.890   4.427  0.00  0.00    -0.310 N 
ATOM     25  H   UNL     1       0.273   1.525   4.660  0.00  0.00    +0.149 HD
BRANCH  24  26
ATOM     26  C   UNL     1      -1.566   0.695   5.321  0.00  0.00    +0.139 C 
BRANCH  26  27
ATOM     27  C   UNL     1      -1.424   1.593   6.522  0.00  0.00    -0.028 A 
ATOM     28  C   UNL     1      -0.755   1.137   7.645  0.00  0.00    +0.006 A 
ATOM     29  C   UNL     1      -0.620   1.958   8.754  0.00  0.00    +0.009 A 
ATOM     30  C   UNL     1      -1.151   3.220   8.733  0.00  0.00    +0.017 A 
ATOM     31  C   UNL     1      -1.831   3.699   7.606  0.00  0.00    +0.090 A 
ATOM     32  C   UNL     1      -1.956   2.865   6.492  0.00  0.00    +0.035 A 
ATOM     33  N   UNL     1      -2.250   4.972   7.857  0.00  0.00    -0.177 NA
ATOM     34  N   UNL     1      -1.952   5.404   8.971  0.00  0.00    -0.287 N 
ATOM     35  C   UNL     1      -1.208   4.371   9.711  0.00  0.00    +0.196 C 
ATOM     36  H   UNL     1      -2.173   6.287   9.309  0.00  0.00    +0.185 HD
BRANCH  35  37
ATOM     37  N   UNL     1       0.144   4.840  10.039  0.00  0.00    -0.306 NA
ATOM     38  H   UNL     1       0.112   5.609  10.692  0.00  0.00    +0.120 HD
ATOM     39  H   UNL     1       0.712   4.086  10.396  0.00  0.00    +0.120 HD
ENDBRANCH  35  37
ENDBRANCH  26  27
ENDBRANCH  24  26
ENDBRANCH  21  22
ENDBRANCH   8  21
TORSDOF 9
