REMARK  Name = ZINC36583880
REMARK  16 active torsions:
REMARK  status: ('A' for Active; 'I' for Inactive)
REMARK    1  A    between atoms: C_1  and  C_2
REMARK    2  A    between atoms: C_2  and  C_3
REMARK    3  A    between atoms: C_3  and  C_4
REMARK    4  A    between atoms: C_4  and  N_5
REMARK    5  A    between atoms: C_6  and  C_8
REMARK    6  A    between atoms: C_8  and  C_10
REMARK    7  A    between atoms: C_8  and  N_19
REMARK    8  A    between atoms: C_11  and  O_18
REMARK    9  A    between atoms: C_13  and  O_17
REMARK   10  A    between atoms: C_15  and  O_16
REMARK   11  A    between atoms: N_19  and  C_30
REMARK   12  A    between atoms: C_20  and  C_22
REMARK   13  A    between atoms: C_22  and  C_23
REMARK   14  A    between atoms: C_30  and  C_31
REMARK   15  A    between atoms: C_30  and  C_32
REMARK   16  A    between atoms: C_30  and  C_33
REMARK                            x       y       z     vdW  Elec       q    Type
REMARK                         _______ _______ _______ _____ _____    ______ ____
ROOT
ATOM      1  C   UNL     1      -4.233  -4.011  -0.533  0.00  0.00    +0.200 C 
ENDROOT
BRANCH   1   2
ATOM      2  C   UNL     1      -4.460  -3.411   0.830  0.00  0.00    +0.065 A 
ATOM      3  C   UNL     1      -3.716  -3.852   1.914  0.00  0.00    +0.129 A 
ATOM      4  C   UNL     1      -3.924  -3.300   3.169  0.00  0.00    +0.091 A 
ATOM      5  C   UNL     1      -4.877  -2.307   3.340  0.00  0.00    +0.124 A 
ATOM      6  C   UNL     1      -5.621  -1.865   2.256  0.00  0.00    +0.091 A 
ATOM      7  C   UNL     1      -5.409  -2.414   1.000  0.00  0.00    +0.129 A 
BRANCH   7   8
ATOM      8  O   UNL     1      -6.134  -1.979  -0.063  0.00  0.00    -0.506 OA
ATOM      9  H   UNL     1      -6.958  -2.466  -0.203  0.00  0.00    +0.292 HD
ENDBRANCH   7   8
BRANCH   5  10
ATOM     10  O   UNL     1      -5.082  -1.766   4.570  0.00  0.00    -0.507 OA
ATOM     11  H   UNL     1      -4.531  -0.994   4.757  0.00  0.00    +0.292 HD
ENDBRANCH   5  10
BRANCH   3  12
ATOM     12  O   UNL     1      -2.782  -4.825   1.747  0.00  0.00    -0.506 OA
ATOM     13  H   UNL     1      -1.917  -4.496   1.465  0.00  0.00    +0.292 HD
ENDBRANCH   3  12
ENDBRANCH   1   2
BRANCH   1  15
ATOM     14  N   UNL     1      -2.342  -2.666  -1.390  0.00  0.00    -0.313 N 
ATOM     15  C   UNL     1      -2.785  -3.848  -0.919  0.00  0.00    +0.238 C 
ATOM     16  O   UNL     1      -2.019  -4.782  -0.806  0.00  0.00    -0.273 OA
ATOM     17  H   UNL     1      -2.955  -1.920  -1.481  0.00  0.00    +0.149 HD
BRANCH  14  18
ATOM     18  C   UNL     1      -0.935  -2.508  -1.765  0.00  0.00    +0.104 C 
BRANCH  18  19
ATOM     19  C   UNL     1      -0.698  -1.081  -2.265  0.00  0.00    +0.018 C 
BRANCH  19  21
ATOM     20  C   UNL     1       1.010   0.511  -3.156  0.00  0.00    +0.004 C 
ATOM     21  C   UNL     1       0.772  -0.916  -2.657  0.00  0.00    -0.002 C 
ENDBRANCH  19  21
ENDBRANCH  18  19
ENDBRANCH  14  18
ENDBRANCH   1  15
BRANCH   1  22
ATOM     22  N   UNL     1      -4.573  -5.436  -0.503  0.00  0.00    -0.280 N 
ATOM     23  C   UNL     1      -5.016  -5.999   0.639  0.00  0.00    +0.221 C 
ATOM     24  O   UNL     1      -5.247  -5.305   1.607  0.00  0.00    -0.275 OA
BRANCH  22  25
ATOM     25  C   UNL     1      -4.432  -6.249  -1.713  0.00  0.00    +0.030 C 
ATOM     26  C   UNL     1      -3.724  -5.432  -2.796  0.00  0.00    +0.031 C 
ATOM     27  C   UNL     1      -3.607  -7.498  -1.395  0.00  0.00    +0.031 C 
ATOM     28  C   UNL     1      -5.817  -6.665  -2.212  0.00  0.00    +0.031 C 
ENDBRANCH  22  25
BRANCH  23  29
ATOM     29  C   UNL     1      -5.223  -7.489   0.713  0.00  0.00    +0.131 C 
BRANCH  29  30
ATOM     30  C   UNL     1      -5.940  -7.834   1.994  0.00  0.00    -0.039 A 
ATOM     31  C   UNL     1      -5.215  -8.105   3.139  0.00  0.00    +0.005 A 
ATOM     32  C   UNL     1      -5.872  -8.420   4.314  0.00  0.00    +0.015 A 
ATOM     33  C   UNL     1      -7.254  -8.465   4.343  0.00  0.00    +0.018 A 
ATOM     34  C   UNL     1      -7.979  -8.193   3.196  0.00  0.00    +0.015 A 
ATOM     35  C   UNL     1      -7.321  -7.873   2.023  0.00  0.00    +0.005 A 
ATOM     36 BR   UNL     1      -8.153  -8.897   5.949  0.00  0.00    -0.050 Br
ENDBRANCH  29  30
ENDBRANCH  23  29
ENDBRANCH   1  22
TORSDOF 12
