REMARK  Name = ZINC04649874
REMARK  6 active torsions:
REMARK  status: ('A' for Active; 'I' for Inactive)
REMARK    1  A    between atoms: C_5  and  C_7
REMARK    2  A    between atoms: C_10  and  O_26
REMARK    3  A    between atoms: C_11  and  C_13
REMARK    4  A    between atoms: C_13  and  C_15
REMARK    5  A    between atoms: C_13  and  C_19
REMARK    6  A    between atoms: C_15  and  N_16
REMARK                            x       y       z     vdW  Elec       q    Type
REMARK                         _______ _______ _______ _____ _____    ______ ____
ROOT
ATOM      1  C   UNL     1       0.807  -1.079  -0.633  0.00  0.00    +0.104 A 
ATOM      2  N   UNL     1       1.981  -1.653  -0.480  0.00  0.00    -0.170 NA
ATOM      3  N   UNL     1       1.782  -2.921   0.081  0.00  0.00    -0.246 N 
ATOM      4  C   UNL     1       0.448  -3.095   0.262  0.00  0.00    +0.213 A 
ATOM      5  C   UNL     1      -0.179  -1.969  -0.165  0.00  0.00    +0.050 A 
ATOM      6  H   UNL     1       2.475  -3.562   0.301  0.00  0.00    +0.192 HD
ENDROOT
BRANCH   1  11
ATOM      7  C   UNL     1      -0.540   1.698  -2.780  0.00  0.00    +0.001 A 
ATOM      8  C   UNL     1       0.110   2.797  -2.246  0.00  0.00    +0.004 A 
ATOM      9  C   UNL     1       0.987   2.643  -1.189  0.00  0.00    +0.051 A 
ATOM     10  C   UNL     1       1.219   1.384  -0.658  0.00  0.00    +0.188 A 
ATOM     11  C   UNL     1       0.564   0.272  -1.195  0.00  0.00    +0.049 A 
ATOM     12  C   UNL     1      -0.318   0.439  -2.260  0.00  0.00    +0.014 A 
ATOM     13  O   UNL     1       2.081   1.231   0.381  0.00  0.00    -0.287 OA
ENDBRANCH   1  11
BRANCH   4  14
ATOM     14  O   UNL     1      -0.152  -4.196   0.783  0.00  0.00    -0.492 OA
ATOM     15  H   UNL     1      -0.288  -4.154   1.740  0.00  0.00    +0.294 HD
ENDBRANCH   4  14
BRANCH   5  16
ATOM     16  C   UNL     1      -1.665  -1.718  -0.145  0.00  0.00    +0.082 C 
BRANCH  16  17
ATOM     17  C   UNL     1      -2.330  -2.555  -1.207  0.00  0.00    -0.038 A 
ATOM     18  C   UNL     1      -1.800  -3.785  -1.550  0.00  0.00    +0.005 A 
ATOM     19  C   UNL     1      -2.410  -4.553  -2.524  0.00  0.00    +0.015 A 
ATOM     20  C   UNL     1      -3.551  -4.091  -3.155  0.00  0.00    +0.018 A 
ATOM     21  C   UNL     1      -4.081  -2.860  -2.811  0.00  0.00    +0.015 A 
ATOM     22  C   UNL     1      -3.473  -2.095  -1.834  0.00  0.00    +0.005 A 
ATOM     23 BR   UNL     1      -4.386  -5.141  -4.488  0.00  0.00    -0.050 Br
ENDBRANCH  16  17
BRANCH  16  24
ATOM     24  C   UNL     1      -2.227  -2.094   1.227  0.00  0.00    +0.224 C 
BRANCH  24  25
ATOM     25  N   UNL     1      -1.426  -1.456   2.275  0.00  0.00    +0.023 N 
ATOM     26  O   UNL     1      -1.867  -0.506   2.879  0.00  0.00    -0.132 OA
ATOM     27  O   UNL     1      -0.324  -1.879   2.535  0.00  0.00    -0.132 OA
ENDBRANCH  24  25
ENDBRANCH  16  24
ENDBRANCH   5  16
TORSDOF 6
