REMARK  Name = ZINC09184414
REMARK  2 active torsions:
REMARK  status: ('A' for Active; 'I' for Inactive)
REMARK    1  A    between atoms: C_1  and  C_2
REMARK    2  A    between atoms: C_3  and  C_16
REMARK                            x       y       z     vdW  Elec       q    Type
REMARK                         _______ _______ _______ _____ _____    ______ ____
ROOT
ATOM      1  C   UNL     1      -0.018   1.503   0.010  0.00  0.00    +0.068 C 
ATOM      2  C   UNL     1       0.002  -0.004   0.002  0.00  0.00    +0.070 A 
ATOM      3  C   UNL     1       0.008  -0.819  -1.145  0.00  0.00    +0.047 A 
ATOM      4  C   UNL     1       0.027  -2.135  -0.714  0.00  0.00    +0.146 A 
ATOM      5  N   UNL     1       0.040  -3.335  -1.389  0.00  0.00    -0.342 N 
ATOM      6  H   UNL     1       0.036  -3.343  -2.358  0.00  0.00    +0.167 HD
ATOM      7  C   UNL     1       0.057  -4.515  -0.700  0.00  0.00    +0.026 A 
ATOM      8  C   UNL     1       0.063  -4.502   0.652  0.00  0.00    +0.038 A 
ATOM      9  C   UNL     1       0.052  -3.268   1.339  0.00  0.00    +0.278 A 
ATOM     10  O   UNL     1       0.059  -3.251   2.557  0.00  0.00    -0.265 OA
ATOM     11  N   UNL     1       0.034  -2.112   0.650  0.00  0.00    -0.179 N 
ATOM     12  N   UNL     1       0.023  -0.773   1.059  0.00  0.00    -0.166 NA
ATOM     13  C   UNL     1       0.083  -5.918   1.188  0.00  0.00    +0.043 C 
ATOM     14  C   UNL     1      -0.349  -6.803  -0.001  0.00  0.00    +0.011 C 
ATOM     15  C   UNL     1       0.071  -5.940  -1.210  0.00  0.00    +0.054 C 
ENDROOT
BRANCH   3  16
ATOM     16  C   UNL     1      -0.005  -0.355  -2.553  0.00  0.00    -0.013 A 
ATOM     17  C   UNL     1      -1.101  -0.629  -3.370  0.00  0.00    +0.010 A 
ATOM     18  C   UNL     1      -1.108  -0.195  -4.680  0.00  0.00    +0.016 A 
ATOM     19  C   UNL     1      -0.029   0.513  -5.182  0.00  0.00    +0.018 A 
ATOM     20  C   UNL     1       1.061   0.788  -4.376  0.00  0.00    +0.016 A 
ATOM     21  C   UNL     1       1.076   0.363  -3.063  0.00  0.00    +0.010 A 
ATOM     22 BR   UNL     1      -0.046   1.105  -6.978  0.00  0.00    -0.050 Br
ENDBRANCH   3  16
TORSDOF 1
