REMARK  Name = ZINC09882532
REMARK  14 active torsions:
REMARK  status: ('A' for Active; 'I' for Inactive)
REMARK    1  A    between atoms: C_1  and  C_2
REMARK    2  A    between atoms: C_2  and  C_3
REMARK    3  A    between atoms: C_3  and  C_4
REMARK    4  A    between atoms: C_4  and  N_5
REMARK    5  A    between atoms: N_5  and  C_6
REMARK    6  A    between atoms: C_7  and  N_18
REMARK    7  A    between atoms: N_8  and  C_15
REMARK    8  A    between atoms: C_15  and  C_16
REMARK    9  A    between atoms: C_16  and  C_17
REMARK   10  A    between atoms: C_19  and  C_21
REMARK   11  A    between atoms: C_21  and  S_22
REMARK   12  A    between atoms: S_22  and  C_23
REMARK   13  A    between atoms: N_33  and  C_34
REMARK   14  A    between atoms: C_34  and  C_35
REMARK                            x       y       z     vdW  Elec       q    Type
REMARK                         _______ _______ _______ _____ _____    ______ ____
ROOT
ATOM      1  N   UNL     1      -6.216  -1.222   0.115  0.00  0.00    -0.264 N 
ATOM      2  C   UNL     1      -5.242  -2.136   0.307  0.00  0.00    +0.230 C 
ATOM      3  O   UNL     1      -5.531  -3.299   0.502  0.00  0.00    -0.274 OA
ENDROOT
BRANCH   1   4
ATOM      4  C   UNL     1      -7.564  -1.632   0.045  0.00  0.00    +0.140 A 
ATOM      5  C   UNL     1      -7.992  -2.467  -0.967  0.00  0.00    +0.127 A 
ATOM      6  N   UNL     1      -9.313  -2.849  -1.008  0.00  0.00    -0.280 N 
ATOM      7  C   UNL     1     -10.178  -2.413  -0.074  0.00  0.00    +0.331 A 
ATOM      8  O   UNL     1     -11.341  -2.762  -0.129  0.00  0.00    -0.246 OA
ATOM      9  N   UNL     1      -9.779  -1.599   0.919  0.00  0.00    -0.273 N 
ATOM     10  H   UNL     1     -10.442  -1.286   1.598  0.00  0.00    +0.173 HD
ATOM     11  C   UNL     1      -8.495  -1.200   1.009  0.00  0.00    +0.277 A 
ATOM     12  O   UNL     1      -8.142  -0.466   1.916  0.00  0.00    -0.266 OA
BRANCH   5  13
ATOM     13  N   UNL     1      -7.109  -2.912  -1.921  0.00  0.00    -0.343 N 
ATOM     14  H   UNL     1      -6.208  -2.554  -1.953  0.00  0.00    +0.144 HD
ATOM     15  H   UNL     1      -7.388  -3.583  -2.564  0.00  0.00    +0.144 HD
ENDBRANCH   5  13
BRANCH   6  16
ATOM     16  C   UNL     1      -9.781  -3.736  -2.076  0.00  0.00    +0.128 C 
BRANCH  16  17
ATOM     17  C   UNL     1      -9.638  -5.192  -1.629  0.00  0.00    +0.018 C 
ATOM     18  C   UNL     1     -10.127  -6.118  -2.745  0.00  0.00    +0.005 C 
ENDBRANCH  16  17
ENDBRANCH   6  16
ENDBRANCH   1   4
BRANCH   1  19
ATOM     19  C   UNL     1      -5.873   0.196  -0.020  0.00  0.00    +0.114 C 
BRANCH  19  20
ATOM     20  C   UNL     1      -5.688   0.536  -1.500  0.00  0.00    +0.019 C 
BRANCH  20  22
ATOM     21  C   UNL     1      -5.144   2.358  -3.121  0.00  0.00    +0.004 C 
ATOM     22  C   UNL     1      -5.330   2.017  -1.641  0.00  0.00    -0.002 C 
ENDBRANCH  20  22
ENDBRANCH  19  20
ENDBRANCH   1  19
BRANCH   2  23
ATOM     23  C   UNL     1      -3.796  -1.714   0.279  0.00  0.00    +0.173 C 
BRANCH  23  24
ATOM     24  S   UNL     1      -2.741  -3.156   0.566  0.00  0.00    -0.078 S 
BRANCH  24  25
ATOM     25  C   UNL     1      -1.153  -2.395   0.483  0.00  0.00    +0.173 A 
ATOM     26  N   UNL     1      -1.090  -1.106   0.258  0.00  0.00    -0.223 NA
ATOM     27  C   UNL     1       0.090  -0.460   0.182  0.00  0.00    +0.079 A 
ATOM     28  C   UNL     1       0.158   0.916  -0.058  0.00  0.00    +0.028 A 
ATOM     29  C   UNL     1       1.376   1.532  -0.126  0.00  0.00    +0.002 A 
ATOM     30  C   UNL     1       2.552   0.810   0.039  0.00  0.00    +0.001 A 
ATOM     31  C   UNL     1       2.518  -0.537   0.274  0.00  0.00    +0.015 A 
ATOM     32  C   UNL     1       1.289  -1.190   0.349  0.00  0.00    +0.065 A 
ATOM     33  C   UNL     1       1.192  -2.635   0.600  0.00  0.00    +0.263 A 
ATOM     34  O   UNL     1       2.188  -3.317   0.752  0.00  0.00    -0.267 OA
ATOM     35  N   UNL     1      -0.047  -3.177   0.655  0.00  0.00    -0.283 N 
BRANCH  35  36
ATOM     36  C   UNL     1      -0.202  -4.613   0.903  0.00  0.00    +0.154 C 
BRANCH  36  37
ATOM     37  C   UNL     1      -0.300  -4.859   2.386  0.00  0.00    -0.013 C 
ATOM     38  C   UNL     1      -1.324  -5.513   2.876  0.00  0.00    +0.005 C 
ENDBRANCH  36  37
ENDBRANCH  35  36
ENDBRANCH  24  25
ENDBRANCH  23  24
ENDBRANCH   2  23
TORSDOF 12
