REMARK  Name = ZINC39226267
REMARK  11 active torsions:
REMARK  status: ('A' for Active; 'I' for Inactive)
REMARK    1  A    between atoms: C_1  and  C_2
REMARK    2  A    between atoms: C_2  and  C_3
REMARK    3  A    between atoms: C_2  and  C_4
REMARK    4  A    between atoms: C_2  and  O_5
REMARK    5  A    between atoms: O_5  and  C_6
REMARK    6  A    between atoms: C_6  and  C_8
REMARK    7  A    between atoms: C_8  and  N_9
REMARK    8  A    between atoms: C_10  and  C_12
REMARK    9  A    between atoms: C_15  and  C_18
REMARK   10  A    between atoms: C_24  and  O_35
REMARK   11  A    between atoms: N_31  and  C_34
REMARK                            x       y       z     vdW  Elec       q    Type
REMARK                         _______ _______ _______ _____ _____    ______ ____
ROOT
ATOM      1  C   UNL     1      10.274   1.857  -3.264  0.00  0.00    -0.017 A 
ATOM      2  C   UNL     1      10.669   2.645  -2.183  0.00  0.00    +0.012 A 
ATOM      3  C   UNL     1      11.950   3.149  -2.135  0.00  0.00    +0.046 A 
ATOM      4  C   UNL     1      12.852   2.878  -3.162  0.00  0.00    +0.127 A 
ATOM      5  C   UNL     1      12.460   2.100  -4.238  0.00  0.00    +0.023 A 
ATOM      6  C   UNL     1      11.179   1.584  -4.286  0.00  0.00    +0.018 A 
ATOM      7  C   UNL     1      13.405   1.796  -5.374  0.00  0.00    +0.152 C 
ATOM      8  C   UNL     1      14.846   2.058  -4.930  0.00  0.00    +0.084 C 
ATOM      9  C   UNL     1      14.902   3.432  -4.253  0.00  0.00    +0.110 C 
ATOM     10  O   UNL     1      14.107   3.391  -3.069  0.00  0.00    -0.485 OA
ATOM     11  C   UNL     1      14.358   4.496  -5.207  0.00  0.00    +0.029 C 
ATOM     12  C   UNL     1      14.492   5.875  -4.556  0.00  0.00    -0.075 C 
ATOM     13  N   UNL     1      15.905   6.147  -4.265  0.00  0.00    +0.378 N 
ATOM     14  C   UNL     1      16.410   5.172  -3.291  0.00  0.00    -0.075 C 
ATOM     15  C   UNL     1      16.351   3.766  -3.893  0.00  0.00    +0.029 C 
ATOM     16  C   UNL     1      16.037   7.502  -3.713  0.00  0.00    -0.096 C 
ATOM     17  H   UNL     1      16.442   6.079  -5.117  0.00  0.00    -0.082 HD
ENDROOT
BRANCH   1  21
ATOM     18  C   UNL     1       6.324   0.284  -3.428  0.00  0.00    +0.037 A 
ATOM     19  C   UNL     1       6.716   1.077  -2.346  0.00  0.00    +0.013 A 
ATOM     20  C   UNL     1       7.994   1.585  -2.294  0.00  0.00    +0.009 A 
ATOM     21  C   UNL     1       8.898   1.309  -3.321  0.00  0.00    -0.018 A 
ATOM     22  C   UNL     1       8.507   0.517  -4.401  0.00  0.00    +0.009 A 
ATOM     23  C   UNL     1       7.231   0.004  -4.452  0.00  0.00    +0.013 A 
BRANCH  18  25
ATOM     24  N   UNL     1       4.078   0.009  -2.496  0.00  0.00    -0.301 N 
ATOM     25  C   UNL     1       4.953  -0.262  -3.484  0.00  0.00    +0.245 C 
ATOM     26  O   UNL     1       4.614  -0.956  -4.423  0.00  0.00    -0.270 OA
ATOM     27  H   UNL     1       4.349   0.562  -1.747  0.00  0.00    +0.150 HD
BRANCH  24  28
ATOM     28  C   UNL     1       2.718  -0.533  -2.552  0.00  0.00    +0.225 C 
BRANCH  28  29
ATOM     29  C   UNL     1       1.948  -0.086  -1.336  0.00  0.00    +0.325 C 
ATOM     30  O   UNL     1       2.481   0.614  -0.508  0.00  0.00    -0.249 OA
BRANCH  29  31
ATOM     31  O   UNL     1       0.671  -0.465  -1.174  0.00  0.00    -0.458 OA
BRANCH  31  33
ATOM     32  C   UNL     1      -0.019   1.526   0.010  0.00  0.00    +0.055 C 
ATOM     33  C   UNL     1       0.002  -0.004   0.002  0.00  0.00    +0.105 C 
ATOM     34  C   UNL     1       0.742  -0.511   1.242  0.00  0.00    +0.055 C 
ATOM     35  C   UNL     1      -1.433  -0.534   0.013  0.00  0.00    +0.055 C 
ENDBRANCH  31  33
ENDBRANCH  29  31
ENDBRANCH  28  29
ENDBRANCH  24  28
ENDBRANCH  18  25
ENDBRANCH   1  21
BRANCH   7  36
ATOM     36  O   UNL     1      13.267   0.425  -5.753  0.00  0.00    -0.387 OA
ATOM     37  H   UNL     1      12.378   0.186  -6.049  0.00  0.00    +0.210 HD
ENDBRANCH   7  36
TORSDOF 7
