REMARK  Name = ZINC26577940
REMARK  12 active torsions:
REMARK  status: ('A' for Active; 'I' for Inactive)
REMARK    1  A    between atoms: C_1  and  C_2
REMARK    2  A    between atoms: C_2  and  C_19
REMARK    3  A    between atoms: C_10  and  C_11
REMARK    4  A    between atoms: C_11  and  C_12
REMARK    5  A    between atoms: C_12  and  C_13
REMARK    6  A    between atoms: N_21  and  C_22
REMARK    7  A    between atoms: C_22  and  CA_23
REMARK    8  A    between atoms: CA_23  and  C_25
REMARK    9  A    between atoms: CA_23  and  N_28
REMARK   10  A    between atoms: C_29  and  O_31
REMARK   11  A    between atoms: O_31  and  C_32
REMARK   12  A    between atoms: C_32  and  C_33
REMARK                            x       y       z     vdW  Elec       q    Type
REMARK                         _______ _______ _______ _____ _____    ______ ____
ROOT
ATOM      1  C   UNL     1       5.564  -4.806  -5.646  0.00  0.00    +0.226 C 
ATOM      2  O   UNL     1       6.335  -4.728  -6.579  0.00  0.00    -0.275 OA
ATOM      3  N   UNL     1       5.789  -4.095  -4.524  0.00  0.00    -0.312 N 
ATOM      4  H   UNL     1       5.090  -4.166  -3.678  0.00  0.00    +0.149 HD
ENDROOT
BRANCH   1   6
ATOM      5  C   UNL     1       3.081  -4.861  -5.593  0.00  0.00    +0.029 C 
ATOM      6  C   UNL     1       4.353  -5.699  -5.742  0.00  0.00    +0.104 C 
ATOM      7  C   UNL     1       4.345  -6.417  -7.098  0.00  0.00    +0.025 C 
ATOM      8  C   UNL     1       3.290  -7.526  -7.077  0.00  0.00    +0.023 C 
ATOM      9  C   UNL     1       3.742  -8.649  -6.136  0.00  0.00    +0.125 C 
ATOM     10  N   UNL     1       4.129  -8.059  -4.854  0.00  0.00    -0.314 N 
ATOM     11  C   UNL     1       4.404  -6.745  -4.657  0.00  0.00    +0.148 A 
ATOM     12  N   UNL     1       4.705  -6.595  -3.403  0.00  0.00    -0.133 NA
ATOM     13  N   UNL     1       4.635  -7.734  -2.805  0.00  0.00    -0.134 NA
ATOM     14  C   UNL     1       4.285  -8.661  -3.660  0.00  0.00    +0.133 A 
BRANCH  14  15
ATOM     15  C   UNL     1       4.093 -10.126  -3.364  0.00  0.00    +0.076 C 
BRANCH  15  16
ATOM     16  C   UNL     1       5.417 -10.866  -3.568  0.00  0.00    +0.011 C 
BRANCH  16  17
ATOM     17  C   UNL     1       5.221 -12.353  -3.267  0.00  0.00    -0.014 C 
ATOM     18  C   UNL     1       4.888 -12.536  -1.784  0.00  0.00    -0.016 C 
ATOM     19  C   UNL     1       4.754 -14.029  -1.476  0.00  0.00    -0.082 C 
ATOM     20  N   UNL     1       6.013 -14.712  -1.802  0.00  0.00    +0.379 N 
ATOM     21  C   UNL     1       6.329 -14.591  -3.231  0.00  0.00    -0.082 C 
ATOM     22  C   UNL     1       6.510 -13.114  -3.591  0.00  0.00    -0.016 C 
ATOM     23  H   UNL     1       6.833 -14.265  -1.222  0.00  0.00    -0.086 HD
ATOM     24  H   UNL     1       5.926 -15.780  -1.551  0.00  0.00    -0.086 HD
ENDBRANCH  16  17
ENDBRANCH  15  16
ENDBRANCH  14  15
ENDBRANCH   1   6
BRANCH   3  25
ATOM     25  C   UNL     1       6.966  -3.227  -4.431  0.00  0.00    +0.138 C 
BRANCH  25  26
ATOM     26  CA  UNL     1       6.986  -2.539  -3.064  0.00  0.00    +0.206 C 
BRANCH  26  27
ATOM     27  N   UNL     1       5.720  -1.831  -2.856  0.00  0.00    -0.266 N 
ATOM     28  C   UNL     1       5.283  -1.587  -1.605  0.00  0.00    +0.401 C 
ATOM     29  O   UNL     1       5.939  -1.953  -0.649  0.00  0.00    -0.226 OA
ATOM     30  H   UNL     1       5.127  -1.500  -3.720  0.00  0.00    +0.153 HD
BRANCH  28  31
ATOM     31  O   UNL     1       4.120  -0.936  -1.413  0.00  0.00    -0.446 OA
BRANCH  31  32
ATOM     32  C   UNL     1       3.711  -0.707  -0.039  0.00  0.00    +0.269 C 
BRANCH  32  33
ATOM     33  C   UNL     1       2.396   0.029  -0.022  0.00  0.00    -0.010 A 
ATOM     34  C   UNL     1       1.208  -0.679  -0.014  0.00  0.00    +0.007 A 
ATOM     35  C   UNL     1       0.002  -0.004   0.002  0.00  0.00    +0.000 A 
ATOM     36  C   UNL     1      -0.017   1.378   0.010  0.00  0.00    +0.000 A 
ATOM     37  C   UNL     1       1.171   2.086   0.002  0.00  0.00    +0.000 A 
ATOM     38  C   UNL     1       2.377   1.411  -0.014  0.00  0.00    +0.007 A 
ENDBRANCH  32  33
ENDBRANCH  31  32
ENDBRANCH  28  31
ENDBRANCH  26  27
BRANCH  26  39
ATOM     39  C   UNL     1       8.126  -1.556  -3.013  0.00  0.00    +0.377 C 
ATOM     40  O   UNL     1       7.904  -0.383  -2.823  0.00  0.00    -0.244 OA
ATOM     41  OXT UNL     1       9.388  -1.981  -3.180  0.00  0.00    -0.244 OA
ENDBRANCH  26  39
ENDBRANCH  25  26
ENDBRANCH   3  25
TORSDOF 11
