REMARK  Name = ZINC19645828
REMARK  4 active torsions:
REMARK  status: ('A' for Active; 'I' for Inactive)
REMARK    1  A    between atoms: C_1  and  O_2
REMARK    2  A    between atoms: O_2  and  C_3
REMARK    3  A    between atoms: C_8  and  N_9
REMARK    4  A    between atoms: N_22  and  C_23
REMARK                            x       y       z     vdW  Elec       q    Type
REMARK                         _______ _______ _______ _____ _____    ______ ____
ROOT
ATOM      1  N   UNL     1      -0.076  -2.780  -0.013  0.00  0.00    -0.236 N 
ATOM      2  C   UNL     1       0.786  -3.334   0.907  0.00  0.00    +0.195 C 
ATOM      3  N   UNL     1       1.850  -3.370   0.032  0.00  0.00    -0.284 N 
ATOM      4  C   UNL     1       0.824  -3.353  -1.015  0.00  0.00    +0.214 C 
ATOM      5  C   UNL     1       0.428  -4.688  -1.578  0.00  0.00    +0.025 A 
ATOM      6  C   UNL     1       0.048  -5.883  -1.009  0.00  0.00    +0.010 A 
ATOM      7  C   UNL     1      -0.263  -6.965  -1.813  0.00  0.00    +0.001 A 
ATOM      8  C   UNL     1      -0.192  -6.843  -3.188  0.00  0.00    +0.002 A 
ATOM      9  C   UNL     1       0.187  -5.648  -3.763  0.00  0.00    +0.024 A 
ATOM     10  C   UNL     1       0.503  -4.553  -2.961  0.00  0.00    +0.041 A 
ATOM     11  N   UNL     1       0.906  -3.260  -3.300  0.00  0.00    -0.282 N 
ATOM     12  C   UNL     1       1.115  -2.491  -2.213  0.00  0.00    +0.265 C 
ATOM     13  O   UNL     1       1.467  -1.331  -2.204  0.00  0.00    -0.271 OA
ATOM     14  N   UNL     1       0.644  -3.700   2.176  0.00  0.00    -0.182 NA
ATOM     15  H   UNL     1       1.022  -2.950  -4.212  0.00  0.00    +0.155 HD
ATOM     16  H   UNL     1       2.818  -3.397   0.085  0.00  0.00    +0.152 HD
ENDROOT
BRANCH  14  17
ATOM     17  C   UNL     1       1.679  -4.224   2.841  0.00  0.00    +0.233 C 
ATOM     18  N   UNL     1       2.926  -4.418   2.311  0.00  0.00    -0.208 NA
ATOM     19  C   UNL     1       3.696  -4.942   3.216  0.00  0.00    +0.119 C 
ATOM     20  C   UNL     1       5.026  -5.464   3.610  0.00  0.00    +0.029 A 
ATOM     21  C   UNL     1       6.233  -5.607   2.958  0.00  0.00    +0.012 A 
ATOM     22  C   UNL     1       7.327  -6.151   3.632  0.00  0.00    +0.001 A 
ATOM     23  C   UNL     1       7.201  -6.544   4.945  0.00  0.00    +0.002 A 
ATOM     24  C   UNL     1       5.989  -6.404   5.613  0.00  0.00    +0.028 A 
ATOM     25  C   UNL     1       4.888  -5.864   4.956  0.00  0.00    +0.076 A 
ATOM     26  N   UNL     1       3.607  -5.623   5.375  0.00  0.00    -0.227 NA
ATOM     27  C   UNL     1       2.858  -5.097   4.444  0.00  0.00    +0.161 C 
ATOM     28  N   UNL     1       1.640  -4.621   4.108  0.00  0.00    -0.307 N 
ATOM     29  H   UNL     1       0.866  -4.578   4.692  0.00  0.00    +0.170 HD
ENDBRANCH  14  17
BRANCH   1  35
ATOM     30  C   UNL     1      -1.201  -0.638   0.010  0.00  0.00    +0.141 A 
ATOM     31  C   UNL     1      -2.374   0.099   0.019  0.00  0.00    +0.047 A 
ATOM     32  C   UNL     1      -3.596  -0.547   0.028  0.00  0.00    +0.004 A 
ATOM     33  C   UNL     1      -3.653  -1.929   0.027  0.00  0.00    +0.002 A 
ATOM     34  C   UNL     1      -2.488  -2.671   0.018  0.00  0.00    +0.027 A 
ATOM     35  C   UNL     1      -1.257  -2.030   0.003  0.00  0.00    +0.081 A 
BRANCH  30  37
ATOM     36  C   UNL     1      -0.017   1.425   0.010  0.00  0.00    +0.277 C 
ATOM     37  O   UNL     1       0.002  -0.004   0.002  0.00  0.00    -0.493 OA
ENDBRANCH  30  37
ENDBRANCH   1  35
TORSDOF 3
