REMARK  Name = ZINC05185153
REMARK  8 active torsions:
REMARK  status: ('A' for Active; 'I' for Inactive)
REMARK    1  A    between atoms: C_1  and  O_2
REMARK    2  A    between atoms: O_2  and  C_3
REMARK    3  A    between atoms: C_3  and  C_5
REMARK    4  A    between atoms: C_5  and  C_6
REMARK    5  A    between atoms: C_13  and  N_30
REMARK    6  A    between atoms: C_14  and  C_28
REMARK    7  A    between atoms: N_22  and  C_25
REMARK    8  A    between atoms: C_25  and  C_26
REMARK                            x       y       z     vdW  Elec       q    Type
REMARK                         _______ _______ _______ _____ _____    ______ ____
ROOT
ATOM      1  C   UNL     1       1.374  -2.514  -2.380  0.00  0.00    +0.055 A 
ATOM      2  C   UNL     1       2.701  -2.634  -2.533  0.00  0.00    +0.062 A 
ATOM      3  C   UNL     1       2.954  -3.040  -3.864  0.00  0.00    +0.245 A 
ATOM      4  N   UNL     1       1.811  -3.154  -4.474  0.00  0.00    -0.135 NA
ATOM      5  N   UNL     1       0.794  -2.834  -3.560  0.00  0.00    -0.277 N 
ATOM      6  H   UNL     1      -0.159  -2.839  -3.744  0.00  0.00    +0.189 HD
ATOM      7  O   UNL     1       4.217  -3.249  -4.324  0.00  0.00    -0.421 OA
ATOM      8  C   UNL     1       5.212  -3.316  -3.418  0.00  0.00    +0.201 C 
ATOM      9  C   UNL     1       5.093  -2.946  -2.123  0.00  0.00    +0.110 C 
ATOM     10  C   UNL     1       3.813  -2.407  -1.548  0.00  0.00    +0.145 C 
ATOM     11  C   UNL     1       3.940  -0.960  -1.196  0.00  0.00    -0.001 A 
ATOM     12  C   UNL     1       4.218   0.149  -1.967  0.00  0.00    +0.007 A 
ATOM     13  C   UNL     1       4.263   1.376  -1.314  0.00  0.00    +0.000 A 
ATOM     14  C   UNL     1       4.038   1.477   0.044  0.00  0.00    +0.002 A 
ATOM     15  C   UNL     1       3.758   0.367   0.825  0.00  0.00    +0.024 A 
ATOM     16  C   UNL     1       3.711  -0.871   0.183  0.00  0.00    +0.041 A 
ATOM     17  N   UNL     1       3.458  -2.126   0.710  0.00  0.00    -0.266 N 
ATOM     18  C   UNL     1       3.499  -3.089  -0.235  0.00  0.00    +0.241 C 
ATOM     19  O   UNL     1       3.319  -4.276  -0.063  0.00  0.00    -0.274 OA
ENDROOT
BRANCH   8  20
ATOM     20  N   UNL     1       6.429  -3.792  -3.838  0.00  0.00    -0.328 N 
ATOM     21  H   UNL     1       6.550  -4.067  -4.760  0.00  0.00    +0.145 HD
ATOM     22  H   UNL     1       7.168  -3.854  -3.212  0.00  0.00    +0.145 HD
ENDBRANCH   8  20
BRANCH   9  23
ATOM     23  C   UNL     1       6.233  -3.072  -1.265  0.00  0.00    +0.102 C 
ATOM     24  N   UNL     1       7.137  -3.171  -0.584  0.00  0.00    -0.191 NA
ENDBRANCH   9  23
BRANCH   1  25
ATOM     25  C   UNL     1       0.657  -2.104  -1.120  0.00  0.00    +0.175 C 
BRANCH  25  26
ATOM     26  C   UNL     1       0.598  -0.600  -1.043  0.00  0.00    +0.313 C 
ATOM     27  O   UNL     1       1.088   0.070  -1.921  0.00  0.00    -0.250 OA
BRANCH  26  29
ATOM     28  C   UNL     1      -0.017   1.425   0.010  0.00  0.00    +0.280 C 
ATOM     29  O   UNL     1       0.002  -0.004   0.002  0.00  0.00    -0.468 OA
ENDBRANCH  26  29
ENDBRANCH  25  26
ENDBRANCH   1  25
BRANCH  17  30
ATOM     30  C   UNL     1       3.179  -2.378   2.126  0.00  0.00    +0.140 C 
BRANCH  30  31
ATOM     31  C   UNL     1       1.695  -2.287   2.369  0.00  0.00    -0.015 C 
ATOM     32  C   UNL     1       1.060  -3.288   2.926  0.00  0.00    +0.005 C 
ENDBRANCH  30  31
ENDBRANCH  17  30
TORSDOF 7
