REMARK  Name = ZINC01890644
REMARK  11 active torsions:
REMARK  status: ('A' for Active; 'I' for Inactive)
REMARK    1  A    between atoms: C_1  and  C_2
REMARK    2  A    between atoms: C_2  and  O_3
REMARK    3  A    between atoms: O_3  and  C_4
REMARK    4  A    between atoms: C_4  and  C_6
REMARK    5  A    between atoms: C_10  and  N_11
REMARK    6  A    between atoms: N_11  and  C_12
REMARK    7  A    between atoms: C_12  and  N_14
REMARK    8  A    between atoms: C_15  and  C_17
REMARK    9  A    between atoms: C_18  and  C_30
REMARK   10  A    between atoms: C_21  and  C_22
REMARK   11  A    between atoms: C_32  and  C_36
REMARK                            x       y       z     vdW  Elec       q    Type
REMARK                         _______ _______ _______ _____ _____    ______ ____
ROOT
ATOM      1  C   UNL     1      -0.116  -1.246   0.479  0.00  0.00    +0.141 C 
ATOM      2  S   UNL     1       0.970   0.028   0.120  0.00  0.00    -0.018 S 
ENDROOT
BRANCH   1   3
ATOM      3  N   UNL     1       0.303  -2.526   0.417  0.00  0.00    -0.263 N 
ATOM      4  C   UNL     1       1.576  -2.803   0.073  0.00  0.00    +0.255 C 
ATOM      5  O   UNL     1       2.348  -1.898  -0.181  0.00  0.00    -0.270 OA
ATOM      6  H   UNL     1      -0.312  -3.248   0.621  0.00  0.00    +0.157 HD
BRANCH   4   7
ATOM      7  C   UNL     1       2.034  -4.200   0.006  0.00  0.00    +0.106 A 
ATOM      8  C   UNL     1       2.111  -5.024  -1.089  0.00  0.00    +0.147 A 
ATOM      9  O   UNL     1       2.586  -6.193  -0.653  0.00  0.00    -0.359 OA
ATOM     10  N   UNL     1       2.800  -6.210   0.534  0.00  0.00    -0.077 NA
ATOM     11  C   UNL     1       2.516  -5.066   1.103  0.00  0.00    +0.129 A 
ATOM     12  C   UNL     1       1.737  -4.676  -2.506  0.00  0.00    +0.090 C 
BRANCH  11  13
ATOM     13  C   UNL     1       2.650  -4.714   2.537  0.00  0.00    +0.041 A 
ATOM     14  C   UNL     1       3.456  -3.643   2.924  0.00  0.00    +0.052 A 
ATOM     15  C   UNL     1       3.573  -3.318   4.261  0.00  0.00    +0.021 A 
ATOM     16  C   UNL     1       2.901  -4.058   5.217  0.00  0.00    +0.003 A 
ATOM     17  C   UNL     1       2.104  -5.124   4.841  0.00  0.00    +0.021 A 
ATOM     18  C   UNL     1       1.975  -5.457   3.506  0.00  0.00    +0.052 A 
ATOM     19 CL   UNL     1       0.975  -6.795   3.036  0.00  0.00    -0.083 Cl
ATOM     20 CL   UNL     1       4.305  -2.717   1.726  0.00  0.00    -0.083 Cl
ENDBRANCH  11  13
ENDBRANCH   4   7
ENDBRANCH   1   3
BRANCH   1  21
ATOM     21  N   UNL     1      -1.389  -0.970   0.823  0.00  0.00    -0.290 N 
ATOM     22  H   UNL     1      -2.004  -1.691   1.026  0.00  0.00    +0.154 HD
BRANCH  21  27
ATOM     23  C   UNL     1      -3.081   0.826   1.212  0.00  0.00    +0.091 A 
ATOM     24  C   UNL     1      -3.271   2.268   1.207  0.00  0.00    -0.021 A 
ATOM     25  C   UNL     1      -2.182   2.991   0.871  0.00  0.00    -0.004 A 
ATOM     26  S   UNL     1      -0.916   1.790   0.570  0.00  0.00    -0.077 S 
ATOM     27  C   UNL     1      -1.819   0.345   0.886  0.00  0.00    +0.086 A 
ATOM     28  C   UNL     1      -2.081   4.482   0.779  0.00  0.00    +0.046 C 
ATOM     29  C   UNL     1      -3.298   5.094   1.487  0.00  0.00    -0.009 C 
ATOM     30  C   UNL     1      -4.562   4.378   1.002  0.00  0.00    +0.008 C 
ATOM     31  C   UNL     1      -4.592   2.949   1.546  0.00  0.00    +0.037 C 
ATOM     32  C   UNL     1      -3.391   6.584   1.152  0.00  0.00    +0.008 C 
BRANCH  23  33
ATOM     33  C   UNL     1      -4.176  -0.084   1.551  0.00  0.00    +0.342 C 
ATOM     34  O   UNL     1      -4.353  -0.418   2.707  0.00  0.00    -0.245 OA
BRANCH  33  35
ATOM     35  O   UNL     1      -4.990  -0.551   0.581  0.00  0.00    -0.461 OA
BRANCH  35  37
ATOM     36  C   UNL     1      -6.866  -1.871  -0.237  0.00  0.00    +0.048 C 
ATOM     37  C   UNL     1      -6.055  -1.449   0.990  0.00  0.00    +0.229 C 
ENDBRANCH  35  37
ENDBRANCH  33  35
ENDBRANCH  23  33
ENDBRANCH  21  27
ENDBRANCH   1  21
TORSDOF 8
