REMARK  Name = ZINC63165731
REMARK  10 active torsions:
REMARK  status: ('A' for Active; 'I' for Inactive)
REMARK    1  A    between atoms: C_7  and  C_10
REMARK    2  A    between atoms: C_10  and  C_11
REMARK    3  A    between atoms: C_11  and  C_12
REMARK    4  A    between atoms: C_12  and  C_13
REMARK    5  A    between atoms: N_15  and  N_16
REMARK    6  A    between atoms: C_17  and  C_19
REMARK    7  A    between atoms: C_19  and  O_20
REMARK    8  A    between atoms: O_20  and  C_21
REMARK    9  A    between atoms: C_24  and  C_27
REMARK   10  A    between atoms: C_30  and  C_33
REMARK                            x       y       z     vdW  Elec       q    Type
REMARK                         _______ _______ _______ _____ _____    ______ ____
ROOT
ATOM      1  N   UNL     1      -1.757  -6.785  -4.437  0.00  0.00    -0.232 N 
ATOM      2  C   UNL     1      -2.570  -7.831  -4.681  0.00  0.00    +0.267 C 
ATOM      3  O   UNL     1      -3.116  -8.403  -3.761  0.00  0.00    -0.271 OA
ATOM      4  H   UNL     1      -1.320  -6.328  -5.173  0.00  0.00    +0.173 HD
ENDROOT
BRANCH   1   7
ATOM      5  C   UNL     1      -0.729  -5.309  -2.876  0.00  0.00    +0.229 C 
ATOM      6  O   UNL     1      -0.183  -4.738  -3.796  0.00  0.00    -0.274 OA
ATOM      7  N   UNL     1      -1.542  -6.356  -3.120  0.00  0.00    -0.234 N 
ATOM      8  H   UNL     1      -1.979  -6.813  -2.385  0.00  0.00    +0.173 HD
BRANCH   5   9
ATOM      9  C   UNL     1      -0.499  -4.848  -1.460  0.00  0.00    +0.097 C 
BRANCH   9  10
ATOM     10  C   UNL     1       0.457  -3.653  -1.462  0.00  0.00    +0.014 C 
BRANCH  10  11
ATOM     11  C   UNL     1       0.691  -3.186  -0.024  0.00  0.00    +0.033 C 
BRANCH  11  18
ATOM     12  C   UNL     1      -0.016   1.348   0.009  0.00  0.00    +0.001 A 
ATOM     13  C   UNL     1       1.166   2.101   0.002  0.00  0.00    +0.002 A 
ATOM     14  C   UNL     1       2.391   1.535  -0.013  0.00  0.00    +0.026 A 
ATOM     15  C   UNL     1       2.529   0.120  -0.022  0.00  0.00    +0.043 A 
ATOM     16  N   UNL     1       3.587  -0.654  -0.037  0.00  0.00    -0.380 N 
ATOM     17  C   UNL     1       3.143  -2.053  -0.041  0.00  0.00    +0.144 C 
ATOM     18  C   UNL     1       1.631  -2.008  -0.025  0.00  0.00    -0.042 C 
ATOM     19  C   UNL     1       1.295  -0.698  -0.014  0.00  0.00    -0.001 A 
ATOM     20  C   UNL     1       0.002  -0.004   0.002  0.00  0.00    +0.010 A 
ATOM     21  H   UNL     1       4.509  -0.353  -0.045  0.00  0.00    +0.160 HD
ENDBRANCH  11  18
ENDBRANCH  10  11
ENDBRANCH   9  10
ENDBRANCH   5   9
ENDBRANCH   1   7
BRANCH   2  22
ATOM     22  C   UNL     1      -2.800  -8.292  -6.097  0.00  0.00    +0.326 C 
BRANCH  22  23
ATOM     23  O   UNL     1      -3.692  -9.408  -6.096  0.00  0.00    -0.483 OA
BRANCH  23  24
ATOM     24  C   UNL     1      -4.007  -9.948  -7.302  0.00  0.00    +0.121 A 
ATOM     25  C   UNL     1      -3.461  -9.416  -8.463  0.00  0.00    +0.046 A 
ATOM     26  C   UNL     1      -3.777  -9.962  -9.688  0.00  0.00    +0.012 A 
ATOM     27  C   UNL     1      -4.647 -11.050  -9.762  0.00  0.00    -0.018 A 
ATOM     28  C   UNL     1      -5.193 -11.582  -8.594  0.00  0.00    +0.012 A 
ATOM     29  C   UNL     1      -4.869 -11.035  -7.371  0.00  0.00    +0.046 A 
BRANCH  27  30
ATOM     30  C   UNL     1      -4.990 -11.639 -11.078  0.00  0.00    -0.018 A 
ATOM     31  C   UNL     1      -4.438 -11.108 -12.245  0.00  0.00    +0.010 A 
ATOM     32  C   UNL     1      -4.755 -11.654 -13.467  0.00  0.00    +0.019 A 
ATOM     33  C   UNL     1      -5.631 -12.741 -13.540  0.00  0.00    +0.052 A 
ATOM     34  C   UNL     1      -6.183 -13.272 -12.371  0.00  0.00    +0.019 A 
ATOM     35  C   UNL     1      -5.860 -12.728 -11.149  0.00  0.00    +0.010 A 
BRANCH  33  36
ATOM     36  C   UNL     1      -5.963 -13.310 -14.812  0.00  0.00    +0.099 C 
ATOM     37  N   UNL     1      -6.227 -13.761 -15.821  0.00  0.00    -0.191 NA
ENDBRANCH  33  36
ENDBRANCH  27  30
ENDBRANCH  23  24
ENDBRANCH  22  23
ENDBRANCH   2  22
TORSDOF 10
