REMARK  Name = ZINC38700554
REMARK  8 active torsions:
REMARK  status: ('A' for Active; 'I' for Inactive)
REMARK    1  A    between atoms: C_1  and  C_2
REMARK    2  A    between atoms: C_6  and  C_36
REMARK    3  A    between atoms: C_7  and  C_11
REMARK    4  A    between atoms: C_11  and  O_13
REMARK    5  A    between atoms: O_13  and  C_14
REMARK    6  A    between atoms: C_21  and  N_35
REMARK    7  A    between atoms: C_22  and  C_33
REMARK    8  A    between atoms: C_23  and  C_25
REMARK                            x       y       z     vdW  Elec       q    Type
REMARK                         _______ _______ _______ _____ _____    ______ ____
ROOT
ATOM      1  C   UNL     1       0.148  -6.654   4.393  0.00  0.00    +0.136 A 
ATOM      2  C   UNL     1       0.237  -7.805   3.623  0.00  0.00    +0.047 A 
ATOM      3  C   UNL     1       0.291  -9.042   4.234  0.00  0.00    +0.012 A 
ATOM      4  C   UNL     1       0.256  -9.140   5.614  0.00  0.00    +0.008 A 
ATOM      5  C   UNL     1       0.167  -7.994   6.388  0.00  0.00    +0.138 A 
ATOM      6  C   UNL     1       0.119  -6.748   5.775  0.00  0.00    +0.093 A 
ATOM      7  O   UNL     1       0.132  -8.069   7.741  0.00  0.00    -0.441 OA
ATOM      8  C   UNL     1      -0.202  -9.225   8.339  0.00  0.00    +0.199 C 
ATOM      9  C   UNL     1      -0.137 -10.412   7.692  0.00  0.00    +0.098 C 
ATOM     10  C   UNL     1       0.316 -10.498   6.261  0.00  0.00    +0.101 C 
ENDROOT
BRANCH  10  11
ATOM     11  C   UNL     1       1.732 -11.011   6.216  0.00  0.00    +0.002 A 
ATOM     12  C   UNL     1       2.745 -10.303   6.838  0.00  0.00    +0.046 A 
ATOM     13  C   UNL     1       4.045 -10.774   6.795  0.00  0.00    +0.020 A 
ATOM     14  C   UNL     1       4.332 -11.952   6.132  0.00  0.00    +0.003 A 
ATOM     15  C   UNL     1       3.321 -12.660   5.510  0.00  0.00    +0.020 A 
ATOM     16  C   UNL     1       2.019 -12.193   5.557  0.00  0.00    +0.046 A 
ATOM     17 CL   UNL     1       0.748 -13.086   4.783  0.00  0.00    -0.083 Cl
ATOM     18 CL   UNL     1       2.384  -8.822   7.670  0.00  0.00    -0.083 Cl
ENDBRANCH  10  11
BRANCH   8  19
ATOM     19  N   UNL     1      -0.621  -9.201   9.646  0.00  0.00    -0.328 N 
ATOM     20  H   UNL     1      -0.673  -8.359  10.124  0.00  0.00    +0.145 HD
ATOM     21  H   UNL     1      -0.866 -10.027  10.092  0.00  0.00    +0.145 HD
ENDBRANCH   8  19
BRANCH   9  22
ATOM     22  C   UNL     1      -0.507 -11.610   8.383  0.00  0.00    +0.101 C 
ATOM     23  N   UNL     1      -0.800 -12.560   8.932  0.00  0.00    -0.191 NA
ENDBRANCH   9  22
BRANCH   1  24
ATOM     24  O   UNL     1       0.095  -5.436   3.793  0.00  0.00    -0.420 OA
BRANCH  24  25
ATOM     25  C   UNL     1       1.216  -4.685   3.783  0.00  0.00    +0.380 C 
ATOM     26  O   UNL     1       2.206  -5.064   4.378  0.00  0.00    -0.241 OA
BRANCH  25  33
ATOM     27  C   UNL     1      -0.275   1.334  -0.269  0.00  0.00    +0.044 C 
ATOM     28  C   UNL     1       0.479   0.349   0.587  0.00  0.00    -0.047 A 
ATOM     29  C   UNL     1       1.797   0.610   0.937  0.00  0.00    +0.004 A 
ATOM     30  C   UNL     1       2.495  -0.271   1.712  0.00  0.00    +0.012 A 
ATOM     31  C   UNL     1       1.877  -1.443   2.157  0.00  0.00    +0.024 A 
ATOM     32  C   UNL     1       2.308  -2.575   2.976  0.00  0.00    +0.010 A 
ATOM     33  C   UNL     1       1.240  -3.411   3.055  0.00  0.00    +0.216 A 
ATOM     34  O   UNL     1       0.204  -2.893   2.362  0.00  0.00    -0.448 OA
ATOM     35  C   UNL     1       0.541  -1.713   1.806  0.00  0.00    +0.137 A 
ATOM     36  C   UNL     1      -0.151  -0.798   1.020  0.00  0.00    +0.050 A 
ATOM     37  C   UNL     1       3.663  -2.774   3.605  0.00  0.00    +0.048 C 
ENDBRANCH  25  33
ENDBRANCH  24  25
ENDBRANCH   1  24
TORSDOF 6
