REMARK  Name = ZINC35289997
REMARK  5 active torsions:
REMARK  status: ('A' for Active; 'I' for Inactive)
REMARK    1  A    between atoms: C_1  and  C_2
REMARK    2  A    between atoms: C_8  and  C_10
REMARK    3  A    between atoms: N_21  and  C_32
REMARK    4  A    between atoms: C_22  and  C_24
REMARK    5  A    between atoms: N_26  and  C_27
REMARK                            x       y       z     vdW  Elec       q    Type
REMARK                         _______ _______ _______ _____ _____    ______ ____
ROOT
ATOM      1  C   UNL     1      -3.646  -4.389  -0.006  0.00  0.00    +0.123 C 
ATOM      2  C   UNL     1      -3.558  -5.133  -1.377  0.00  0.00    +0.155 C 
ATOM      3  C   UNL     1      -4.397  -6.409  -1.246  0.00  0.00    +0.004 C 
ATOM      4  C   UNL     1      -5.684  -6.041  -1.247  0.00  0.00    +0.009 C 
ATOM      5  C   UNL     1      -5.627  -4.558  -1.337  0.00  0.00    +0.127 C 
ATOM      6  C   UNL     1      -5.136  -4.008   0.052  0.00  0.00    +0.128 C 
ATOM      7  C   UNL     1      -5.418  -2.538  -0.081  0.00  0.00    +0.224 C 
ATOM      8  O   UNL     1      -4.847  -1.655   0.523  0.00  0.00    -0.275 OA
ATOM      9  N   UNL     1      -6.413  -2.353  -0.986  0.00  0.00    -0.283 N 
ATOM     10  C   UNL     1      -6.804  -3.675  -1.611  0.00  0.00    +0.199 C 
ATOM     11  O   UNL     1      -4.455  -4.287  -2.183  0.00  0.00    -0.358 OA
ENDROOT
BRANCH   1  19
ATOM     12  C   UNL     1       0.311   1.270  -0.438  0.00  0.00    +0.089 C 
ATOM     13  C   UNL     1      -0.321   0.224   0.443  0.00  0.00    +0.136 A 
ATOM     14  C   UNL     1      -1.095  -0.795   0.028  0.00  0.00    +0.091 A 
ATOM     15  C   UNL     1      -1.482  -1.542   1.162  0.00  0.00    +0.168 A 
ATOM     16  N   UNL     1      -0.950  -0.978   2.216  0.00  0.00    -0.063 NA
ATOM     17  O   UNL     1      -0.204   0.143   1.778  0.00  0.00    -0.358 OA
ATOM     18  N   UNL     1      -2.289  -2.680   1.160  0.00  0.00    -0.267 N 
ATOM     19  C   UNL     1      -2.774  -3.159  -0.003  0.00  0.00    +0.225 C 
ATOM     20  O   UNL     1      -2.509  -2.601  -1.046  0.00  0.00    -0.275 OA
ATOM     21  H   UNL     1      -2.501  -3.127   1.994  0.00  0.00    +0.156 HD
ENDBRANCH   1  19
BRANCH  10  22
ATOM     22  C   UNL     1      -8.049  -4.246  -0.984  0.00  0.00    +0.237 C 
ATOM     23  O   UNL     1      -8.453  -3.806   0.072  0.00  0.00    -0.274 OA
ATOM     24  N   UNL     1      -8.715  -5.245  -1.596  0.00  0.00    -0.311 N 
ATOM     25  H   UNL     1      -8.393  -5.597  -2.441  0.00  0.00    +0.149 HD
BRANCH  24  26
ATOM     26  C   UNL     1      -9.926  -5.799  -0.986  0.00  0.00    +0.073 C 
ATOM     27  C   UNL     1      -9.555  -6.936  -0.012  0.00  0.00    +0.022 C 
ATOM     28  C   UNL     1     -10.687  -7.977  -0.193  0.00  0.00    +0.002 C 
ATOM     29  C   UNL     1     -10.965  -7.919  -1.715  0.00  0.00    +0.002 C 
ATOM     30  C   UNL     1     -10.823  -6.424  -2.069  0.00  0.00    +0.022 C 
ENDBRANCH  24  26
ENDBRANCH  10  22
BRANCH   9  31
ATOM     31  C   UNL     1      -7.036  -1.062  -1.286  0.00  0.00    +0.077 C 
ATOM     32  C   UNL     1      -6.395   0.189  -0.680  0.00  0.00    +0.024 C 
ATOM     33  C   UNL     1      -7.729  -0.328  -0.136  0.00  0.00    +0.024 C 
ENDBRANCH   9  31
TORSDOF 4
