REMARK  Name = ZINC09725374
REMARK  8 active torsions:
REMARK  status: ('A' for Active; 'I' for Inactive)
REMARK    1  A    between atoms: C_2  and  C_3
REMARK    2  A    between atoms: C_3  and  N_4
REMARK    3  A    between atoms: C_8  and  S_31
REMARK    4  A    between atoms: N_13  and  C_14
REMARK    5  A    between atoms: C_14  and  C_16
REMARK    6  A    between atoms: C_19  and  S_22
REMARK    7  A    between atoms: S_22  and  N_25
REMARK    8  A    between atoms: S_31  and  N_34
REMARK                            x       y       z     vdW  Elec       q    Type
REMARK                         _______ _______ _______ _____ _____    ______ ____
ROOT
ATOM      1  N   UNL     1      -3.541   5.809   7.194  0.00  0.00    -0.317 N 
ATOM      2  C   UNL     1      -4.341   6.010   8.304  0.00  0.00    +0.058 A 
ATOM      3  C   UNL     1      -4.414   7.141   9.131  0.00  0.00    +0.029 A 
ATOM      4  C   UNL     1      -5.273   7.173  10.204  0.00  0.00    +0.030 A 
ATOM      5  C   UNL     1      -6.091   6.095  10.501  0.00  0.00    +0.106 A 
ATOM      6  C   UNL     1      -6.039   4.967   9.702  0.00  0.00    +0.045 A 
ATOM      7  C   UNL     1      -5.180   4.934   8.629  0.00  0.00    +0.041 A 
ATOM      8  S   UNL     1      -4.807   3.733   7.377  0.00  0.00    -0.052 S 
ATOM      9  C   UNL     1      -3.607   4.636   6.509  0.00  0.00    +0.167 A 
ATOM     10  N   UNL     1      -2.921   4.271   5.431  0.00  0.00    -0.152 NA
ENDROOT
BRANCH   5  11
ATOM     11  S   UNL     1      -7.184   6.160  11.881  0.00  0.00    +0.056 S 
ATOM     12  O   UNL     1      -7.431   7.536  12.139  0.00  0.00    -0.153 OA
ATOM     13  O   UNL     1      -8.230   5.236  11.615  0.00  0.00    -0.153 OA
BRANCH  11  14
ATOM     14  N   UNL     1      -6.356   5.574  13.190  0.00  0.00    -0.204 NA
ATOM     15  H   UNL     1      -5.438   5.278  13.091  0.00  0.00    +0.144 HD
ATOM     16  H   UNL     1      -6.790   5.527  14.057  0.00  0.00    +0.144 HD
ENDBRANCH  11  14
ENDBRANCH   5  11
BRANCH  10  17
ATOM     17  C   UNL     1      -3.120   3.066   4.888  0.00  0.00    +0.269 C 
ATOM     18  O   UNL     1      -3.930   2.301   5.382  0.00  0.00    -0.268 OA
BRANCH  17  19
ATOM     19  C   UNL     1      -2.355   2.660   3.686  0.00  0.00    +0.039 A 
ATOM     20  C   UNL     1      -2.561   1.403   3.118  0.00  0.00    +0.015 A 
ATOM     21  C   UNL     1      -1.846   1.030   1.998  0.00  0.00    +0.029 A 
ATOM     22  C   UNL     1      -0.927   1.900   1.439  0.00  0.00    +0.106 A 
ATOM     23  C   UNL     1      -0.715   3.146   2.002  0.00  0.00    +0.029 A 
ATOM     24  C   UNL     1      -1.427   3.532   3.119  0.00  0.00    +0.015 A 
BRANCH  22  25
ATOM     25  S   UNL     1      -0.017   1.417   0.010  0.00  0.00    +0.061 S 
ATOM     26  O   UNL     1       0.002  -0.004   0.002  0.00  0.00    -0.153 OA
ATOM     27  O   UNL     1       1.172   2.195   0.003  0.00  0.00    -0.153 OA
BRANCH  25  28
ATOM     28  N   UNL     1      -0.897   1.885  -1.312  0.00  0.00    -0.177 NA
ATOM     29  C   UNL     1      -1.885   0.979  -1.914  0.00  0.00    +0.109 C 
ATOM     30  C   UNL     1      -3.232   1.712  -2.000  0.00  0.00    +0.017 C 
ATOM     31  C   UNL     1      -3.044   3.027  -2.758  0.00  0.00    +0.003 C 
ATOM     32  C   UNL     1      -2.058   3.919  -1.999  0.00  0.00    +0.017 C 
ATOM     33  C   UNL     1      -0.702   3.213  -1.909  0.00  0.00    +0.109 C 
ENDBRANCH  25  28
ENDBRANCH  22  25
ENDBRANCH  17  19
ENDBRANCH  10  17
BRANCH   1  34
ATOM     34  C   UNL     1      -2.621   6.862   6.756  0.00  0.00    +0.151 C 
BRANCH  34  36
ATOM     35  C   UNL     1      -1.083   6.592   4.878  0.00  0.00    +0.005 C 
ATOM     36  C   UNL     1      -1.421   6.236   6.093  0.00  0.00    -0.013 C 
ENDBRANCH  34  36
ENDBRANCH   1  34
TORSDOF 8
