REMARK  Name = ZINC59460884
REMARK  5 active torsions:
REMARK  status: ('A' for Active; 'I' for Inactive)
REMARK    1  A    between atoms: C_1  and  C_2
REMARK    2  A    between atoms: C_5  and  C_8
REMARK    3  A    between atoms: N_9  and  C_10
REMARK    4  A    between atoms: C_13  and  S_16
REMARK    5  A    between atoms: S_16  and  N_19
REMARK                            x       y       z     vdW  Elec       q    Type
REMARK                         _______ _______ _______ _____ _____    ______ ____
ROOT
ATOM      1  C   UNL     1       0.094  -6.272   1.096  0.00  0.00    +0.064 A 
ATOM      2  C   UNL     1      -0.751  -6.980   0.238  0.00  0.00    +0.029 A 
ATOM      3  C   UNL     1      -0.727  -8.360   0.236  0.00  0.00    +0.031 A 
ATOM      4  C   UNL     1       0.131  -9.041   1.081  0.00  0.00    +0.113 A 
ATOM      5  C   UNL     1       0.970  -8.346   1.933  0.00  0.00    +0.031 A 
ATOM      6  C   UNL     1       0.962  -6.966   1.941  0.00  0.00    +0.029 A 
ENDROOT
BRANCH   4   7
ATOM      7  S   UNL     1       0.155 -10.803   1.071  0.00  0.00    +0.102 S 
ATOM      8  O   UNL     1       0.652 -11.209   2.338  0.00  0.00    -0.146 OA
ATOM      9  O   UNL     1      -1.110 -11.224   0.578  0.00  0.00    -0.146 OA
BRANCH   7  10
ATOM     10  N   UNL     1       1.280 -11.271  -0.051  0.00  0.00    -0.093 NA
ATOM     11  C   UNL     1       1.501 -12.538  -0.262  0.00  0.00    +0.212 C 
ATOM     12  N   UNL     1       0.801 -13.486   0.446  0.00  0.00    -0.369 N 
ATOM     13  N   UNL     1       2.435 -12.927  -1.193  0.00  0.00    -0.369 N 
ATOM     14  H   UNL     1       0.142 -13.212   1.103  0.00  0.00    +0.159 HD
ATOM     15  H   UNL     1       2.929 -12.258  -1.693  0.00  0.00    +0.159 HD
ATOM     16  H   UNL     1       2.600 -13.870  -1.350  0.00  0.00    +0.159 HD
ATOM     17  H   UNL     1       0.966 -14.429   0.289  0.00  0.00    +0.159 HD
ENDBRANCH   7  10
ENDBRANCH   4   7
BRANCH   1  19
ATOM     18  C   UNL     1       0.060  -4.246  -0.021  0.00  0.00    +0.119 C 
ATOM     19  N   UNL     1       0.075  -4.904   1.103  0.00  0.00    -0.255 NA
BRANCH  18  24
ATOM     20  C   UNL     1      -0.018   1.503   0.010  0.00  0.00    +0.044 C 
ATOM     21  C   UNL     1       0.002  -0.004   0.002  0.00  0.00    -0.050 A 
ATOM     22  C   UNL     1       0.006  -0.686  -1.202  0.00  0.00    +0.004 A 
ATOM     23  C   UNL     1       0.025  -2.065  -1.218  0.00  0.00    +0.009 A 
ATOM     24  C   UNL     1       0.041  -2.774  -0.013  0.00  0.00    -0.007 A 
ATOM     25  C   UNL     1       0.037  -2.078   1.199  0.00  0.00    +0.009 A 
ATOM     26  C   UNL     1       0.023  -0.699   1.199  0.00  0.00    +0.004 A 
ENDBRANCH  18  24
ENDBRANCH   1  19
TORSDOF 4
