REMARK  Name = ZINC16977039
REMARK  7 active torsions:
REMARK  status: ('A' for Active; 'I' for Inactive)
REMARK    1  A    between atoms: C_1  and  C_2
REMARK    2  A    between atoms: C_3  and  C_14
REMARK    3  A    between atoms: C_4  and  C_7
REMARK    4  A    between atoms: C_20  and  S_22
REMARK    5  A    between atoms: S_22  and  C_23
REMARK    6  A    between atoms: C_23  and  C_24
REMARK    7  A    between atoms: N_26  and  C_27
REMARK                            x       y       z     vdW  Elec       q    Type
REMARK                         _______ _______ _______ _____ _____    ______ ____
ROOT
ATOM      1  C   UNL     1       2.042  -1.707  -0.151  0.00  0.00    +0.255 C 
ATOM      2  O   UNL     1       2.335  -2.177  -1.234  0.00  0.00    -0.270 OA
ATOM      3  N   UNL     1       2.272  -2.412   0.974  0.00  0.00    -0.259 N 
ATOM      4  C   UNL     1       2.846  -3.678   0.897  0.00  0.00    +0.189 A 
ATOM      5  N   UNL     1       3.231  -4.357  -0.165  0.00  0.00    -0.125 NA
ATOM      6  N   UNL     1       3.781  -5.609  -0.015  0.00  0.00    -0.133 NA
ATOM      7  C   UNL     1       3.920  -6.125   1.192  0.00  0.00    +0.160 A 
ATOM      8  S   UNL     1       3.263  -4.813   2.212  0.00  0.00    -0.024 S 
ATOM      9  H   UNL     1       2.008  -1.986   1.954  0.00  0.00    +0.157 HD
ENDROOT
BRANCH   1  12
ATOM     10  C   UNL     1       3.544   1.109  -0.091  0.00  0.00    +0.090 C 
ATOM     11  C   UNL     1       2.060   0.855  -0.043  0.00  0.00    +0.147 A 
ATOM     12  C   UNL     1       1.435  -0.367  -0.070  0.00  0.00    +0.106 A 
ATOM     13  C   UNL     1       0.004  -0.006   0.003  0.00  0.00    +0.127 A 
ATOM     14  N   UNL     1      -0.016   1.301   0.059  0.00  0.00    -0.077 NA
ATOM     15  O   UNL     1       1.094   1.773   0.035  0.00  0.00    -0.359 OA
BRANCH  13  16
ATOM     16  C   UNL     1      -1.159  -0.927   0.010  0.00  0.00    +0.023 A 
ATOM     17  C   UNL     1      -1.236  -1.964  -0.918  0.00  0.00    +0.011 A 
ATOM     18  C   UNL     1      -2.319  -2.818  -0.906  0.00  0.00    +0.001 A 
ATOM     19  C   UNL     1      -3.329  -2.647   0.024  0.00  0.00    +0.001 A 
ATOM     20  C   UNL     1      -3.260  -1.620   0.947  0.00  0.00    +0.020 A 
ATOM     21  C   UNL     1      -2.177  -0.762   0.949  0.00  0.00    +0.050 A 
ATOM     22 CL   UNL     1      -2.087   0.523   2.113  0.00  0.00    -0.083 Cl
ENDBRANCH  13  16
ENDBRANCH   1  12
BRANCH   7  23
ATOM     23  S   UNL     1       4.582  -7.685   1.670  0.00  0.00    -0.088 S 
BRANCH  23  24
ATOM     24  C   UNL     1       5.050  -8.463   0.100  0.00  0.00    +0.172 C 
BRANCH  24  25
ATOM     25  C   UNL     1       5.639  -9.824   0.369  0.00  0.00    +0.224 C 
ATOM     26  O   UNL     1       5.734 -10.229   1.508  0.00  0.00    -0.275 OA
ATOM     27  N   UNL     1       6.061 -10.591  -0.656  0.00  0.00    -0.312 N 
ATOM     28  H   UNL     1       5.974 -10.224  -1.689  0.00  0.00    +0.149 HD
BRANCH  27  29
ATOM     29  C   UNL     1       6.633 -11.914  -0.394  0.00  0.00    +0.073 C 
ATOM     30  C   UNL     1       8.124 -11.771  -0.080  0.00  0.00    +0.022 C 
ATOM     31  C   UNL     1       8.722 -13.153   0.193  0.00  0.00    +0.002 C 
ATOM     32  C   UNL     1       8.543 -14.039  -1.041  0.00  0.00    +0.000 C 
ATOM     33  C   UNL     1       7.052 -14.182  -1.355  0.00  0.00    +0.002 C 
ATOM     34  C   UNL     1       6.454 -12.800  -1.628  0.00  0.00    +0.022 C 
ENDBRANCH  27  29
ENDBRANCH  24  25
ENDBRANCH  23  24
ENDBRANCH   7  23
TORSDOF 6
