REMARK  Name = ZINC08586330
REMARK  7 active torsions:
REMARK  status: ('A' for Active; 'I' for Inactive)
REMARK    1  A    between atoms: C_9  and  O_28
REMARK    2  A    between atoms: C_10  and  C_11
REMARK    3  A    between atoms: C_11  and  N_12
REMARK    4  A    between atoms: N_12  and  C_13
REMARK    5  A    between atoms: C_13  and  C_14
REMARK    6  A    between atoms: C_14  and  N_67
REMARK    7  A    between atoms: N_21  and  C_22
REMARK                            x       y       z     vdW  Elec       q    Type
REMARK                         _______ _______ _______ _____ _____    ______ ____
ROOT
ATOM      1  N   UNL     1      -2.574  -3.513  -1.328  0.00  0.00    -0.283 N 
ATOM      2  C   UNL     1      -2.044  -4.710  -1.651  0.00  0.00    +0.303 C 
ATOM      3  O   UNL     1      -1.385  -5.323  -0.833  0.00  0.00    -0.253 OA
ATOM      4  N   UNL     1      -2.245  -5.227  -2.879  0.00  0.00    -0.296 N 
ATOM      5  H   UNL     1      -2.771  -4.738  -3.531  0.00  0.00    +0.151 HD
ENDROOT
BRANCH   4   6
ATOM      6  C   UNL     1      -1.670  -6.528  -3.229  0.00  0.00    +0.074 C 
ATOM      7  C   UNL     1      -0.229  -6.336  -3.706  0.00  0.00    +0.022 C 
ATOM      8  C   UNL     1       0.372  -7.695  -4.072  0.00  0.00    +0.002 C 
ATOM      9  C   UNL     1      -0.454  -8.334  -5.189  0.00  0.00    +0.000 C 
ATOM     10  C   UNL     1      -1.895  -8.525  -4.713  0.00  0.00    +0.002 C 
ATOM     11  C   UNL     1      -2.496  -7.167  -4.347  0.00  0.00    +0.022 C 
ENDBRANCH   4   6
BRANCH   1  12
ATOM     12  C   UNL     1      -2.355  -2.951   0.007  0.00  0.00    +0.149 C 
BRANCH  12  22
ATOM     13  C   UNL     1      -1.192  -0.751   0.007  0.00  0.00    +0.020 A 
ATOM     14  C   UNL     1       0.002  -0.004   0.002  0.00  0.00    +0.005 A 
ATOM     15  C   UNL     1      -0.017   1.399   0.010  0.00  0.00    +0.059 A 
ATOM     16  C   UNL     1       1.158   2.096   0.002  0.00  0.00    +0.163 A 
ATOM     17  C   UNL     1       2.388   1.422  -0.010  0.00  0.00    +0.164 A 
ATOM     18  C   UNL     1       2.433   0.055  -0.018  0.00  0.00    +0.077 A 
ATOM     19  C   UNL     1       1.243  -0.688  -0.012  0.00  0.00    +0.079 A 
ATOM     20  N   UNL     1       1.266  -2.026  -0.019  0.00  0.00    -0.213 NA
ATOM     21  C   UNL     1       0.153  -2.729  -0.014  0.00  0.00    +0.218 A 
ATOM     22  C   UNL     1      -1.103  -2.112  -0.000  0.00  0.00    +0.032 A 
ATOM     23  O   UNL     1       3.558   2.117  -0.012  0.00  0.00    -0.485 OA
ATOM     24  C   UNL     1       3.487   3.497  -0.385  0.00  0.00    +0.270 C 
ATOM     25  C   UNL     1       2.317   4.140   0.371  0.00  0.00    +0.270 C 
ATOM     26  O   UNL     1       1.115   3.458   0.001  0.00  0.00    -0.485 OA
BRANCH  21  27
ATOM     27  O   UNL     1       0.226  -4.083  -0.022  0.00  0.00    -0.492 OA
ATOM     28  H   UNL     1       0.254  -4.481   0.859  0.00  0.00    +0.294 HD
ENDBRANCH  21  27
ENDBRANCH  12  22
ENDBRANCH   1  12
BRANCH   1  29
ATOM     29  C   UNL     1      -3.367  -2.774  -2.313  0.00  0.00    +0.091 C 
BRANCH  29  30
ATOM     30  C   UNL     1      -2.449  -1.861  -3.128  0.00  0.00    -0.060 C 
BRANCH  30  35
ATOM     31  C   UNL     1      -4.386  -0.426  -3.466  0.00  0.00    -0.079 C 
ATOM     32  C   UNL     1      -4.763   0.672  -4.492  0.00  0.00    -0.020 C 
ATOM     33  C   UNL     1      -3.388   1.120  -5.040  0.00  0.00    -0.020 C 
ATOM     34  C   UNL     1      -2.439  -0.059  -4.757  0.00  0.00    -0.079 C 
ATOM     35  N   UNL     1      -3.255  -1.097  -4.126  0.00  0.00    +0.381 N 
ATOM     36  H   UNL     1      -3.606  -1.745  -4.842  0.00  0.00    -0.082 HD
ENDBRANCH  30  35
ENDBRANCH  29  30
ENDBRANCH   1  29
TORSDOF 7
