REMARK  Name = ZINC20929229
REMARK  9 active torsions:
REMARK  status: ('A' for Active; 'I' for Inactive)
REMARK    1  A    between atoms: C_1  and  C_2
REMARK    2  A    between atoms: C_5  and  S_8
REMARK    3  A    between atoms: S_8  and  N_11
REMARK    4  A    between atoms: N_15  and  C_28
REMARK    5  A    between atoms: C_16  and  C_18
REMARK    6  A    between atoms: C_16  and  C_19
REMARK    7  A    between atoms: N_21  and  C_22
REMARK    8  A    between atoms: C_30  and  C_35
REMARK    9  A    between atoms: C_33  and  C_34
REMARK                            x       y       z     vdW  Elec       q    Type
REMARK                         _______ _______ _______ _____ _____    ______ ____
ROOT
ATOM      1  N   UNL     1       0.154  -2.402   0.302  0.00  0.00    -0.165 NA
ATOM      2  C   UNL     1       0.115  -1.572   1.515  0.00  0.00    +0.205 C 
ATOM      3  C   UNL     1      -0.286  -0.173   1.136  0.00  0.00    +0.236 C 
ATOM      4  O   UNL     1      -0.596   0.599   2.019  0.00  0.00    -0.274 OA
ATOM      5  N   UNL     1      -0.321   0.257  -0.126  0.00  0.00    -0.254 N 
ATOM      6  C   UNL     1      -0.058  -0.577  -1.291  0.00  0.00    +0.129 C 
ATOM      7  C   UNL     1       0.760  -1.810  -0.902  0.00  0.00    +0.145 C 
ATOM      8  C   UNL     1      -1.388  -1.026  -1.899  0.00  0.00    +0.043 C 
ENDROOT
BRANCH   5   9
ATOM      9  C   UNL     1      -0.627   1.604  -0.346  0.00  0.00    +0.041 A 
ATOM     10  C   UNL     1      -1.923   1.979  -0.677  0.00  0.00    +0.027 A 
ATOM     11  C   UNL     1      -2.222   3.310  -0.889  0.00  0.00    -0.049 A 
ATOM     12  C   UNL     1      -1.231   4.269  -0.782  0.00  0.00    +0.004 A 
ATOM     13  C   UNL     1       0.061   3.899  -0.458  0.00  0.00    +0.005 A 
ATOM     14  C   UNL     1       0.366   2.569  -0.240  0.00  0.00    -0.029 A 
ATOM     15  C   UNL     1       1.775   2.167   0.114  0.00  0.00    +0.045 C 
ATOM     16  C   UNL     1      -3.629   3.718  -1.243  0.00  0.00    +0.044 C 
ENDBRANCH   5   9
BRANCH   6  17
ATOM     17  C   UNL     1       0.708   0.225  -2.312  0.00  0.00    +0.238 C 
ATOM     18  O   UNL     1       1.880  -0.013  -2.514  0.00  0.00    -0.273 OA
ATOM     19  N   UNL     1       0.090   1.206  -2.999  0.00  0.00    -0.311 N 
ATOM     20  H   UNL     1      -0.948   1.478  -2.757  0.00  0.00    +0.149 HD
BRANCH  19  21
ATOM     21  C   UNL     1       0.801   1.909  -4.070  0.00  0.00    +0.073 C 
ATOM     22  C   UNL     1       1.629   3.048  -3.470  0.00  0.00    +0.022 C 
ATOM     23  C   UNL     1       2.371   3.782  -4.588  0.00  0.00    +0.002 C 
ATOM     24  C   UNL     1       1.359   4.356  -5.581  0.00  0.00    +0.000 C 
ATOM     25  C   UNL     1       0.531   3.218  -6.181  0.00  0.00    +0.002 C 
ATOM     26  C   UNL     1      -0.211   2.483  -5.063  0.00  0.00    +0.022 C 
ENDBRANCH  19  21
ENDBRANCH   6  17
BRANCH   1  27
ATOM     27  S   UNL     1      -0.458  -3.941   0.291  0.00  0.00    +0.061 S 
ATOM     28  O   UNL     1      -1.419  -4.003   1.335  0.00  0.00    -0.153 OA
ATOM     29  O   UNL     1      -0.781  -4.239  -1.060  0.00  0.00    -0.153 OA
BRANCH  27  34
ATOM     30  C   UNL     1       4.030  -7.659   1.853  0.00  0.00    +0.044 C 
ATOM     31  C   UNL     1       2.908  -6.731   1.463  0.00  0.00    -0.050 A 
ATOM     32  C   UNL     1       2.087  -6.191   2.436  0.00  0.00    +0.005 A 
ATOM     33  C   UNL     1       1.060  -5.339   2.078  0.00  0.00    +0.029 A 
ATOM     34  C   UNL     1       0.852  -5.027   0.747  0.00  0.00    +0.106 A 
ATOM     35  C   UNL     1       1.670  -5.571  -0.226  0.00  0.00    +0.029 A 
ATOM     36  C   UNL     1       2.701  -6.418   0.133  0.00  0.00    +0.005 A 
ENDBRANCH  27  34
ENDBRANCH   1  27
TORSDOF 5
