REMARK  Name = ZINC39596933
REMARK  7 active torsions:
REMARK  status: ('A' for Active; 'I' for Inactive)
REMARK    1  A    between atoms: C_1  and  C_2
REMARK    2  A    between atoms: C_2  and  C_4
REMARK    3  A    between atoms: C_2  and  N_10
REMARK    4  A    between atoms: C_11  and  C_13
REMARK    5  A    between atoms: C_24  and  C_26
REMARK    6  A    between atoms: C_31  and  O_32
REMARK    7  A    between atoms: O_32  and  C_33
REMARK                            x       y       z     vdW  Elec       q    Type
REMARK                         _______ _______ _______ _____ _____    ______ ____
ROOT
ATOM      1  C   UNL     1      -3.033  -0.871  -1.357  0.00  0.00    +0.100 C 
ATOM      2  C   UNL     1      -4.015  -0.157  -0.401  0.00  0.00    +0.121 C 
ATOM      3  N   UNL     1      -4.802   0.743  -1.276  0.00  0.00    -0.296 N 
ATOM      4  C   UNL     1      -5.032  -0.050  -2.508  0.00  0.00    +0.115 C 
ATOM      5  C   UNL     1      -3.706  -0.802  -2.738  0.00  0.00    -0.004 C 
ATOM      6  C   UNL     1      -3.981  -2.208  -3.263  0.00  0.00    -0.010 C 
ATOM      7  C   UNL     1      -4.596  -2.114  -4.662  0.00  0.00    -0.082 C 
ATOM      8  N   UNL     1      -3.674  -1.407  -5.558  0.00  0.00    +0.379 N 
ATOM      9  C   UNL     1      -3.489  -0.025  -5.097  0.00  0.00    -0.082 C 
ATOM     10  C   UNL     1      -2.826  -0.031  -3.717  0.00  0.00    -0.010 C 
ATOM     11  C   UNL     1      -5.216   1.998  -1.012  0.00  0.00    +0.252 C 
ATOM     12  O   UNL     1      -5.939   2.578  -1.799  0.00  0.00    -0.270 OA
ATOM     13  H   UNL     1      -2.783  -1.880  -5.564  0.00  0.00    -0.086 HD
ATOM     14  H   UNL     1      -4.054  -1.400  -6.493  0.00  0.00    -0.086 HD
ENDROOT
BRANCH  11  15
ATOM     15  C   UNL     1      -4.792   2.668   0.232  0.00  0.00    +0.099 A 
ATOM     16  C   UNL     1      -4.624   1.937   1.414  0.00  0.00    +0.020 A 
ATOM     17  C   UNL     1      -4.225   2.612   2.553  0.00  0.00    +0.021 A 
ATOM     18  C   UNL     1      -4.005   3.977   2.493  0.00  0.00    +0.114 A 
ATOM     19  N   UNL     1      -4.169   4.647   1.369  0.00  0.00    -0.220 NA
ATOM     20  C   UNL     1      -4.544   4.049   0.250  0.00  0.00    +0.233 A 
BRANCH  20  21
ATOM     21  O   UNL     1      -4.695   4.775  -0.883  0.00  0.00    -0.437 OA
BRANCH  21  22
ATOM     22  C   UNL     1      -4.542   6.123  -0.802  0.00  0.00    +0.130 A 
ATOM     23  C   UNL     1      -3.271   6.675  -0.734  0.00  0.00    +0.048 A 
ATOM     24  C   UNL     1      -3.117   8.045  -0.653  0.00  0.00    +0.023 A 
ATOM     25  C   UNL     1      -4.230   8.867  -0.638  0.00  0.00    +0.041 A 
ATOM     26  C   UNL     1      -5.499   8.319  -0.706  0.00  0.00    +0.023 A 
ATOM     27  C   UNL     1      -5.656   6.949  -0.793  0.00  0.00    +0.048 A 
ATOM     28 CL   UNL     1      -4.035  10.589  -0.535  0.00  0.00    -0.084 Cl
ENDBRANCH  21  22
ENDBRANCH  20  21
ENDBRANCH  11  15
BRANCH   1  30
ATOM     29  N   UNL     1      -0.576  -0.836  -1.642  0.00  0.00    -0.308 N 
ATOM     30  C   UNL     1      -1.709  -0.152  -1.382  0.00  0.00    +0.219 C 
ATOM     31  O   UNL     1      -1.662   1.040  -1.169  0.00  0.00    -0.275 OA
ATOM     32  H   UNL     1      -0.614  -1.790  -1.813  0.00  0.00    +0.149 HD
BRANCH  29  34
ATOM     33  C   UNL     1       1.268  -0.043  -0.244  0.00  0.00    +0.033 C 
ATOM     34  C   UNL     1       0.711  -0.137  -1.666  0.00  0.00    +0.100 C 
BRANCH  34  35
ATOM     35  C   UNL     1       1.679  -0.898  -2.535  0.00  0.00    -0.027 A 
ATOM     36  C   UNL     1       1.704  -2.279  -2.497  0.00  0.00    +0.005 A 
ATOM     37  C   UNL     1       2.592  -2.977  -3.294  0.00  0.00    +0.000 A 
ATOM     38  C   UNL     1       3.454  -2.293  -4.130  0.00  0.00    +0.000 A 
ATOM     39  C   UNL     1       3.429  -0.912  -4.170  0.00  0.00    +0.000 A 
ATOM     40  C   UNL     1       2.538  -0.214  -3.376  0.00  0.00    +0.005 A 
ENDBRANCH  34  35
ENDBRANCH  29  34
ENDBRANCH   1  30
TORSDOF 6
