REMARK  Name = ZINC49149870
REMARK  6 active torsions:
REMARK  status: ('A' for Active; 'I' for Inactive)
REMARK    1  A    between atoms: C_1  and  O_2
REMARK    2  A    between atoms: O_2  and  C_3
REMARK    3  A    between atoms: C_6  and  N_21
REMARK    4  A    between atoms: C_8  and  S_9
REMARK    5  A    between atoms: S_9  and  N_12
REMARK    6  A    between atoms: N_12  and  C_13
REMARK                            x       y       z     vdW  Elec       q    Type
REMARK                         _______ _______ _______ _____ _____    ______ ____
ROOT
ATOM      1  S   UNL     1      -0.053  -2.967   0.155  0.00  0.00    +0.095 S 
ATOM      2  O   UNL     1      -1.361  -2.456   0.375  0.00  0.00    -0.148 OA
ATOM      3  O   UNL     1       0.185  -4.325  -0.188  0.00  0.00    -0.148 OA
ENDROOT
BRANCH   1   9
ATOM      4  C   UNL     1       0.606  -0.608  -1.056  0.00  0.00    +0.147 A 
ATOM      5  C   UNL     1       1.173   0.162  -2.062  0.00  0.00    +0.049 A 
ATOM      6  C   UNL     1       1.786  -0.450  -3.138  0.00  0.00    +0.026 A 
ATOM      7  C   UNL     1       1.836  -1.836  -3.212  0.00  0.00    +0.027 A 
ATOM      8  C   UNL     1       1.269  -2.605  -2.204  0.00  0.00    +0.055 A 
ATOM      9  C   UNL     1       0.660  -1.992  -1.127  0.00  0.00    +0.153 A 
BRANCH   7  10
ATOM     10  N   UNL     1       2.457  -2.457  -4.301  0.00  0.00    -0.358 N 
ATOM     11  H   UNL     1       2.853  -1.919  -5.005  0.00  0.00    +0.142 HD
ATOM     12  H   UNL     1       2.491  -3.425  -4.353  0.00  0.00    +0.142 HD
ENDBRANCH   7  10
BRANCH   4  14
ATOM     13  C   UNL     1      -0.017   1.425   0.010  0.00  0.00    +0.277 C 
ATOM     14  O   UNL     1       0.002  -0.004   0.002  0.00  0.00    -0.493 OA
ENDBRANCH   4  14
ENDBRANCH   1   9
BRANCH   1  15
ATOM     15  N   UNL     1       0.810  -2.669   1.536  0.00  0.00    -0.097 NA
BRANCH  15  16
ATOM     16  C   UNL     1       0.466  -3.312   2.728  0.00  0.00    +0.088 A 
ATOM     17  C   UNL     1      -0.597  -4.206   2.755  0.00  0.00    +0.029 A 
ATOM     18  C   UNL     1      -0.934  -4.841   3.934  0.00  0.00    +0.017 A 
ATOM     19  C   UNL     1      -0.216  -4.586   5.089  0.00  0.00    +0.019 A 
ATOM     20  C   UNL     1       0.843  -3.696   5.066  0.00  0.00    +0.032 A 
ATOM     21  C   UNL     1       1.190  -3.062   3.888  0.00  0.00    +0.043 A 
ATOM     22 BR   UNL     1       2.642  -1.852   3.856  0.00  0.00    -0.048 Br
ATOM     23 BR   UNL     1      -0.682  -5.456   6.702  0.00  0.00    -0.050 Br
ENDBRANCH  15  16
ENDBRANCH   1  15
TORSDOF 5
