REMARK  Name = ZINC39690666
REMARK  7 active torsions:
REMARK  status: ('A' for Active; 'I' for Inactive)
REMARK    1  A    between atoms: C_1  and  C_2
REMARK    2  A    between atoms: C_2  and  C_3
REMARK    3  A    between atoms: C_3  and  C_5
REMARK    4  A    between atoms: C_3  and  C_11
REMARK    5  A    between atoms: C_15  and  C_24
REMARK    6  A    between atoms: N_26  and  C_27
REMARK    7  A    between atoms: C_27  and  C_28
REMARK                            x       y       z     vdW  Elec       q    Type
REMARK                         _______ _______ _______ _____ _____    ______ ____
ROOT
ATOM      1  C   UNL     1       0.247  -0.081   2.191  0.00  0.00    +0.223 C 
ATOM      2  O   UNL     1       0.037  -0.797   3.147  0.00  0.00    -0.275 OA
ATOM      3  N   UNL     1       0.062   1.250   2.292  0.00  0.00    -0.300 N 
ATOM      4  C   UNL     1       0.355   2.288   1.276  0.00  0.00    +0.121 C 
ATOM      5  C   UNL     1      -0.821   3.284   1.385  0.00  0.00    +0.100 C 
ATOM      6  C   UNL     1      -1.364   3.096   2.811  0.00  0.00    -0.004 C 
ATOM      7  C   UNL     1      -0.486   2.006   3.444  0.00  0.00    +0.115 C 
ATOM      8  C   UNL     1      -1.242   4.397   3.599  0.00  0.00    -0.010 C 
ATOM      9  C   UNL     1      -1.841   4.201   4.995  0.00  0.00    -0.082 C 
ATOM     10  N   UNL     1      -3.250   3.809   4.874  0.00  0.00    +0.379 N 
ATOM     11  C   UNL     1      -3.352   2.511   4.197  0.00  0.00    -0.082 C 
ATOM     12  C   UNL     1      -2.817   2.635   2.767  0.00  0.00    -0.010 C 
ATOM     13  H   UNL     1      -3.659   3.741   5.794  0.00  0.00    -0.086 HD
ATOM     14  H   UNL     1      -3.747   4.506   4.339  0.00  0.00    -0.086 HD
ENDROOT
BRANCH   5  15
ATOM     15  C   UNL     1      -1.884   2.954   0.369  0.00  0.00    +0.218 C 
ATOM     16  O   UNL     1      -2.085   1.799   0.055  0.00  0.00    -0.275 OA
ATOM     17  N   UNL     1      -2.611   3.941  -0.191  0.00  0.00    -0.311 N 
ATOM     18  H   UNL     1      -2.402   4.867   0.004  0.00  0.00    +0.149 HD
BRANCH  17  19
ATOM     19  C   UNL     1      -3.717   3.614  -1.095  0.00  0.00    +0.140 C 
BRANCH  19  20
ATOM     20  C   UNL     1      -4.284   4.884  -1.675  0.00  0.00    -0.016 A 
ATOM     21  C   UNL     1      -5.477   5.391  -1.195  0.00  0.00    +0.006 A 
ATOM     22  C   UNL     1      -5.997   6.556  -1.727  0.00  0.00    +0.000 A 
ATOM     23  C   UNL     1      -5.324   7.215  -2.739  0.00  0.00    +0.001 A 
ATOM     24  C   UNL     1      -4.131   6.708  -3.219  0.00  0.00    +0.015 A 
ATOM     25  C   UNL     1      -3.607   5.545  -2.684  0.00  0.00    +0.023 A 
ATOM     26 BR   UNL     1      -1.972   4.856  -3.336  0.00  0.00    -0.050 Br
ENDBRANCH  19  20
ENDBRANCH  17  19
ENDBRANCH   5  15
BRANCH   1  27
ATOM     27  C   UNL     1       0.714  -0.680   0.889  0.00  0.00    +0.105 C 
BRANCH  27  28
ATOM     28  C   UNL     1       2.214  -0.816   0.908  0.00  0.00    -0.036 A 
ATOM     29  C   UNL     1       2.825  -1.601   1.869  0.00  0.00    +0.004 A 
ATOM     30  C   UNL     1       4.201  -1.726   1.887  0.00  0.00    +0.000 A 
ATOM     31  C   UNL     1       4.968  -1.067   0.943  0.00  0.00    +0.000 A 
ATOM     32  C   UNL     1       4.357  -0.283  -0.018  0.00  0.00    +0.000 A 
ATOM     33  C   UNL     1       2.980  -0.162  -0.038  0.00  0.00    +0.004 A 
ENDBRANCH  27  28
BRANCH  27  35
ATOM     34  C   UNL     1      -1.435  -1.906   0.542  0.00  0.00    +0.005 C 
ATOM     35  C   UNL     1       0.078  -2.059   0.705  0.00  0.00    +0.014 C 
ENDBRANCH  27  35
ENDBRANCH   1  27
TORSDOF 6
