REMARK  Name = ZINC09171204
REMARK  11 active torsions:
REMARK  status: ('A' for Active; 'I' for Inactive)
REMARK    1  A    between atoms: C_1  and  C_2
REMARK    2  A    between atoms: C_2  and  C_3
REMARK    3  A    between atoms: C_2  and  C_4
REMARK    4  A    between atoms: C_4  and  C_5
REMARK    5  A    between atoms: C_5  and  C_7
REMARK    6  A    between atoms: C_5  and  C_19
REMARK    7  A    between atoms: C_8  and  N_18
REMARK    8  A    between atoms: C_19  and  C_21
REMARK    9  A    between atoms: C_19  and  C_34
REMARK   10  A    between atoms: C_34  and  C_35
REMARK   11  A    between atoms: C_34  and  C_36
REMARK                            x       y       z     vdW  Elec       q    Type
REMARK                         _______ _______ _______ _____ _____    ______ ____
ROOT
ATOM      1  C   UNL     1       1.158  -5.610   1.459  0.00  0.00    +0.035 C 
ENDROOT
BRANCH   1   2
ATOM      2  C   UNL     1      -0.078  -6.468   1.553  0.00  0.00    +0.061 A 
ATOM      3  C   UNL     1       0.024  -7.830   1.827  0.00  0.00    +0.127 A 
ATOM      4  N   UNL     1      -1.077  -8.573   1.906  0.00  0.00    -0.214 NA
ATOM      5  C   UNL     1      -2.283  -8.039   1.728  0.00  0.00    +0.142 A 
ATOM      6  C   UNL     1      -3.423  -8.860   1.820  0.00  0.00    +0.047 A 
ATOM      7  C   UNL     1      -4.658  -8.314   1.637  0.00  0.00    +0.005 A 
ATOM      8  C   UNL     1      -4.775  -6.944   1.361  0.00  0.00    +0.018 A 
ATOM      9  C   UNL     1      -3.669  -6.172   1.276  0.00  0.00    +0.096 A 
ATOM     10  N   UNL     1      -2.429  -6.707   1.456  0.00  0.00    -0.268 N 
ATOM     11  C   UNL     1      -1.342  -5.911   1.372  0.00  0.00    +0.264 A 
ATOM     12  O   UNL     1      -1.465  -4.719   1.136  0.00  0.00    -0.267 OA
BRANCH   3  13
ATOM     13  N   UNL     1       1.266  -8.408   2.016  0.00  0.00    -0.343 N 
ATOM     14  H   UNL     1       1.345  -9.483   2.233  0.00  0.00    +0.144 HD
ATOM     15  H   UNL     1       2.175  -7.792   1.951  0.00  0.00    +0.144 HD
ENDBRANCH   3  13
ENDBRANCH   1   2
BRANCH   1  16
ATOM     16  C   UNL     1       1.057  -4.459   2.462  0.00  0.00    +0.012 C 
BRANCH  16  18
ATOM     17  C   UNL     1       2.410  -5.686   4.167  0.00  0.00    +0.007 C 
ATOM     18  C   UNL     1       1.061  -5.021   3.885  0.00  0.00    -0.017 C 
ATOM     19  C   UNL     1       0.835  -3.884   4.883  0.00  0.00    +0.007 C 
ENDBRANCH  16  18
ENDBRANCH   1  16
BRANCH   1  20
ATOM     20  C   UNL     1       1.279  -5.043   0.043  0.00  0.00    +0.023 C 
BRANCH  20  21
ATOM     21  C   UNL     1       2.568  -4.273  -0.081  0.00  0.00    -0.006 C 
ATOM     22  C   UNL     1       2.551  -2.994  -0.502  0.00  0.00    +0.077 C 
ATOM     23  C   UNL     1       3.728  -2.098  -0.330  0.00  0.00    +0.159 C 
ATOM     24  N   UNL     1       4.829  -2.532   0.243  0.00  0.00    -0.281 NA
ATOM     25  N   UNL     1       3.634  -0.837  -0.775  0.00  0.00    -0.212 NA
ATOM     26  C   UNL     1       2.541  -0.362  -1.358  0.00  0.00    +0.134 C 
ATOM     27  C   UNL     1       2.551   0.983  -1.789  0.00  0.00    +0.044 C 
ATOM     28  C   UNL     1       1.449   1.509  -2.390  0.00  0.00    +0.005 C 
ATOM     29  C   UNL     1       0.313   0.707  -2.576  0.00  0.00    +0.016 C 
ATOM     30  C   UNL     1       0.315  -0.577  -2.160  0.00  0.00    +0.085 C 
ATOM     31  N   UNL     1       1.416  -1.117  -1.554  0.00  0.00    -0.227 N 
ATOM     32  C   UNL     1       1.360  -2.409  -1.158  0.00  0.00    +0.259 C 
ATOM     33  O   UNL     1       0.358  -3.072  -1.336  0.00  0.00    -0.269 OA
ATOM     34  H   UNL     1       4.889  -3.570   0.602  0.00  0.00    +0.188 HD
ENDBRANCH  20  21
BRANCH  20  35
ATOM     35  C   UNL     1       1.272  -6.192  -0.968  0.00  0.00    -0.010 C 
ATOM     36  C   UNL     1       1.247  -5.621  -2.387  0.00  0.00    +0.008 C 
ATOM     37  C   UNL     1       2.530  -7.042  -0.783  0.00  0.00    +0.008 C 
ENDBRANCH  20  35
ENDBRANCH   1  20
TORSDOF 7
