REMARK  Name = ZINC08816261
REMARK  7 active torsions:
REMARK  status: ('A' for Active; 'I' for Inactive)
REMARK    1  A    between atoms: C_1  and  C_2
REMARK    2  A    between atoms: C_5  and  N_8
REMARK    3  A    between atoms: C_9  and  C_11
REMARK    4  A    between atoms: C_11  and  N_12
REMARK    5  A    between atoms: C_16  and  C_17
REMARK    6  A    between atoms: N_19  and  C_26
REMARK    7  A    between atoms: C_26  and  C_27
REMARK                            x       y       z     vdW  Elec       q    Type
REMARK                         _______ _______ _______ _____ _____    ______ ____
ROOT
ATOM      1  N   UNL     1      -3.821   2.040   0.309  0.00  0.00    -0.212 N 
ATOM      2  C   UNL     1      -4.296   2.872   1.257  0.00  0.00    +0.269 C 
ATOM      3  O   UNL     1      -4.274   2.687   2.460  0.00  0.00    -0.268 OA
ATOM      4  C   UNL     1      -4.825   4.007   0.586  0.00  0.00    +0.098 C 
ATOM      5  C   UNL     1      -5.405   5.099   1.156  0.00  0.00    +0.038 C 
ATOM      6  N   UNL     1      -4.634   3.770  -0.784  0.00  0.00    -0.265 N 
ATOM      7  C   UNL     1      -4.026   2.575  -0.905  0.00  0.00    +0.314 C 
ATOM      8  O   UNL     1      -3.711   2.056  -1.959  0.00  0.00    -0.252 OA
ATOM      9  H   UNL     1      -4.892   4.359  -1.510  0.00  0.00    +0.157 HD
ENDROOT
BRANCH   5  10
ATOM     10  C   UNL     1      -5.369   5.273   2.608  0.00  0.00    +0.002 A 
ATOM     11  C   UNL     1      -4.351   4.919   3.449  0.00  0.00    +0.095 A 
ATOM     12  N   UNL     1      -4.681   5.240   4.726  0.00  0.00    -0.342 N 
ATOM     13  C   UNL     1      -5.937   5.810   4.770  0.00  0.00    +0.050 A 
ATOM     14  C   UNL     1      -6.426   5.858   3.454  0.00  0.00    +0.007 A 
ATOM     15  C   UNL     1      -7.686   6.391   3.196  0.00  0.00    +0.010 A 
ATOM     16  C   UNL     1      -8.450   6.870   4.238  0.00  0.00    +0.001 A 
ATOM     17  C   UNL     1      -7.970   6.823   5.538  0.00  0.00    +0.002 A 
ATOM     18  C   UNL     1      -6.724   6.298   5.808  0.00  0.00    +0.026 A 
BRANCH  12  19
ATOM     19  C   UNL     1      -3.828   5.008   5.894  0.00  0.00    +0.157 C 
BRANCH  19  20
ATOM     20  C   UNL     1      -4.198   3.695   6.534  0.00  0.00    -0.028 A 
ATOM     21  C   UNL     1      -5.160   3.657   7.526  0.00  0.00    +0.007 A 
ATOM     22  C   UNL     1      -5.505   2.453   8.110  0.00  0.00    +0.020 A 
ATOM     23  C   UNL     1      -4.878   1.286   7.710  0.00  0.00    +0.041 A 
ATOM     24  C   UNL     1      -3.911   1.325   6.721  0.00  0.00    +0.020 A 
ATOM     25  C   UNL     1      -3.572   2.530   6.134  0.00  0.00    +0.007 A 
ATOM     26 CL   UNL     1      -5.305  -0.226   8.447  0.00  0.00    -0.084 Cl
ENDBRANCH  19  20
ENDBRANCH  12  19
ENDBRANCH   5  10
BRANCH   1  27
ATOM     27  C   UNL     1      -3.184   0.746   0.565  0.00  0.00    +0.214 C 
BRANCH  27  29
ATOM     28  N   UNL     1      -0.901  -0.120   0.964  0.00  0.00    -0.284 N 
ATOM     29  C   UNL     1      -1.698   0.940   0.721  0.00  0.00    +0.235 C 
ATOM     30  O   UNL     1      -1.218   2.050   0.627  0.00  0.00    -0.274 OA
ATOM     31  H   UNL     1      -1.273  -1.016   0.962  0.00  0.00    +0.155 HD
BRANCH  28  36
ATOM     32  C   UNL     1       4.627   0.656   1.974  0.00  0.00    +0.044 C 
ATOM     33  C   UNL     1       3.158   0.450   1.705  0.00  0.00    -0.050 A 
ATOM     34  C   UNL     1       2.242   1.402   2.112  0.00  0.00    +0.005 A 
ATOM     35  C   UNL     1       0.895   1.216   1.868  0.00  0.00    +0.023 A 
ATOM     36  C   UNL     1       0.462   0.071   1.212  0.00  0.00    +0.033 A 
ATOM     37  C   UNL     1       1.384  -0.886   0.810  0.00  0.00    +0.023 A 
ATOM     38  C   UNL     1       2.730  -0.691   1.053  0.00  0.00    +0.005 A 
ENDBRANCH  28  36
ENDBRANCH  27  29
ENDBRANCH   1  27
TORSDOF 6
