REMARK  Name = ZINC11424089
REMARK  7 active torsions:
REMARK  status: ('A' for Active; 'I' for Inactive)
REMARK    1  A    between atoms: C_1  and  C_2
REMARK    2  A    between atoms: C_2  and  C_30
REMARK    3  A    between atoms: C_4  and  N_9
REMARK    4  A    between atoms: C_6  and  C_7
REMARK    5  A    between atoms: C_6  and  C_8
REMARK    6  A    between atoms: C_10  and  C_12
REMARK    7  A    between atoms: C_19  and  C_24
REMARK                            x       y       z     vdW  Elec       q    Type
REMARK                         _______ _______ _______ _____ _____    ______ ____
ROOT
ATOM      1  C   UNL     1      -0.733   2.100  -3.565  0.00  0.00    +0.037 A 
ATOM      2  C   UNL     1      -2.071   2.491  -3.488  0.00  0.00    +0.014 A 
ATOM      3  C   UNL     1      -2.736   2.429  -2.282  0.00  0.00    +0.016 A 
ATOM      4  C   UNL     1      -2.071   1.976  -1.144  0.00  0.00    +0.062 A 
ATOM      5  C   UNL     1      -0.734   1.581  -1.218  0.00  0.00    -0.029 A 
ATOM      6  C   UNL     1      -0.069   1.645  -2.425  0.00  0.00    +0.017 A 
ATOM      7  C   UNL     1      -0.013   1.086   0.008  0.00  0.00    +0.085 C 
ATOM      8  C   UNL     1      -0.721   1.575   1.272  0.00  0.00    +0.211 C 
ATOM      9  O   UNL     1      -2.141   1.279   1.177  0.00  0.00    -0.453 OA
ATOM     10  C   UNL     1      -2.778   1.910   0.159  0.00  0.00    +0.340 C 
ATOM     11  O   UNL     1      -3.879   2.400   0.307  0.00  0.00    -0.245 OA
ENDROOT
BRANCH   8  12
ATOM     12  C   UNL     1      -0.145   0.874   2.475  0.00  0.00    -0.007 A 
ATOM     13  C   UNL     1      -0.555  -0.407   2.790  0.00  0.00    +0.007 A 
ATOM     14  C   UNL     1      -0.023  -1.052   3.891  0.00  0.00    +0.000 A 
ATOM     15  C   UNL     1       0.911  -0.411   4.683  0.00  0.00    +0.000 A 
ATOM     16  C   UNL     1       1.317   0.873   4.371  0.00  0.00    +0.000 A 
ATOM     17  C   UNL     1       0.789   1.516   3.267  0.00  0.00    +0.007 A 
ENDBRANCH   8  12
BRANCH   1  19
ATOM     18  N   UNL     1      -0.657   2.606  -5.961  0.00  0.00    -0.309 N 
ATOM     19  C   UNL     1      -0.018   2.167  -4.859  0.00  0.00    +0.244 C 
ATOM     20  O   UNL     1       1.147   1.826  -4.928  0.00  0.00    -0.270 OA
ATOM     21  H   UNL     1      -1.587   2.877  -5.906  0.00  0.00    +0.149 HD
BRANCH  18  25
ATOM     22  C   UNL     1       0.455   1.341 -10.029  0.00  0.00    -0.010 C 
ATOM     23  C   UNL     1      -0.251   2.670  -9.734  0.00  0.00    -0.072 C 
ATOM     24  C   UNL     1      -0.961   2.582  -8.385  0.00  0.00    +0.009 C 
ATOM     25  C   UNL     1       0.052   2.672  -7.245  0.00  0.00    +0.071 C 
ATOM     26  C   UNL     1       0.782   4.011  -7.348  0.00  0.00    +0.009 C 
ATOM     27  C   UNL     1       1.511   4.118  -8.685  0.00  0.00    -0.072 C 
ATOM     28  C   UNL     1       2.772   3.246  -8.652  0.00  0.00    -0.010 C 
ATOM     29  C   UNL     1       1.974   5.584  -8.846  0.00  0.00    -0.010 C 
ATOM     30  C   UNL     1      -1.335   2.861 -10.819  0.00  0.00    -0.010 C 
ATOM     31  N   UNL     1       0.676   3.824  -9.880  0.00  0.00    +0.386 N 
ATOM     32  H   UNL     1       0.115   4.658 -10.089  0.00  0.00    -0.084 HD
ATOM     33  H   UNL     1       1.306   3.628 -10.667  0.00  0.00    -0.084 HD
ENDBRANCH  18  25
ENDBRANCH   1  19
TORSDOF 3
