REMARK  Name = ZINC35491129
REMARK  6 active torsions:
REMARK  status: ('A' for Active; 'I' for Inactive)
REMARK    1  A    between atoms: C_1  and  C_2
REMARK    2  A    between atoms: C_2  and  C_3
REMARK    3  A    between atoms: C_9  and  C_25
REMARK    4  A    between atoms: C_28  and  O_31
REMARK    5  A    between atoms: O_31  and  C_32
REMARK    6  A    between atoms: C_32  and  C_33
REMARK                            x       y       z     vdW  Elec       q    Type
REMARK                         _______ _______ _______ _____ _____    ______ ____
ROOT
ATOM      1  C   UNL     1      -1.412  -0.526   0.013  0.00  0.00    +0.103 A 
ATOM      2  N   UNL     1      -2.214  -0.819  -0.992  0.00  0.00    -0.145 NA
ATOM      3  N   UNL     1      -3.385  -1.252  -0.811  0.00  0.00    -0.125 NA
ATOM      4  C   UNL     1      -3.882  -1.439   0.404  0.00  0.00    +0.191 A 
ATOM      5  S   UNL     1      -2.478  -0.931   1.393  0.00  0.00    -0.035 S 
ATOM      6  N   UNL     1      -5.131  -1.901   0.797  0.00  0.00    -0.230 N 
ATOM      7  C   UNL     1      -6.224  -2.309  -0.101  0.00  0.00    +0.151 C 
ATOM      8  C   UNL     1      -7.350  -2.722   0.790  0.00  0.00    +0.072 A 
ATOM      9  C   UNL     1      -8.697  -3.211   0.481  0.00  0.00    +0.199 A 
ATOM     10  O   UNL     1      -9.052  -3.525  -0.641  0.00  0.00    -0.287 OA
ATOM     11  C   UNL     1      -9.588  -3.288   1.667  0.00  0.00    +0.066 A 
ATOM     12  C   UNL     1     -10.950  -3.542   1.510  0.00  0.00    +0.035 A 
ATOM     13  C   UNL     1     -11.763  -3.605   2.621  0.00  0.00    +0.042 A 
ATOM     14  C   UNL     1     -11.226  -3.416   3.888  0.00  0.00    +0.023 A 
ATOM     15  C   UNL     1      -9.882  -3.166   4.054  0.00  0.00    +0.048 A 
ATOM     16  C   UNL     1      -9.039  -3.100   2.945  0.00  0.00    +0.140 A 
ATOM     17  O   UNL     1      -7.721  -2.863   3.138  0.00  0.00    -0.450 OA
ATOM     18  C   UNL     1      -6.935  -2.569   2.083  0.00  0.00    +0.199 A 
ATOM     19  C   UNL     1      -5.553  -2.061   2.068  0.00  0.00    +0.289 C 
ATOM     20  O   UNL     1      -4.890  -1.819   3.057  0.00  0.00    -0.266 OA
ATOM     21 CL   UNL     1     -13.460  -3.921   2.437  0.00  0.00    -0.084 Cl
ENDROOT
BRANCH   7  22
ATOM     22  C   UNL     1      -6.644  -1.151  -0.969  0.00  0.00    -0.022 A 
ATOM     23  C   UNL     1      -6.684   0.127  -0.442  0.00  0.00    +0.009 A 
ATOM     24  C   UNL     1      -7.069   1.190  -1.236  0.00  0.00    +0.046 A 
ATOM     25  C   UNL     1      -7.414   0.975  -2.562  0.00  0.00    +0.121 A 
ATOM     26  C   UNL     1      -7.372  -0.308  -3.088  0.00  0.00    +0.046 A 
ATOM     27  C   UNL     1      -6.981  -1.367  -2.292  0.00  0.00    +0.009 A 
BRANCH  25  28
ATOM     28  O   UNL     1      -7.793   2.019  -3.345  0.00  0.00    -0.483 OA
BRANCH  28  29
ATOM     29  C   UNL     1      -8.134   1.724  -4.701  0.00  0.00    +0.324 C 
BRANCH  29  30
ATOM     30  C   UNL     1      -8.526   2.995  -5.409  0.00  0.00    +0.248 C 
ATOM     31  O   UNL     1      -8.514   4.050  -4.811  0.00  0.00    -0.272 OA
ATOM     32  N   UNL     1      -8.889   2.959  -6.706  0.00  0.00    -0.327 N 
ATOM     33  H   UNL     1      -8.899   2.115  -7.184  0.00  0.00    +0.145 HD
ATOM     34  H   UNL     1      -9.141   3.778  -7.162  0.00  0.00    +0.145 HD
ENDBRANCH  29  30
ENDBRANCH  28  29
ENDBRANCH  25  28
ENDBRANCH   7  22
BRANCH   1  36
ATOM     35  C   UNL     1      -0.019   1.526   0.010  0.00  0.00    +0.011 C 
ATOM     36  C   UNL     1       0.002  -0.004   0.002  0.00  0.00    +0.061 C 
ENDBRANCH   1  36
TORSDOF 5
