REMARK  Name = ZINC09301941
REMARK  13 active torsions:
REMARK  status: ('A' for Active; 'I' for Inactive)
REMARK    1  A    between atoms: C_1  and  C_2
REMARK    2  A    between atoms: C_2  and  C_3
REMARK    3  A    between atoms: C_3  and  O_4
REMARK    4  A    between atoms: O_4  and  C_5
REMARK    5  A    between atoms: C_8  and  C_14
REMARK    6  A    between atoms: C_10  and  O_11
REMARK    7  A    between atoms: O_11  and  C_12
REMARK    8  A    between atoms: C_12  and  C_13
REMARK    9  A    between atoms: C_22  and  C_30
REMARK   10  A    between atoms: C_24  and  C_25
REMARK   11  A    between atoms: C_24  and  C_27
REMARK   12  A    between atoms: C_32  and  C_33
REMARK   13  A    between atoms: C_32  and  N_68
REMARK                            x       y       z     vdW  Elec       q    Type
REMARK                         _______ _______ _______ _____ _____    ______ ____
ROOT
ATOM      1  C   UNL     1       2.194   2.609   2.294  0.00  0.00    +0.064 C 
ATOM      2  C   UNL     1       2.095   1.722   1.051  0.00  0.00    +0.010 C 
ATOM      3  C   UNL     1       1.367   2.415  -0.079  0.00  0.00    -0.069 C 
ATOM      4  C   UNL     1      -0.114   0.541  -0.405  0.00  0.00    -0.051 C 
ATOM      5  C   UNL     1       0.489  -0.152   0.792  0.00  0.00    -0.044 C 
ATOM      6  C   UNL     1       1.478   0.414   1.457  0.00  0.00    -0.051 C 
ATOM      7  C   UNL     1       1.991  -0.219   2.698  0.00  0.00    +0.163 C 
ATOM      8  C   UNL     1       2.749   0.514   3.553  0.00  0.00    +0.065 C 
ATOM      9  C   UNL     1       3.127   1.943   3.305  0.00  0.00    +0.188 C 
ATOM     10  N   UNL     1       3.192  -0.083   4.700  0.00  0.00    -0.304 NA
ATOM     11  H   UNL     1       3.736   0.417   5.328  0.00  0.00    +0.186 HD
ATOM     12  N   UNL     1      -0.042   1.996  -0.146  0.00  0.00    +0.385 N 
ATOM     13  H   UNL     1      -0.496   2.200   0.751  0.00  0.00    -0.081 HD
ENDROOT
BRANCH   1  17
ATOM     14  C   UNL     1      -1.688   3.089   4.021  0.00  0.00    +0.162 A 
ATOM     15  C   UNL     1      -1.277   3.921   2.992  0.00  0.00    +0.050 A 
ATOM     16  C   UNL     1      -0.021   3.763   2.436  0.00  0.00    +0.008 A 
ATOM     17  C   UNL     1       0.827   2.776   2.904  0.00  0.00    -0.037 A 
ATOM     18  C   UNL     1       0.420   1.940   3.927  0.00  0.00    +0.053 A 
ATOM     19  C   UNL     1      -0.835   2.096   4.492  0.00  0.00    +0.162 A 
BRANCH  14  20
ATOM     20  O   UNL     1      -2.923   3.244   4.570  0.00  0.00    -0.488 OA
BRANCH  20  21
ATOM     21  C   UNL     1      -3.744   4.284   4.036  0.00  0.00    +0.229 C 
BRANCH  21  23
ATOM     22  C   UNL     1      -5.965   5.418   4.202  0.00  0.00    +0.007 C 
ATOM     23  C   UNL     1      -5.085   4.304   4.774  0.00  0.00    +0.038 C 
ENDBRANCH  21  23
ENDBRANCH  20  21
ENDBRANCH  14  20
BRANCH  19  24
ATOM     24  O   UNL     1      -1.234   1.277   5.502  0.00  0.00    -0.489 OA
BRANCH  24  25
ATOM     25  C   UNL     1      -0.306   0.281   5.934  0.00  0.00    +0.226 C 
ATOM     26  C   UNL     1      -0.927  -0.537   7.069  0.00  0.00    +0.048 C 
ENDBRANCH  24  25
ENDBRANCH  19  24
ENDBRANCH   1  17
BRANCH   9  27
ATOM     27  C   UNL     1       4.506   1.993   2.791  0.00  0.00    +0.091 C 
ATOM     28  N   UNL     1       5.569   2.031   2.394  0.00  0.00    -0.195 NA
ENDBRANCH   9  27
BRANCH   9  29
ATOM     29  C   UNL     1       3.063   2.682   4.577  0.00  0.00    +0.091 C 
ATOM     30  N   UNL     1       3.013   3.252   5.558  0.00  0.00    -0.195 NA
ENDBRANCH   9  29
BRANCH   7  31
ATOM     31  C   UNL     1       1.689  -1.588   2.990  0.00  0.00    +0.076 C 
ATOM     32  N   UNL     1       1.449  -2.674   3.222  0.00  0.00    -0.196 NA
ENDBRANCH   7  31
BRANCH  12  33
ATOM     33  C   UNL     1      -0.742   2.737  -1.219  0.00  0.00    -0.043 C 
BRANCH  33  34
ATOM     34  C   UNL     1      -2.217   2.441  -1.137  0.00  0.00    -0.064 A 
ATOM     35  C   UNL     1      -2.751   1.386  -1.854  0.00  0.00    +0.002 A 
ATOM     36  C   UNL     1      -4.103   1.112  -1.775  0.00  0.00    +0.000 A 
ATOM     37  C   UNL     1      -4.924   1.898  -0.988  0.00  0.00    +0.000 A 
ATOM     38  C   UNL     1      -4.391   2.956  -0.276  0.00  0.00    +0.000 A 
ATOM     39  C   UNL     1      -3.037   3.227  -0.350  0.00  0.00    +0.002 A 
ENDBRANCH  33  34
ENDBRANCH  12  33
TORSDOF 11
