REMARK  Name = ZINC13489323
REMARK  13 active torsions:
REMARK  status: ('A' for Active; 'I' for Inactive)
REMARK    1  A    between atoms: C_1  and  C_2
REMARK    2  A    between atoms: C_2  and  C_3
REMARK    3  A    between atoms: C_3  and  S_4
REMARK    4  A    between atoms: S_4  and  C_5
REMARK    5  A    between atoms: C_5  and  C_6
REMARK    6  A    between atoms: C_6  and  C_8
REMARK    7  A    between atoms: C_6  and  N_12
REMARK    8  A    between atoms: C_8  and  O_10
REMARK    9  A    between atoms: O_10  and  C_11
REMARK   10  A    between atoms: C_19  and  C_24
REMARK   11  A    between atoms: N_26  and  C_27
REMARK   12  A    between atoms: C_27  and  C_28
REMARK   13  A    between atoms: C_33  and  C_34
REMARK                            x       y       z     vdW  Elec       q    Type
REMARK                         _______ _______ _______ _____ _____    ______ ____
ROOT
ATOM      1  N   UNL     1      -2.651  -4.872  -1.195  0.00  0.00    -0.229 N 
ATOM      2  C   UNL     1      -3.003  -4.572  -2.465  0.00  0.00    +0.349 A 
ATOM      3  O   UNL     1      -3.896  -3.818  -2.799  0.00  0.00    -0.245 OA
ATOM      4  N   UNL     1      -2.202  -5.248  -3.288  0.00  0.00    -0.226 N 
ATOM      5  N   UNL     1      -1.312  -6.000  -2.482  0.00  0.00    -0.215 N 
ATOM      6  C   UNL     1      -1.615  -5.740  -1.212  0.00  0.00    +0.350 A 
ATOM      7  O   UNL     1      -1.058  -6.204  -0.236  0.00  0.00    -0.245 OA
ATOM      8  C   UNL     1      -0.292  -6.860  -3.088  0.00  0.00    +0.219 C 
ATOM      9  C   UNL     1      -0.860  -7.396  -4.383  0.00  0.00    +0.006 C 
ATOM     10  C   UNL     1      -1.681  -6.703  -5.126  0.00  0.00    -0.005 C 
ATOM     11  C   UNL     1      -2.128  -5.308  -4.750  0.00  0.00    +0.174 C 
ENDROOT
BRANCH   8  12
ATOM     12  C   UNL     1       0.953  -6.059  -3.367  0.00  0.00    +0.242 C 
ATOM     13  O   UNL     1       0.991  -4.880  -3.088  0.00  0.00    -0.273 OA
ATOM     14  N   UNL     1       2.026  -6.654  -3.927  0.00  0.00    -0.309 N 
ATOM     15  H   UNL     1       1.996  -7.597  -4.150  0.00  0.00    +0.149 HD
BRANCH  14  16
ATOM     16  C   UNL     1       3.236  -5.875  -4.198  0.00  0.00    +0.141 C 
BRANCH  16  17
ATOM     17  C   UNL     1       4.279  -6.767  -4.820  0.00  0.00    -0.011 A 
ATOM     18  C   UNL     1       5.305  -7.294  -4.046  0.00  0.00    +0.010 A 
ATOM     19  C   UNL     1       6.241  -8.108  -4.656  0.00  0.00    +0.041 A 
ATOM     20  C   UNL     1       6.125  -8.371  -6.018  0.00  0.00    +0.094 A 
ATOM     21  N   UNL     1       5.132  -7.850  -6.722  0.00  0.00    -0.347 N 
ATOM     22  C   UNL     1       4.221  -7.074  -6.165  0.00  0.00    +0.019 A 
ATOM     23  C   UNL     1       3.107  -6.511  -7.009  0.00  0.00    +0.063 C 
ATOM     24  N   UNL     1       7.059  -9.188  -6.644  0.00  0.00    -0.345 N 
ATOM     25  H   UNL     1       7.788  -9.571  -6.132  0.00  0.00    +0.144 HD
ATOM     26  H   UNL     1       6.982  -9.374  -7.593  0.00  0.00    +0.144 HD
ATOM     27  H   UNL     1       5.070  -8.046  -7.670  0.00  0.00    +0.167 HD
ENDBRANCH  16  17
ENDBRANCH  14  16
ENDBRANCH   8  12
BRANCH   1  28
ATOM     28  C   UNL     1      -3.288  -4.335   0.010  0.00  0.00    +0.215 C 
BRANCH  28  29
ATOM     29  C   UNL     1      -4.745  -4.720   0.022  0.00  0.00    +0.331 C 
ATOM     30  O   UNL     1      -5.204  -5.375  -0.883  0.00  0.00    -0.248 OA
BRANCH  29  31
ATOM     31  O   UNL     1      -5.532  -4.334   1.038  0.00  0.00    -0.466 OA
ATOM     32  C   UNL     1      -6.903  -4.734   0.985  0.00  0.00    +0.280 C 
ENDBRANCH  29  31
ENDBRANCH  28  29
BRANCH  28  33
ATOM     33  C   UNL     1      -3.163  -2.810   0.017  0.00  0.00    +0.106 C 
BRANCH  33  34
ATOM     34  S   UNL     1      -1.409  -2.348   0.003  0.00  0.00    -0.158 S 
BRANCH  34  35
ATOM     35  C   UNL     1      -1.433  -0.534   0.013  0.00  0.00    +0.069 C 
BRANCH  35  37
ATOM     36  C   UNL     1      -0.019   1.526   0.010  0.00  0.00    +0.004 C 
ATOM     37  C   UNL     1       0.002  -0.004   0.002  0.00  0.00    +0.007 C 
ENDBRANCH  35  37
ENDBRANCH  34  35
ENDBRANCH  33  34
ENDBRANCH  28  33
ENDBRANCH   1  28
TORSDOF 10
