REMARK  Name = ZINC39688633
REMARK  9 active torsions:
REMARK  status: ('A' for Active; 'I' for Inactive)
REMARK    1  A    between atoms: C_1  and  C_2
REMARK    2  A    between atoms: C_2  and  C_3
REMARK    3  A    between atoms: C_3  and  C_5
REMARK    4  A    between atoms: C_3  and  C_11
REMARK    5  A    between atoms: C_15  and  C_24
REMARK    6  A    between atoms: N_26  and  C_27
REMARK    7  A    between atoms: C_27  and  C_29
REMARK    8  A    between atoms: C_27  and  C_30
REMARK    9  A    between atoms: C_30  and  C_31
REMARK                            x       y       z     vdW  Elec       q    Type
REMARK                         _______ _______ _______ _____ _____    ______ ____
ROOT
ATOM      1  C   UNL     1      -1.481  -0.740  -1.319  0.00  0.00    +0.223 C 
ATOM      2  O   UNL     1      -0.657  -1.204  -0.559  0.00  0.00    -0.275 OA
ATOM      3  N   UNL     1      -1.783   0.573  -1.263  0.00  0.00    -0.300 N 
ATOM      4  C   UNL     1      -1.265   1.585  -0.313  0.00  0.00    +0.121 C 
ATOM      5  C   UNL     1      -1.056   2.854  -1.170  0.00  0.00    +0.100 C 
ATOM      6  C   UNL     1      -2.008   2.681  -2.366  0.00  0.00    -0.004 C 
ATOM      7  C   UNL     1      -2.705   1.331  -2.143  0.00  0.00    +0.115 C 
ATOM      8  C   UNL     1      -1.218   2.651  -3.670  0.00  0.00    -0.010 C 
ATOM      9  C   UNL     1      -2.190   2.536  -4.848  0.00  0.00    -0.082 C 
ATOM     10  N   UNL     1      -3.112   3.678  -4.837  0.00  0.00    +0.379 N 
ATOM     11  C   UNL     1      -3.934   3.646  -3.621  0.00  0.00    -0.082 C 
ATOM     12  C   UNL     1      -3.036   3.808  -2.391  0.00  0.00    -0.010 C 
ATOM     13  H   UNL     1      -2.583   4.536  -4.861  0.00  0.00    -0.086 HD
ATOM     14  H   UNL     1      -3.712   3.632  -5.647  0.00  0.00    -0.086 HD
ENDROOT
BRANCH   5  15
ATOM     15  C   UNL     1       0.372   2.939  -1.642  0.00  0.00    +0.218 C 
ATOM     16  O   UNL     1       0.988   1.926  -1.898  0.00  0.00    -0.275 OA
ATOM     17  N   UNL     1       0.966   4.141  -1.779  0.00  0.00    -0.312 N 
ATOM     18  H   UNL     1       0.499   4.947  -1.506  0.00  0.00    +0.149 HD
BRANCH  17  19
ATOM     19  C   UNL     1       2.316   4.232  -2.340  0.00  0.00    +0.074 C 
ATOM     20  C   UNL     1       2.228   4.358  -3.862  0.00  0.00    +0.028 C 
BRANCH  19  21
ATOM     21  C   UNL     1       3.025   5.460  -1.767  0.00  0.00    +0.057 C 
BRANCH  21  22
ATOM     22  C   UNL     1       3.085   5.351  -0.265  0.00  0.00    -0.045 A 
ATOM     23  C   UNL     1       2.021   5.786   0.502  0.00  0.00    +0.006 A 
ATOM     24  C   UNL     1       2.075   5.686   1.879  0.00  0.00    +0.038 A 
ATOM     25  C   UNL     1       3.195   5.148   2.491  0.00  0.00    +0.123 A 
ATOM     26  C   UNL     1       4.260   4.713   1.721  0.00  0.00    +0.038 A 
ATOM     27  C   UNL     1       4.202   4.809   0.344  0.00  0.00    +0.006 A 
ATOM     28  F   UNL     1       3.249   5.050   3.837  0.00  0.00    -0.205 F 
ENDBRANCH  21  22
ENDBRANCH  19  21
ENDBRANCH  17  19
ENDBRANCH   5  15
BRANCH   1  29
ATOM     29  C   UNL     1      -2.166  -1.629  -2.324  0.00  0.00    +0.105 C 
BRANCH  29  30
ATOM     30  C   UNL     1      -1.247  -2.764  -2.698  0.00  0.00    -0.036 A 
ATOM     31  C   UNL     1      -0.804  -3.643  -1.728  0.00  0.00    +0.004 A 
ATOM     32  C   UNL     1       0.038  -4.684  -2.072  0.00  0.00    +0.000 A 
ATOM     33  C   UNL     1       0.437  -4.846  -3.385  0.00  0.00    +0.000 A 
ATOM     34  C   UNL     1      -0.007  -3.967  -4.356  0.00  0.00    +0.000 A 
ATOM     35  C   UNL     1      -0.853  -2.929  -4.013  0.00  0.00    +0.004 A 
ENDBRANCH  29  30
BRANCH  29  37
ATOM     36  C   UNL     1      -4.419  -1.046  -1.415  0.00  0.00    +0.005 C 
ATOM     37  C   UNL     1      -3.451  -2.193  -1.714  0.00  0.00    +0.014 C 
ENDBRANCH  29  37
ENDBRANCH   1  29
TORSDOF 7
