REMARK  Name = ZINC00629346
REMARK  8 active torsions:
REMARK  status: ('A' for Active; 'I' for Inactive)
REMARK    1  A    between atoms: C_1  and  C_2
REMARK    2  A    between atoms: C_2  and  N_3
REMARK    3  A    between atoms: N_7  and  C_8
REMARK    4  A    between atoms: C_8  and  C_9
REMARK    5  A    between atoms: C_14  and  S_16
REMARK    6  A    between atoms: S_16  and  C_17
REMARK    7  A    between atoms: C_17  and  C_18
REMARK    8  A    between atoms: N_20  and  C_21
REMARK                            x       y       z     vdW  Elec       q    Type
REMARK                         _______ _______ _______ _____ _____    ______ ____
ROOT
ATOM      1  N   UNL     1       2.925   1.964  -1.170  0.00  0.00    -0.315 N 
ATOM      2  C   UNL     1       1.921   1.164  -0.692  0.00  0.00    +0.199 A 
ATOM      3  N   UNL     1       0.825   1.743  -0.100  0.00  0.00    -0.300 N 
ATOM      4  C   UNL     1      -0.371   1.026  -0.057  0.00  0.00    +0.200 A 
ATOM      5  N   UNL     1      -1.542   1.596  -0.066  0.00  0.00    -0.315 N 
ATOM      6  N   UNL     1      -0.199  -0.347  -0.010  0.00  0.00    -0.166 N 
ATOM      7  C   UNL     1       0.996  -0.914  -0.398  0.00  0.00    +0.259 A 
ATOM      8  N   UNL     1       2.028  -0.149  -0.811  0.00  0.00    -0.179 NA
ATOM      9  N   UNL     1       0.872  -2.212  -0.264  0.00  0.00    -0.183 NA
ATOM     10  C   UNL     1      -0.352  -2.502   0.201  0.00  0.00    +0.211 A 
ATOM     11  N   UNL     1      -1.034  -1.385   0.369  0.00  0.00    -0.134 NA
ATOM     12  H   UNL     1       2.848   3.057  -1.077  0.00  0.00    +0.149 HD
ATOM     13  H   UNL     1      -1.622   2.690   0.011  0.00  0.00    +0.149 HD
ATOM     14  H   UNL     1       0.900   2.753   0.329  0.00  0.00    +0.171 HD
ENDROOT
BRANCH   1  16
ATOM     15  C   UNL     1       5.063   2.468  -2.245  0.00  0.00    +0.024 C 
ATOM     16  C   UNL     1       4.101   1.363  -1.804  0.00  0.00    +0.101 C 
ENDBRANCH   1  16
BRANCH   5  17
ATOM     17  C   UNL     1      -2.753   0.779  -0.178  0.00  0.00    +0.101 C 
ATOM     18  C   UNL     1      -3.530   1.189  -1.431  0.00  0.00    +0.024 C 
ENDBRANCH   5  17
BRANCH  10  19
ATOM     19  S   UNL     1      -0.956  -4.123   0.534  0.00  0.00    -0.075 S 
BRANCH  19  20
ATOM     20  C   UNL     1       0.434  -5.206   0.106  0.00  0.00    +0.173 C 
BRANCH  20  21
ATOM     21  C   UNL     1       0.046  -6.642   0.348  0.00  0.00    +0.227 C 
ATOM     22  O   UNL     1      -1.060  -6.908   0.768  0.00  0.00    -0.275 OA
ATOM     23  N   UNL     1       0.928  -7.630   0.098  0.00  0.00    -0.285 N 
ATOM     24  H   UNL     1       1.958  -7.385  -0.199  0.00  0.00    +0.155 HD
BRANCH  23  25
ATOM     25  C   UNL     1       0.532  -8.967   0.215  0.00  0.00    +0.035 A 
ATOM     26  C   UNL     1      -0.763  -9.341  -0.118  0.00  0.00    +0.025 A 
ATOM     27  C   UNL     1      -1.152 -10.662  -0.002  0.00  0.00    +0.023 A 
ATOM     28  C   UNL     1      -0.252 -11.612   0.446  0.00  0.00    +0.059 A 
ATOM     29  C   UNL     1       1.041 -11.243   0.778  0.00  0.00    +0.061 A 
ATOM     30  C   UNL     1       1.436  -9.923   0.659  0.00  0.00    +0.044 A 
ATOM     31 CL   UNL     1       2.168 -12.438   1.338  0.00  0.00    -0.082 Cl
ATOM     32 CL   UNL     1      -0.743 -13.271   0.590  0.00  0.00    -0.082 Cl
ENDBRANCH  23  25
ENDBRANCH  20  21
ENDBRANCH  19  20
ENDBRANCH  10  19
TORSDOF 6
