REMARK  Name = ZINC65266341
REMARK  5 active torsions:
REMARK  status: ('A' for Active; 'I' for Inactive)
REMARK    1  A    between atoms: C_1  and  C_2
REMARK    2  A    between atoms: C_2  and  O_3
REMARK    3  A    between atoms: O_3  and  C_4
REMARK    4  A    between atoms: C_7  and  C_10
REMARK    5  A    between atoms: N_26  and  C_27
REMARK                            x       y       z     vdW  Elec       q    Type
REMARK                         _______ _______ _______ _____ _____    ______ ____
ROOT
ATOM      1  C   UNL     1       1.137  -6.034   1.761  0.00  0.00    +0.247 C 
ATOM      2  O   UNL     1       0.574  -6.778   0.982  0.00  0.00    -0.270 OA
ATOM      3  N   UNL     1       1.859  -6.545   2.778  0.00  0.00    -0.295 N 
ATOM      4  C   UNL     1       2.486  -5.767   3.859  0.00  0.00    +0.111 C 
ATOM      5  C   UNL     1       3.183  -6.772   4.803  0.00  0.00    +0.054 C 
ATOM      6  C   UNL     1       2.456  -8.094   4.494  0.00  0.00    +0.103 C 
ATOM      7  C   UNL     1       2.147  -7.976   2.995  0.00  0.00    +0.141 C 
ATOM      8  C   UNL     1       3.348  -9.274   4.773  0.00  0.00    +0.099 C 
ATOM      9  N   UNL     1       3.534  -9.607   6.105  0.00  0.00    -0.286 N 
ATOM     10  C   UNL     1       2.444  -9.463   6.972  0.00  0.00    +0.145 A 
ATOM     11  C   UNL     1       1.308  -8.762   6.565  0.00  0.00    +0.069 A 
ATOM     12  C   UNL     1       0.244  -8.620   7.444  0.00  0.00    +0.028 A 
ATOM     13  C   UNL     1       0.352  -9.193   8.705  0.00  0.00    +0.022 A 
ATOM     14  C   UNL     1       1.502  -9.879   9.039  0.00  0.00    +0.113 A 
ATOM     15  N   UNL     1       2.500  -9.995   8.183  0.00  0.00    -0.238 NA
ATOM     16  N   UNL     1       1.229  -8.216   5.275  0.00  0.00    -0.328 N 
ATOM     17  N   UNL     1       3.911  -9.942   3.819  0.00  0.00    -0.372 N 
ATOM     18  H   UNL     1       0.378  -7.925   4.910  0.00  0.00    +0.147 HD
ATOM     19  H   UNL     1       3.822  -9.644   2.900  0.00  0.00    +0.161 HD
ATOM     20  H   UNL     1       4.391  -9.928   6.426  0.00  0.00    +0.155 HD
ENDROOT
BRANCH   1  24
ATOM     21  C   UNL     1       0.828  -1.826   1.279  0.00  0.00    +0.121 A 
ATOM     22  C   UNL     1       0.317  -2.675   0.304  0.00  0.00    +0.046 A 
ATOM     23  C   UNL     1       0.415  -4.040   0.457  0.00  0.00    +0.016 A 
ATOM     24  C   UNL     1       1.030  -4.572   1.593  0.00  0.00    +0.037 A 
ATOM     25  C   UNL     1       1.543  -3.715   2.571  0.00  0.00    +0.016 A 
ATOM     26  C   UNL     1       1.445  -2.351   2.409  0.00  0.00    +0.046 A 
BRANCH  21  27
ATOM     27  O   UNL     1       0.729  -0.481   1.125  0.00  0.00    -0.492 OA
BRANCH  27  29
ATOM     28  C   UNL     1       0.066   1.520  -0.057  0.00  0.00    +0.048 C 
ATOM     29  C   UNL     1       0.083  -0.010  -0.059  0.00  0.00    +0.225 C 
ENDBRANCH  27  29
ENDBRANCH  21  27
ENDBRANCH   1  24
BRANCH  17  30
ATOM     30  C   UNL     1       4.681 -11.149   4.127  0.00  0.00    +0.080 C 
ATOM     31  C   UNL     1       6.146 -10.777   4.436  0.00  0.00    +0.024 C 
ATOM     32  C   UNL     1       6.971 -11.931   3.815  0.00  0.00    +0.002 C 
ATOM     33  C   UNL     1       6.197 -12.241   2.509  0.00  0.00    +0.002 C 
ATOM     34  C   UNL     1       4.714 -12.080   2.902  0.00  0.00    +0.024 C 
ENDBRANCH  17  30
TORSDOF 4
