REMARK  Name = ZINC41607644
REMARK  7 active torsions:
REMARK  status: ('A' for Active; 'I' for Inactive)
REMARK    1  A    between atoms: C_1  and  C_2
REMARK    2  A    between atoms: C_2  and  C_4
REMARK    3  A    between atoms: C_2  and  S_15
REMARK    4  A    between atoms: C_10  and  C_12
REMARK    5  A    between atoms: C_12  and  C_13
REMARK    6  A    between atoms: C_12  and  C_14
REMARK    7  A    between atoms: S_15  and  C_16
REMARK                            x       y       z     vdW  Elec       q    Type
REMARK                         _______ _______ _______ _____ _____    ______ ____
ROOT
ATOM      1  C   UNL     1      -0.019   1.526   0.010  0.00  0.00    +0.029 C 
ATOM      2  C   UNL     1       0.002  -0.004   0.002  0.00  0.00    +0.137 C 
ENDROOT
BRANCH   2   3
ATOM      3  C   UNL     1       0.707  -0.490  -1.238  0.00  0.00    +0.232 C 
ATOM      4  O   UNL     1       0.066  -0.782  -2.225  0.00  0.00    -0.274 OA
ATOM      5  N   UNL     1       2.051  -0.601  -1.250  0.00  0.00    -0.262 N 
ATOM      6  C   UNL     1       2.702  -1.049  -2.394  0.00  0.00    +0.188 A 
ATOM      7  N   UNL     1       2.190  -1.405  -3.556  0.00  0.00    -0.126 NA
ATOM      8  N   UNL     1       2.916  -1.796  -4.513  0.00  0.00    -0.144 NA
ATOM      9  C   UNL     1       4.223  -1.849  -4.347  0.00  0.00    +0.106 A 
ATOM     10  S   UNL     1       4.351  -1.272  -2.660  0.00  0.00    -0.035 S 
ATOM     11  H   UNL     1       2.563  -0.367  -0.460  0.00  0.00    +0.157 HD
BRANCH   9  12
ATOM     12  C   UNL     1       5.303  -2.271  -5.309  0.00  0.00    +0.040 C 
ATOM     13  C   UNL     1       5.069  -3.723  -5.734  0.00  0.00    +0.014 C 
ATOM     14  C   UNL     1       5.269  -1.367  -6.543  0.00  0.00    +0.014 C 
ENDBRANCH   9  12
ENDBRANCH   2   3
BRANCH   2  15
ATOM     15  S   UNL     1      -1.700  -0.632   0.015  0.00  0.00    -0.075 S 
BRANCH  15  16
ATOM     16  C   UNL     1      -2.335  -0.110   1.573  0.00  0.00    +0.170 A 
ATOM     17  N   UNL     1      -3.615  -0.427   1.915  0.00  0.00    -0.302 N 
ATOM     18  H   UNL     1      -4.170  -0.936   1.304  0.00  0.00    +0.171 HD
ATOM     19  C   UNL     1      -4.105  -0.030   3.108  0.00  0.00    +0.255 A 
ATOM     20  O   UNL     1      -5.249  -0.304   3.431  0.00  0.00    -0.267 OA
ATOM     21  C   UNL     1      -3.274   0.707   3.971  0.00  0.00    +0.038 A 
ATOM     22  C   UNL     1      -2.000   0.997   3.579  0.00  0.00    +0.052 A 
ATOM     23  N   UNL     1      -1.562   0.576   2.391  0.00  0.00    -0.228 NA
ATOM     24  C   UNL     1      -1.295   1.790   4.658  0.00  0.00    +0.056 C 
ATOM     25  C   UNL     1      -2.423   2.323   5.568  0.00  0.00    +0.011 C 
ATOM     26  C   UNL     1      -3.539   1.279   5.346  0.00  0.00    +0.043 C 
ENDBRANCH  15  16
ENDBRANCH   2  15
TORSDOF 4
