REMARK  Name = ZINC01946669
REMARK  9 active torsions:
REMARK  status: ('A' for Active; 'I' for Inactive)
REMARK    1  A    between atoms: C_1  and  C_2
REMARK    2  A    between atoms: C_2  and  N_3
REMARK    3  A    between atoms: N_3  and  C_4
REMARK    4  A    between atoms: N_3  and  C_6
REMARK    5  A    between atoms: C_4  and  C_5
REMARK    6  A    between atoms: C_6  and  C_7
REMARK    7  A    between atoms: C_8  and  C_18
REMARK    8  A    between atoms: N_20  and  N_21
REMARK    9  A    between atoms: C_22  and  C_23
REMARK                            x       y       z     vdW  Elec       q    Type
REMARK                         _______ _______ _______ _____ _____    ______ ____
ROOT
ATOM      1  C   UNL     1       0.669   2.296   0.375  0.00  0.00    +0.063 A 
ATOM      2  C   UNL     1      -0.387   1.517   0.756  0.00  0.00    +0.170 A 
ATOM      3  N   UNL     1      -1.480   2.296   0.845  0.00  0.00    -0.124 NA
ATOM      4  N   UNL     1      -1.169   3.511   0.554  0.00  0.00    -0.058 NA
ATOM      5  N   UNL     1       0.198   3.555   0.243  0.00  0.00    -0.194 N 
ATOM      6  C   UNL     1       0.931   4.686  -0.133  0.00  0.00    +0.240 A 
ATOM      7  C   UNL     1       0.402   6.046  -0.271  0.00  0.00    +0.206 A 
ATOM      8  N   UNL     1       1.377   6.832  -0.635  0.00  0.00    -0.032 NA
ATOM      9  O   UNL     1       2.550   6.044  -0.746  0.00  0.00    -0.239 OA
ATOM     10  N   UNL     1       2.204   4.711  -0.413  0.00  0.00    -0.027 NA
ATOM     11  N   UNL     1      -0.916   6.432  -0.052  0.00  0.00    -0.337 N 
ATOM     12  H   UNL     1      -1.210   7.484  -0.184  0.00  0.00    +0.144 HD
ATOM     13  H   UNL     1      -1.664   5.686   0.254  0.00  0.00    +0.144 HD
ENDROOT
BRANCH   2  14
ATOM     14  C   UNL     1      -0.338   0.067   1.018  0.00  0.00    +0.285 C 
ATOM     15  O   UNL     1       0.711  -0.538   0.899  0.00  0.00    -0.267 OA
ATOM     16  N   UNL     1      -1.456  -0.589   1.389  0.00  0.00    -0.202 N 
ATOM     17  H   UNL     1      -2.404  -0.042   1.496  0.00  0.00    +0.178 HD
BRANCH  16  18
ATOM     18  N   UNL     1      -1.409  -1.967   1.638  0.00  0.00    -0.187 NA
ATOM     19  C   UNL     1      -2.486  -2.599   1.995  0.00  0.00    +0.138 C 
BRANCH  19  20
ATOM     20  C   UNL     1      -2.437  -4.048   2.257  0.00  0.00    -0.002 A 
ATOM     21  C   UNL     1      -1.234  -4.746   2.115  0.00  0.00    +0.013 A 
ATOM     22  C   UNL     1      -1.190  -6.101   2.365  0.00  0.00    +0.050 A 
ATOM     23  C   UNL     1      -2.339  -6.779   2.748  0.00  0.00    +0.166 A 
ATOM     24  C   UNL     1      -3.544  -6.090   2.885  0.00  0.00    +0.167 A 
ATOM     25  C   UNL     1      -3.594  -4.730   2.641  0.00  0.00    +0.059 A 
ATOM     26  O   UNL     1      -4.511  -6.975   3.266  0.00  0.00    -0.453 OA
ATOM     27  C   UNL     1      -3.804  -8.130   3.756  0.00  0.00    +0.466 C 
ATOM     28  O   UNL     1      -2.554  -8.094   3.042  0.00  0.00    -0.453 OA
ENDBRANCH  19  20
ENDBRANCH  16  18
ENDBRANCH   2  14
BRANCH   1  29
ATOM     29  C   UNL     1       2.087   1.838   0.147  0.00  0.00    -0.020 C 
BRANCH  29  30
ATOM     30  N   UNL     1       2.800   1.795   1.431  0.00  0.00    +0.383 N 
ATOM     31  H   UNL     1       2.185   1.220   2.140  0.00  0.00    -0.081 HD
BRANCH  30  33
ATOM     32  C   UNL     1       3.851  -0.366   0.960  0.00  0.00    -0.017 C 
ATOM     33  C   UNL     1       4.091   1.108   1.293  0.00  0.00    -0.082 C 
ENDBRANCH  30  33
BRANCH  30  34
ATOM     34  C   UNL     1       2.978   3.146   1.980  0.00  0.00    -0.082 C 
ATOM     35  C   UNL     1       3.406   3.048   3.446  0.00  0.00    -0.017 C 
ENDBRANCH  30  34
ENDBRANCH  29  30
ENDBRANCH   1  29
TORSDOF 7
