REMARK  Name = ZINC02968869
REMARK  7 active torsions:
REMARK  status: ('A' for Active; 'I' for Inactive)
REMARK    1  A    between atoms: C_9  and  C_25
REMARK    2  A    between atoms: C_12  and  S_14
REMARK    3  A    between atoms: S_14  and  C_15
REMARK    4  A    between atoms: C_15  and  C_16
REMARK    5  A    between atoms: C_16  and  C_18
REMARK    6  A    between atoms: C_25  and  C_26
REMARK    7  A    between atoms: C_26  and  N_27
REMARK                            x       y       z     vdW  Elec       q    Type
REMARK                         _______ _______ _______ _____ _____    ______ ____
ROOT
ATOM      1  C   UNL     1      -0.017   1.373   0.010  0.00  0.00    +0.001 A 
ATOM      2  C   UNL     1       1.170   2.096   0.002  0.00  0.00    +0.002 A 
ATOM      3  C   UNL     1       2.386   1.452  -0.013  0.00  0.00    +0.028 A 
ATOM      4  C   UNL     1       2.432   0.056  -0.021  0.00  0.00    +0.077 A 
ATOM      5  C   UNL     1       1.222  -0.676  -0.013  0.00  0.00    +0.045 A 
ATOM      6  C   UNL     1       0.002  -0.004   0.002  0.00  0.00    +0.014 A 
ATOM      7  C   UNL     1       1.304  -2.141  -0.022  0.00  0.00    +0.168 A 
ATOM      8  N   UNL     1       0.420  -3.115  -0.020  0.00  0.00    -0.211 NA
ATOM      9  C   UNL     1       1.046  -4.289  -0.032  0.00  0.00    +0.150 A 
ATOM     10  N   UNL     1       2.341  -4.094  -0.043  0.00  0.00    -0.148 NA
ATOM     11  N   UNL     1       2.550  -2.708  -0.037  0.00  0.00    -0.188 N 
ATOM     12  C   UNL     1       3.667  -1.919  -0.042  0.00  0.00    +0.192 A 
ATOM     13  N   UNL     1       3.611  -0.612  -0.036  0.00  0.00    -0.222 NA
ENDROOT
BRANCH  12  14
ATOM     14  S   UNL     1       5.249  -2.695  -0.061  0.00  0.00    -0.078 S 
BRANCH  14  15
ATOM     15  C   UNL     1       6.419  -1.309  -0.063  0.00  0.00    +0.157 C 
BRANCH  15  16
ATOM     16  C   UNL     1       7.829  -1.841  -0.079  0.00  0.00    +0.173 C 
ATOM     17  O   UNL     1       8.025  -3.037  -0.088  0.00  0.00    -0.291 OA
BRANCH  16  18
ATOM     18  C   UNL     1       8.966  -0.908  -0.084  0.00  0.00    +0.018 A 
ATOM     19  C   UNL     1       8.744   0.472  -0.068  0.00  0.00    +0.012 A 
ATOM     20  C   UNL     1       9.815   1.340  -0.072  0.00  0.00    +0.016 A 
ATOM     21  C   UNL     1      11.109   0.847  -0.092  0.00  0.00    +0.018 A 
ATOM     22  C   UNL     1      11.338  -0.519  -0.108  0.00  0.00    +0.016 A 
ATOM     23  C   UNL     1      10.277  -1.399  -0.098  0.00  0.00    +0.012 A 
ATOM     24 BR   UNL     1      12.572   2.046  -0.098  0.00  0.00    -0.050 Br
ENDBRANCH  16  18
ENDBRANCH  15  16
ENDBRANCH  14  15
ENDBRANCH  12  14
BRANCH   9  25
ATOM     25  C   UNL     1       0.369  -5.635  -0.034  0.00  0.00    +0.059 C 
BRANCH  25  26
ATOM     26  C   UNL     1       0.126  -6.082  -1.477  0.00  0.00    -0.071 C 
BRANCH  26  27
ATOM     27  N   UNL     1      -0.534  -7.394  -1.479  0.00  0.00    +0.380 N 
ATOM     28  C   UNL     1       0.370  -8.396  -0.900  0.00  0.00    -0.079 C 
ATOM     29  C   UNL     1      -0.342  -9.748  -0.825  0.00  0.00    -0.019 C 
ATOM     30  C   UNL     1      -0.751 -10.182  -2.235  0.00  0.00    -0.004 C 
ATOM     31  C   UNL     1      -1.633  -9.096  -2.857  0.00  0.00    -0.019 C 
ATOM     32  C   UNL     1      -0.873  -7.768  -2.857  0.00  0.00    -0.079 C 
ATOM     33  H   UNL     1      -1.377  -7.347  -0.927  0.00  0.00    -0.082 HD
ENDBRANCH  26  27
ENDBRANCH  25  26
ENDBRANCH   9  25
TORSDOF 7
