REMARK  Name = ZINC01439260
REMARK  8 active torsions:
REMARK  status: ('A' for Active; 'I' for Inactive)
REMARK    1  A    between atoms: C_1  and  O_2
REMARK    2  A    between atoms: O_2  and  C_3
REMARK    3  A    between atoms: C_7  and  N_9
REMARK    4  A    between atoms: C_10  and  C_11
REMARK    5  A    between atoms: C_16  and  O_17
REMARK    6  A    between atoms: C_19  and  N_32
REMARK    7  A    between atoms: C_20  and  C_30
REMARK    8  A    between atoms: C_21  and  C_23
REMARK                            x       y       z     vdW  Elec       q    Type
REMARK                         _______ _______ _______ _____ _____    ______ ____
ROOT
ATOM      1  C   UNL     1       3.642   1.476  -1.763  0.00  0.00    +0.035 A 
ATOM      2  C   UNL     1       2.918   0.296  -1.965  0.00  0.00    +0.021 A 
ATOM      3  C   UNL     1       1.555   0.345  -2.156  0.00  0.00    +0.008 A 
ATOM      4  C   UNL     1       0.891   1.567  -2.148  0.00  0.00    +0.138 A 
ATOM      5  C   UNL     1       1.602   2.745  -1.948  0.00  0.00    +0.092 A 
ATOM      6  C   UNL     1       2.970   2.710  -1.755  0.00  0.00    +0.129 A 
ATOM      7  O   UNL     1      -0.450   1.629  -2.335  0.00  0.00    -0.441 OA
ATOM      8  C   UNL     1      -1.096   0.598  -2.903  0.00  0.00    +0.199 C 
ATOM      9  C   UNL     1      -0.561  -0.644  -2.954  0.00  0.00    +0.098 C 
ATOM     10  C   UNL     1       0.794  -0.936  -2.372  0.00  0.00    +0.098 C 
ENDROOT
BRANCH  10  11
ATOM     11  C   UNL     1       0.628  -1.647  -1.053  0.00  0.00    -0.034 A 
ATOM     12  C   UNL     1       0.431  -0.917   0.105  0.00  0.00    +0.004 A 
ATOM     13  C   UNL     1       0.274  -1.569   1.314  0.00  0.00    +0.001 A 
ATOM     14  C   UNL     1       0.324  -2.949   1.367  0.00  0.00    +0.014 A 
ATOM     15  C   UNL     1       0.525  -3.679   0.210  0.00  0.00    +0.014 A 
ATOM     16  C   UNL     1       0.677  -3.027  -1.001  0.00  0.00    +0.019 A 
ATOM     17  I   UNL     1       0.602  -5.771   0.290  0.00  0.00    -0.044 I 
ENDBRANCH  10  11
BRANCH   8  18
ATOM     18  N   UNL     1      -2.335   0.811  -3.455  0.00  0.00    -0.328 N 
ATOM     19  H   UNL     1      -2.879  -0.021  -3.925  0.00  0.00    +0.145 HD
ATOM     20  H   UNL     1      -2.784   1.815  -3.427  0.00  0.00    +0.145 HD
ENDBRANCH   8  18
BRANCH   1  22
ATOM     21  N   UNL     1       5.682   0.284  -1.323  0.00  0.00    -0.255 NA
ATOM     22  C   UNL     1       5.096   1.425  -1.560  0.00  0.00    +0.123 C 
BRANCH  21  27
ATOM     23  C   UNL     1       4.346  -3.116  -1.191  0.00  0.00    +0.122 A 
ATOM     24  C   UNL     1       3.433  -2.991  -0.151  0.00  0.00    +0.046 A 
ATOM     25  C   UNL     1       3.273  -1.778   0.493  0.00  0.00    +0.006 A 
ATOM     26  C   UNL     1       4.023  -0.684   0.110  0.00  0.00    +0.028 A 
ATOM     27  C   UNL     1       4.939  -0.799  -0.937  0.00  0.00    +0.067 A 
ATOM     28  C   UNL     1       5.099  -2.025  -1.586  0.00  0.00    +0.073 A 
BRANCH  23  30
ATOM     29  C   UNL     1       3.688  -5.395  -1.360  0.00  0.00    +0.277 C 
ATOM     30  O   UNL     1       4.498  -4.311  -1.819  0.00  0.00    -0.495 OA
ENDBRANCH  23  30
ENDBRANCH  21  27
ENDBRANCH   1  22
BRANCH   6  31
ATOM     31  O   UNL     1       3.662   3.861  -1.560  0.00  0.00    -0.506 OA
ATOM     32  H   UNL     1       3.133   4.826  -1.554  0.00  0.00    +0.292 HD
ENDBRANCH   6  31
BRANCH   9  33
ATOM     33  C   UNL     1      -1.300  -1.702  -3.575  0.00  0.00    +0.101 C 
ATOM     34  N   UNL     1      -1.887  -2.541  -4.067  0.00  0.00    -0.191 NA
ENDBRANCH   9  33
TORSDOF 7
