REMARK  Name = ZINC20275536
REMARK  11 active torsions:
REMARK  status: ('A' for Active; 'I' for Inactive)
REMARK    1  A    between atoms: C_1  and  C_2
REMARK    2  A    between atoms: C_17  and  C_32
REMARK    3  A    between atoms: C_22  and  C_23
REMARK    4  A    between atoms: C_22  and  O_31
REMARK    5  A    between atoms: C_23  and  N_24
REMARK    6  A    between atoms: N_24  and  C_25
REMARK    7  A    between atoms: N_24  and  C_28
REMARK    8  A    between atoms: C_25  and  C_26
REMARK    9  A    between atoms: C_26  and  O_27
REMARK   10  A    between atoms: C_28  and  C_29
REMARK   11  A    between atoms: C_29  and  O_30
REMARK                            x       y       z     vdW  Elec       q    Type
REMARK                         _______ _______ _______ _____ _____    ______ ____
ROOT
ATOM      1  C   UNL     1       2.072   4.984   2.943  0.00  0.00    +0.012 C 
ATOM      2  C   UNL     1       1.706   4.778   1.466  0.00  0.00    -0.026 C 
ATOM      3  C   UNL     1       0.480   5.643   1.168  0.00  0.00    +0.007 C 
ATOM      4  C   UNL     1       0.795   7.121   1.394  0.00  0.00    +0.001 C 
ATOM      5  C   UNL     1       1.967   7.549   0.512  0.00  0.00    +0.000 C 
ATOM      6  C   UNL     1       3.197   6.695   0.822  0.00  0.00    +0.004 C 
ATOM      7  C   UNL     1       2.871   5.220   0.596  0.00  0.00    -0.005 C 
ATOM      8  C   UNL     1       4.098   4.359   0.888  0.00  0.00    +0.004 C 
ATOM      9  C   UNL     1       3.793   2.908   0.560  0.00  0.00    +0.004 C 
ATOM     10  C   UNL     1       2.565   2.362   1.272  0.00  0.00    -0.004 C 
ATOM     11  C   UNL     1       1.388   3.313   1.304  0.00  0.00    -0.001 C 
ATOM     12  C   UNL     1       0.421   3.017   0.162  0.00  0.00    +0.005 C 
ATOM     13  C   UNL     1      -0.303   1.687   0.457  0.00  0.00    +0.010 C 
ATOM     14  C   UNL     1       0.707   0.670   0.928  0.00  0.00    -0.002 C 
ATOM     15  C   UNL     1       2.136   1.097   0.534  0.00  0.00    +0.001 C 
ATOM     16  C   UNL     1       2.953  -0.150   0.918  0.00  0.00    +0.007 C 
ATOM     17  C   UNL     1       2.042  -1.321   0.471  0.00  0.00    +0.034 C 
ATOM     18  C   UNL     1       0.612  -0.738   0.326  0.00  0.00    +0.057 C 
ATOM     19  C   UNL     1       0.592   0.514   2.455  0.00  0.00    +0.014 C 
ENDROOT
BRANCH  18  20
ATOM     20  O   UNL     1      -0.317  -1.527   1.069  0.00  0.00    -0.390 OA
ATOM     21  H   UNL     1      -0.511  -2.570   0.776  0.00  0.00    +0.210 HD
ENDBRANCH  18  20
BRANCH  18  22
ATOM     22  C   UNL     1       0.229  -0.710  -1.152  0.00  0.00    -0.043 C 
BRANCH  22  23
ATOM     23  N   UNL     1       0.189  -2.083  -1.673  0.00  0.00    +0.384 N 
ATOM     24  H   UNL     1       0.957  -2.667  -1.146  0.00  0.00    -0.082 HD
BRANCH  23  25
ATOM     25  C   UNL     1      -1.114  -2.708  -1.410  0.00  0.00    -0.050 C 
BRANCH  25  26
ATOM     26  C   UNL     1      -0.994  -4.225  -1.575  0.00  0.00    +0.137 C 
BRANCH  26  27
ATOM     27  O   UNL     1      -0.116  -4.744  -0.574  0.00  0.00    -0.397 OA
ATOM     28  H   UNL     1       0.094  -5.823  -0.533  0.00  0.00    +0.209 HD
ENDBRANCH  26  27
ENDBRANCH  25  26
ENDBRANCH  23  25
BRANCH  23  29
ATOM     29  C   UNL     1       0.506  -2.111  -3.107  0.00  0.00    -0.050 C 
BRANCH  29  30
ATOM     30  C   UNL     1       2.013  -1.925  -3.300  0.00  0.00    +0.137 C 
BRANCH  30  31
ATOM     31  O   UNL     1       2.709  -3.013  -2.688  0.00  0.00    -0.397 OA
ATOM     32  H   UNL     1       3.807  -3.052  -2.723  0.00  0.00    +0.209 HD
ENDBRANCH  30  31
ENDBRANCH  29  30
ENDBRANCH  23  29
ENDBRANCH  22  23
ENDBRANCH  18  22
TORSDOF 9
