REMARK  Name = ZINC01243125
REMARK  9 active torsions:
REMARK  status: ('A' for Active; 'I' for Inactive)
REMARK    1  A    between atoms: C_1  and  C_2
REMARK    2  A    between atoms: C_5  and  N_8
REMARK    3  A    between atoms: C_18  and  S_19
REMARK    4  A    between atoms: S_19  and  C_20
REMARK    5  A    between atoms: C_20  and  C_21
REMARK    6  A    between atoms: N_23  and  N_24
REMARK    7  A    between atoms: C_25  and  C_26
REMARK    8  A    between atoms: C_29  and  O_33
REMARK    9  A    between atoms: C_31  and  O_32
REMARK                            x       y       z     vdW  Elec       q    Type
REMARK                         _______ _______ _______ _____ _____    ______ ____
ROOT
ATOM      1  N   UNL     1      -5.416   9.921   0.082  0.00  0.00    -0.255 N 
ATOM      2  C   UNL     1      -6.602  10.338   0.583  0.00  0.00    +0.267 A 
ATOM      3  O   UNL     1      -6.736  11.459   1.037  0.00  0.00    -0.267 OA
ATOM      4  C   UNL     1      -7.721   9.388   0.559  0.00  0.00    +0.065 A 
ATOM      5  C   UNL     1      -8.982   9.722   1.051  0.00  0.00    +0.015 A 
ATOM      6  C   UNL     1      -9.991   8.799   1.004  0.00  0.00    +0.001 A 
ATOM      7  C   UNL     1      -9.771   7.535   0.472  0.00  0.00    +0.002 A 
ATOM      8  C   UNL     1      -8.546   7.181  -0.017  0.00  0.00    +0.028 A 
ATOM      9  C   UNL     1      -7.495   8.102   0.017  0.00  0.00    +0.079 A 
ATOM     10  N   UNL     1      -6.266   7.795  -0.461  0.00  0.00    -0.223 NA
ATOM     11  C   UNL     1      -5.282   8.658  -0.425  0.00  0.00    +0.177 A 
ENDROOT
BRANCH   1  16
ATOM     12  C   UNL     1      -0.966  13.442   0.084  0.00  0.00    +0.044 C 
ATOM     13  C   UNL     1      -2.147  12.507   0.083  0.00  0.00    -0.050 A 
ATOM     14  C   UNL     1      -3.007  12.482  -1.000  0.00  0.00    +0.005 A 
ATOM     15  C   UNL     1      -4.091  11.626  -1.003  0.00  0.00    +0.026 A 
ATOM     16  C   UNL     1      -4.317  10.790   0.082  0.00  0.00    +0.052 A 
ATOM     17  C   UNL     1      -3.455  10.822   1.170  0.00  0.00    +0.026 A 
ATOM     18  C   UNL     1      -2.370  11.675   1.165  0.00  0.00    +0.005 A 
ENDBRANCH   1  16
BRANCH  11  19
ATOM     19  S   UNL     1      -3.713   8.171  -1.064  0.00  0.00    -0.078 S 
BRANCH  19  20
ATOM     20  C   UNL     1      -4.095   6.478  -1.578  0.00  0.00    +0.174 C 
BRANCH  20  21
ATOM     21  C   UNL     1      -2.864   5.844  -2.173  0.00  0.00    +0.242 C 
ATOM     22  O   UNL     1      -1.830   6.475  -2.243  0.00  0.00    -0.273 OA
ATOM     23  N   UNL     1      -2.912   4.577  -2.628  0.00  0.00    -0.206 N 
ATOM     24  H   UNL     1      -3.739   4.072  -2.572  0.00  0.00    +0.177 HD
BRANCH  23  25
ATOM     25  N   UNL     1      -1.768   3.987  -3.181  0.00  0.00    -0.188 NA
ATOM     26  C   UNL     1      -1.814   2.766  -3.619  0.00  0.00    +0.142 C 
BRANCH  26  27
ATOM     27  C   UNL     1      -0.611   2.146  -4.201  0.00  0.00    +0.036 A 
ATOM     28  C   UNL     1      -0.657   0.832  -4.673  0.00  0.00    +0.016 A 
ATOM     29  C   UNL     1       0.469   0.258  -5.222  0.00  0.00    +0.046 A 
ATOM     30  C   UNL     1       1.652   0.982  -5.308  0.00  0.00    +0.120 A 
ATOM     31  C   UNL     1       1.709   2.288  -4.842  0.00  0.00    +0.091 A 
ATOM     32  C   UNL     1       0.584   2.875  -4.288  0.00  0.00    +0.129 A 
BRANCH  32  33
ATOM     33  O   UNL     1       0.638   4.153  -3.832  0.00  0.00    -0.506 OA
ATOM     34  H   UNL     1       0.891   4.228  -2.902  0.00  0.00    +0.292 HD
ENDBRANCH  32  33
BRANCH  30  35
ATOM     35  O   UNL     1       2.758   0.409  -5.851  0.00  0.00    -0.507 OA
ATOM     36  H   UNL     1       2.839   0.539  -6.805  0.00  0.00    +0.292 HD
ENDBRANCH  30  35
ENDBRANCH  26  27
ENDBRANCH  23  25
ENDBRANCH  20  21
ENDBRANCH  19  20
ENDBRANCH  11  19
TORSDOF 8
