REMARK  Name = ZINC39989821
REMARK  15 active torsions:
REMARK  status: ('A' for Active; 'I' for Inactive)
REMARK    1  A    between atoms: C_1  and  C_2
REMARK    2  A    between atoms: C_2  and  C_3
REMARK    3  A    between atoms: C_3  and  C_4
REMARK    4  A    between atoms: C_4  and  C_5
REMARK    5  A    between atoms: C_5  and  N_6
REMARK    6  A    between atoms: C_10  and  C_11
REMARK    7  A    between atoms: C_12  and  C_34
REMARK    8  A    between atoms: C_13  and  C_32
REMARK    9  A    between atoms: N_16  and  C_30
REMARK   10  A    between atoms: C_17  and  N_18
REMARK   11  A    between atoms: C_22  and  C_25
REMARK   12  A    between atoms: C_25  and  O_27
REMARK   13  A    between atoms: O_27  and  C_28
REMARK   14  A    between atoms: C_28  and  C_29
REMARK   15  A    between atoms: C_30  and  C_31
REMARK                            x       y       z     vdW  Elec       q    Type
REMARK                         _______ _______ _______ _____ _____    ______ ____
ROOT
ATOM      1  C   UNL     1       3.008  -8.356  -1.570  0.00  0.00    +0.019 A 
ATOM      2  C   UNL     1       1.846  -8.745  -2.259  0.00  0.00    -0.017 A 
ATOM      3  C   UNL     1       1.592 -10.102  -2.438  0.00  0.00    +0.120 A 
ATOM      4  C   UNL     1       2.506 -11.056  -1.923  0.00  0.00    +0.270 A 
ATOM      5  O   UNL     1       2.289 -12.245  -2.076  0.00  0.00    -0.266 OA
ATOM      6  N   UNL     1       3.611 -10.658  -1.267  0.00  0.00    -0.295 N 
ATOM      7  C   UNL     1       3.884  -9.341  -1.085  0.00  0.00    +0.112 A 
ATOM      8  C   UNL     1       0.891  -7.710  -2.795  0.00  0.00    +0.046 C 
ENDROOT
BRANCH   1  13
ATOM      9  N   UNL     1       4.046  -4.179  -3.657  0.00  0.00    -0.255 N 
ATOM     10  C   UNL     1       3.788  -4.727  -2.482  0.00  0.00    +0.258 C 
ATOM     11  O   UNL     1       3.728  -4.049  -1.473  0.00  0.00    -0.269 OA
ATOM     12  C   UNL     1       3.582  -6.140  -2.433  0.00  0.00    +0.077 C 
ATOM     13  C   UNL     1       3.305  -6.937  -1.366  0.00  0.00    +0.032 C 
ATOM     14  S   UNL     1       3.785  -6.574  -4.155  0.00  0.00    -0.061 S 
ATOM     15  C   UNL     1       4.107  -4.931  -4.778  0.00  0.00    +0.121 C 
ATOM     16  S   UNL     1       4.417  -4.435  -6.387  0.00  0.00    -0.027 S 
BRANCH   9  17
ATOM     17  C   UNL     1       4.264  -2.732  -3.745  0.00  0.00    +0.115 C 
BRANCH  17  18
ATOM     18  C   UNL     1       2.927  -2.030  -3.987  0.00  0.00    +0.019 C 
BRANCH  18  19
ATOM     19  C   UNL     1       3.154  -0.519  -4.080  0.00  0.00    +0.001 C 
BRANCH  19  21
ATOM     20  C   UNL     1       2.044   1.694  -4.414  0.00  0.00    +0.004 C 
ATOM     21  C   UNL     1       1.817   0.184  -4.322  0.00  0.00    -0.003 C 
ENDBRANCH  19  21
ENDBRANCH  18  19
ENDBRANCH  17  18
ENDBRANCH   9  17
ENDBRANCH   1  13
BRANCH   7  22
ATOM     22  N   UNL     1       5.016  -8.970  -0.420  0.00  0.00    -0.315 N 
ATOM     23  C   UNL     1       5.011  -8.820   1.042  0.00  0.00    +0.106 C 
ATOM     24  C   UNL     1       5.543  -7.427   1.396  0.00  0.00    +0.020 C 
ATOM     25  C   UNL     1       6.915  -7.229   0.749  0.00  0.00    +0.018 C 
ATOM     26  C   UNL     1       6.782  -7.322  -0.773  0.00  0.00    +0.115 C 
ATOM     27  C   UNL     1       6.266  -8.719  -1.152  0.00  0.00    +0.121 C 
BRANCH  26  28
ATOM     28  C   UNL     1       8.128  -7.094  -1.411  0.00  0.00    +0.312 C 
ATOM     29  O   UNL     1       8.623  -7.954  -2.101  0.00  0.00    -0.250 OA
BRANCH  28  30
ATOM     30  O   UNL     1       8.777  -5.936  -1.213  0.00  0.00    -0.465 OA
BRANCH  30  31
ATOM     31  C   UNL     1      10.048  -5.788  -1.849  0.00  0.00    +0.229 C 
ATOM     32  C   UNL     1      10.631  -4.415  -1.510  0.00  0.00    +0.048 C 
ENDBRANCH  30  31
ENDBRANCH  28  30
ENDBRANCH  26  28
ENDBRANCH   7  22
BRANCH   6  33
ATOM     33  C   UNL     1       4.539 -11.664  -0.745  0.00  0.00    +0.123 C 
ATOM     34  C   UNL     1       5.509 -12.087  -1.851  0.00  0.00    +0.027 C 
ENDBRANCH   6  33
BRANCH   3  35
ATOM     35  C   UNL     1       0.417 -10.530  -3.135  0.00  0.00    +0.105 C 
ATOM     36  N   UNL     1      -0.516 -10.871  -3.688  0.00  0.00    -0.191 NA
ENDBRANCH   3  35
TORSDOF 11
