REMARK  Name = ZINC21263041
REMARK  13 active torsions:
REMARK  status: ('A' for Active; 'I' for Inactive)
REMARK    1  A    between atoms: C_1  and  C_2
REMARK    2  A    between atoms: C_2  and  C_30
REMARK    3  A    between atoms: C_4  and  N_10
REMARK    4  A    between atoms: C_6  and  C_8
REMARK    5  A    between atoms: C_6  and  C_9
REMARK    6  A    between atoms: N_10  and  C_11
REMARK    7  A    between atoms: C_11  and  N_13
REMARK    8  A    between atoms: N_13  and  C_14
REMARK    9  A    between atoms: N_13  and  C_23
REMARK   10  A    between atoms: C_14  and  C_15
REMARK   11  A    between atoms: C_18  and  O_21
REMARK   12  A    between atoms: O_21  and  C_22
REMARK   13  A    between atoms: C_23  and  C_24
REMARK                            x       y       z     vdW  Elec       q    Type
REMARK                         _______ _______ _______ _____ _____    ______ ____
ROOT
ATOM      1  C   UNL     1       1.312  -1.792  -6.384  0.00  0.00    +0.133 C 
ATOM      2  S   UNL     1       2.201  -0.330  -6.344  0.00  0.00    -0.019 S 
ENDROOT
BRANCH   1   3
ATOM      3  N   UNL     1       0.405  -2.003  -7.359  0.00  0.00    -0.324 N 
ATOM      4  H   UNL     1      -0.166  -2.943  -7.384  0.00  0.00    +0.148 HD
BRANCH   3   8
ATOM      5  C   UNL     1       0.699  -0.144 -11.342  0.00  0.00    -0.010 C 
ATOM      6  C   UNL     1      -0.631  -0.598 -10.729  0.00  0.00    -0.072 C 
ATOM      7  C   UNL     1      -0.365  -1.644  -9.649  0.00  0.00    +0.009 C 
ATOM      8  C   UNL     1       0.180  -0.978  -8.386  0.00  0.00    +0.069 C 
ATOM      9  C   UNL     1      -0.857   0.023  -7.878  0.00  0.00    +0.009 C 
ATOM     10  C   UNL     1      -1.127   1.091  -8.937  0.00  0.00    -0.072 C 
ATOM     11  N   UNL     1      -1.396   0.533 -10.245  0.00  0.00    +0.386 N 
ATOM     12  C   UNL     1       0.049   2.073  -8.985  0.00  0.00    -0.010 C 
ATOM     13  C   UNL     1      -2.371   1.888  -8.487  0.00  0.00    -0.010 C 
ATOM     14  C   UNL     1      -1.442  -1.284 -11.852  0.00  0.00    -0.010 C 
ATOM     15  H   UNL     1      -1.261   1.385 -10.927  0.00  0.00    -0.084 HD
ATOM     16  H   UNL     1      -2.462   0.263 -10.202  0.00  0.00    -0.084 HD
ENDBRANCH   3   8
ENDBRANCH   1   3
BRANCH   1  17
ATOM     17  N   UNL     1       1.519  -2.733  -5.441  0.00  0.00    -0.306 N 
BRANCH  17  18
ATOM     18  C   UNL     1       2.504  -2.503  -4.382  0.00  0.00    +0.142 C 
BRANCH  18  19
ATOM     19  C   UNL     1       1.835  -1.835  -3.209  0.00  0.00    -0.030 A 
ATOM     20  C   UNL     1       1.275  -2.602  -2.204  0.00  0.00    +0.009 A 
ATOM     21  C   UNL     1       0.661  -1.992  -1.128  0.00  0.00    +0.046 A 
ATOM     22  C   UNL     1       0.606  -0.607  -1.056  0.00  0.00    +0.120 A 
ATOM     23  C   UNL     1       1.163   0.161  -2.068  0.00  0.00    +0.046 A 
ATOM     24  C   UNL     1       1.782  -0.455  -3.139  0.00  0.00    +0.009 A 
BRANCH  22  25
ATOM     25  O   UNL     1       0.002  -0.004   0.002  0.00  0.00    -0.495 OA
ATOM     26  C   UNL     1      -0.017   1.425   0.010  0.00  0.00    +0.277 C 
ENDBRANCH  22  25
ENDBRANCH  18  19
ENDBRANCH  17  18
BRANCH  17  27
ATOM     27  C   UNL     1       0.758  -3.984  -5.475  0.00  0.00    +0.138 C 
BRANCH  27  28
ATOM     28  C   UNL     1      -0.530  -3.821  -4.665  0.00  0.00    +0.136 C 
ATOM     29  C   UNL     1      -1.287  -5.165  -4.583  0.00  0.00    +0.035 C 
ATOM     30  C   UNL     1      -2.776  -4.762  -4.670  0.00  0.00    +0.031 C 
ATOM     31  C   UNL     1      -2.742  -3.223  -4.795  0.00  0.00    +0.160 C 
ATOM     32  O   UNL     1      -1.439  -2.925  -5.342  0.00  0.00    -0.375 OA
ENDBRANCH  27  28
ENDBRANCH  17  27
ENDBRANCH   1  17
TORSDOF 8
