REMARK  Name = ZINC40220834
REMARK  7 active torsions:
REMARK  status: ('A' for Active; 'I' for Inactive)
REMARK    1  A    between atoms: C_1  and  C_2
REMARK    2  A    between atoms: C_2  and  C_3
REMARK    3  A    between atoms: C_2  and  C_4
REMARK    4  A    between atoms: C_2  and  N_5
REMARK    5  A    between atoms: N_8  and  C_9
REMARK    6  A    between atoms: C_11  and  S_16
REMARK    7  A    between atoms: S_16  and  N_19
REMARK                            x       y       z     vdW  Elec       q    Type
REMARK                         _______ _______ _______ _____ _____    ______ ____
ROOT
ATOM      1  C   UNL     1       3.900  -0.125  -2.822  0.00  0.00    +0.055 A 
ATOM      2  C   UNL     1       4.798   0.109  -1.789  0.00  0.00    +0.053 A 
ATOM      3  C   UNL     1       6.077   0.545  -2.074  0.00  0.00    +0.107 A 
ATOM      4  C   UNL     1       6.465   0.748  -3.386  0.00  0.00    +0.030 A 
ATOM      5  C   UNL     1       5.573   0.516  -4.417  0.00  0.00    +0.024 A 
ATOM      6  C   UNL     1       4.293   0.074  -4.139  0.00  0.00    +0.062 A 
ATOM      7 CL   UNL     1       3.176  -0.225  -5.434  0.00  0.00    -0.082 Cl
ENDROOT
BRANCH   1  11
ATOM      8  N   UNL     1       0.693  -0.490  -1.194  0.00  0.00    -0.294 N 
ATOM      9  C   UNL     1       1.974  -0.137  -1.424  0.00  0.00    +0.304 C 
ATOM     10  O   UNL     1       2.562   0.569  -0.627  0.00  0.00    -0.252 OA
ATOM     11  N   UNL     1       2.602  -0.567  -2.536  0.00  0.00    -0.268 N 
ATOM     12  H   UNL     1       0.224  -1.053  -1.830  0.00  0.00    +0.151 HD
ATOM     13  H   UNL     1       2.156  -1.182  -3.138  0.00  0.00    +0.156 HD
BRANCH   8  15
ATOM     14  C   UNL     1      -0.020   1.507   0.024  0.00  0.00    +0.031 C 
ATOM     15  C   UNL     1       0.010  -0.022   0.014  0.00  0.00    +0.028 C 
ATOM     16  C   UNL     1       0.759  -0.526   1.250  0.00  0.00    +0.031 C 
ATOM     17  C   UNL     1      -1.422  -0.561   0.031  0.00  0.00    +0.031 C 
ENDBRANCH   8  15
ENDBRANCH   1  11
BRANCH   3  18
ATOM     18  S   UNL     1       7.218   0.843  -0.764  0.00  0.00    +0.056 S 
ATOM     19  O   UNL     1       8.176   1.766  -1.262  0.00  0.00    -0.153 OA
ATOM     20  O   UNL     1       6.442   1.102   0.398  0.00  0.00    -0.153 OA
BRANCH  18  21
ATOM     21  N   UNL     1       8.026  -0.575  -0.487  0.00  0.00    -0.204 NA
ATOM     22  H   UNL     1       8.938  -0.557  -0.157  0.00  0.00    +0.144 HD
ATOM     23  H   UNL     1       7.588  -1.424  -0.654  0.00  0.00    +0.144 HD
ENDBRANCH  18  21
ENDBRANCH   3  18
TORSDOF 4
