REMARK  Name = ZINC27519679
REMARK  5 active torsions:
REMARK  status: ('A' for Active; 'I' for Inactive)
REMARK    1  A    between atoms: C_3  and  C_10
REMARK    2  A    between atoms: CA_5  and  C_7
REMARK    3  A    between atoms: C_10  and  C_12
REMARK    4  A    between atoms: C_15  and  S_19
REMARK    5  A    between atoms: S_19  and  N_22
REMARK                            x       y       z     vdW  Elec       q    Type
REMARK                         _______ _______ _______ _____ _____    ______ ____
ROOT
ATOM      1  C   UNL     1       1.284  -0.724  -0.126  0.00  0.00    +0.038 A 
ATOM      2  C   UNL     1       2.490  -0.016  -0.134  0.00  0.00    +0.015 A 
ATOM      3  C   UNL     1       3.683  -0.695  -0.253  0.00  0.00    +0.029 A 
ATOM      4  C   UNL     1       3.691  -2.075  -0.363  0.00  0.00    +0.106 A 
ATOM      5  C   UNL     1       2.503  -2.784  -0.356  0.00  0.00    +0.044 A 
ATOM      6  C   UNL     1       1.300  -2.118  -0.233  0.00  0.00    +0.031 A 
ATOM      7 BR   UNL     1      -0.323  -3.088  -0.216  0.00  0.00    -0.050 Br
ENDROOT
BRANCH   4   8
ATOM      8  S   UNL     1       5.222  -2.934  -0.515  0.00  0.00    +0.056 S 
ATOM      9  O   UNL     1       4.933  -4.171  -1.152  0.00  0.00    -0.153 OA
ATOM     10  O   UNL     1       6.158  -2.005  -1.045  0.00  0.00    -0.153 OA
BRANCH   8  11
ATOM     11  N   UNL     1       5.733  -3.298   1.018  0.00  0.00    -0.204 NA
ATOM     12  H   UNL     1       6.691  -3.837   0.966  0.00  0.00    +0.144 HD
ATOM     13  H   UNL     1       4.982  -3.931   1.514  0.00  0.00    +0.144 HD
ENDBRANCH   8  11
ENDBRANCH   4   8
BRANCH   1  14
ATOM     14  C   UNL     1       0.002  -0.004   0.002  0.00  0.00    +0.212 C 
ATOM     15  O   UNL     1      -1.035  -0.626   0.122  0.00  0.00    -0.285 OA
BRANCH  14  18
ATOM     16  C   UNL     1      -1.256   3.535  -0.024  0.00  0.00    +0.004 A 
ATOM     17  C   UNL     1      -1.245   2.150  -0.011  0.00  0.00    +0.032 A 
ATOM     18  C   UNL     1      -0.021   1.477  -0.016  0.00  0.00    +0.112 A 
ATOM     19  N   UNL     1       1.120   2.150  -0.043  0.00  0.00    -0.237 NA
ATOM     20  CA  UNL     1       1.143   3.473  -0.060  0.00  0.00    +0.152 A 
ATOM     21  C   UNL     1      -0.045   4.207  -0.051  0.00  0.00    +0.035 A 
BRANCH  20  22
ATOM     22  C   UNL     1       2.443   4.182  -0.089  0.00  0.00    +0.404 C 
ATOM     23  O   UNL     1       2.472   5.396  -0.105  0.00  0.00    -0.239 OA
ATOM     24  OXT UNL     1       3.593   3.481  -0.099  0.00  0.00    -0.239 OA
ENDBRANCH  20  22
ENDBRANCH  14  18
ENDBRANCH   1  14
TORSDOF 5
