REMARK  Name = ZINC35749923
REMARK  10 active torsions:
REMARK  status: ('A' for Active; 'I' for Inactive)
REMARK    1  A    between atoms: C_1  and  C_2
REMARK    2  A    between atoms: C_2  and  C_3
REMARK    3  A    between atoms: C_3  and  C_5
REMARK    4  A    between atoms: C_3  and  N_6
REMARK    5  A    between atoms: C_7  and  C_9
REMARK    6  A    between atoms: C_11  and  C_24
REMARK    7  A    between atoms: N_16  and  C_17
REMARK    8  A    between atoms: C_17  and  C_18
REMARK    9  A    between atoms: C_27  and  N_30
REMARK   10  A    between atoms: C_31  and  C_33
REMARK                            x       y       z     vdW  Elec       q    Type
REMARK                         _______ _______ _______ _____ _____    ______ ____
ROOT
ATOM      1  C   UNL     1       4.473   0.567  -2.359  0.00  0.00    +0.210 C 
ATOM      2  C   UNL     1       5.209  -0.756  -2.041  0.00  0.00    +0.238 C 
ATOM      3  O   UNL     1       6.375  -0.661  -2.882  0.00  0.00    -0.440 OA
ATOM      4  C   UNL     1       6.071   0.128  -3.927  0.00  0.00    +0.405 C 
ATOM      5  O   UNL     1       6.706   0.146  -4.963  0.00  0.00    -0.226 OA
ATOM      6  N   UNL     1       4.987   0.900  -3.702  0.00  0.00    -0.248 N 
ENDROOT
BRANCH   2   7
ATOM      7  C   UNL     1       5.598  -0.820  -0.587  0.00  0.00    -0.005 A 
ATOM      8  C   UNL     1       6.719  -0.144  -0.142  0.00  0.00    +0.009 A 
ATOM      9  C   UNL     1       7.078  -0.201   1.191  0.00  0.00    +0.024 A 
ATOM     10  C   UNL     1       6.311  -0.937   2.084  0.00  0.00    +0.034 A 
ATOM     11  C   UNL     1       5.185  -1.615   1.634  0.00  0.00    +0.024 A 
ATOM     12  C   UNL     1       4.829  -1.550   0.301  0.00  0.00    +0.009 A 
BRANCH  10  13
ATOM     13  N   UNL     1       6.671  -0.997   3.434  0.00  0.00    -0.282 N 
ATOM     14  C   UNL     1       7.254   0.066   4.024  0.00  0.00    +0.248 C 
ATOM     15  O   UNL     1       7.379   1.108   3.410  0.00  0.00    -0.270 OA
ATOM     16  H   UNL     1       6.502  -1.803   3.946  0.00  0.00    +0.155 HD
BRANCH  14  17
ATOM     17  C   UNL     1       7.741  -0.036   5.414  0.00  0.00    +0.037 A 
ATOM     18  C   UNL     1       7.604  -1.234   6.119  0.00  0.00    +0.016 A 
ATOM     19  C   UNL     1       8.060  -1.323   7.417  0.00  0.00    +0.039 A 
ATOM     20  C   UNL     1       8.655  -0.227   8.022  0.00  0.00    +0.123 A 
ATOM     21  C   UNL     1       8.793   0.965   7.327  0.00  0.00    +0.039 A 
ATOM     22  C   UNL     1       8.345   1.064   6.027  0.00  0.00    +0.016 A 
ATOM     23  F   UNL     1       9.100  -0.320   9.294  0.00  0.00    -0.205 F 
ENDBRANCH  14  17
ENDBRANCH  10  13
ENDBRANCH   2   7
BRANCH   1  25
ATOM     24  N   UNL     1       2.275   0.360  -1.244  0.00  0.00    -0.311 N 
ATOM     25  C   UNL     1       2.982   0.357  -2.392  0.00  0.00    +0.238 C 
ATOM     26  O   UNL     1       2.417   0.184  -3.451  0.00  0.00    -0.274 OA
ATOM     27  H   UNL     1       2.727   0.498  -0.397  0.00  0.00    +0.149 HD
BRANCH  24  28
ATOM     28  C   UNL     1       0.825   0.155  -1.276  0.00  0.00    +0.070 C 
ATOM     29  C   UNL     1       0.521  -1.344  -1.287  0.00  0.00    +0.028 C 
BRANCH  28  31
ATOM     30  C   UNL     1       0.389   2.311  -0.091  0.00  0.00    +0.005 C 
ATOM     31  C   UNL     1       0.192   0.795  -0.038  0.00  0.00    +0.018 C 
ENDBRANCH  28  31
ENDBRANCH  24  28
ENDBRANCH   1  25
BRANCH   6  32
ATOM     32  C   UNL     1       4.419   1.888  -4.624  0.00  0.00    +0.147 C 
BRANCH  32  33
ATOM     33  C   UNL     1       5.054   3.232  -4.373  0.00  0.00    -0.030 A 
ATOM     34  C   UNL     1       4.494   4.100  -3.455  0.00  0.00    +0.005 A 
ATOM     35  C   UNL     1       5.076   5.332  -3.225  0.00  0.00    +0.000 A 
ATOM     36  C   UNL     1       6.218   5.697  -3.913  0.00  0.00    +0.000 A 
ATOM     37  C   UNL     1       6.779   4.828  -4.831  0.00  0.00    +0.000 A 
ATOM     38  C   UNL     1       6.199   3.593  -5.058  0.00  0.00    +0.005 A 
ENDBRANCH  32  33
ENDBRANCH   6  32
TORSDOF 8
