REMARK  Name = ZINC39597159
REMARK  6 active torsions:
REMARK  status: ('A' for Active; 'I' for Inactive)
REMARK    1  A    between atoms: C_1  and  O_2
REMARK    2  A    between atoms: O_2  and  C_3
REMARK    3  A    between atoms: C_8  and  C_9
REMARK    4  A    between atoms: C_9  and  N_10
REMARK    5  A    between atoms: C_11  and  C_13
REMARK    6  A    between atoms: C_24  and  C_26
REMARK                            x       y       z     vdW  Elec       q    Type
REMARK                         _______ _______ _______ _____ _____    ______ ____
ROOT
ATOM      1  C   UNL     1      -3.517  -3.503   0.599  0.00  0.00    +0.100 C 
ATOM      2  C   UNL     1      -4.268  -2.167   0.799  0.00  0.00    +0.121 C 
ATOM      3  N   UNL     1      -5.569  -2.554   1.393  0.00  0.00    -0.296 N 
ATOM      4  C   UNL     1      -5.233  -3.643   2.341  0.00  0.00    +0.115 C 
ATOM      5  C   UNL     1      -4.153  -4.468   1.613  0.00  0.00    -0.004 C 
ATOM      6  C   UNL     1      -4.791  -5.650   0.889  0.00  0.00    -0.010 C 
ATOM      7  C   UNL     1      -5.366  -6.625   1.921  0.00  0.00    -0.082 C 
ATOM      8  N   UNL     1      -4.293  -7.090   2.808  0.00  0.00    +0.379 N 
ATOM      9  C   UNL     1      -3.748  -5.960   3.570  0.00  0.00    -0.082 C 
ATOM     10  C   UNL     1      -3.104  -4.957   2.608  0.00  0.00    -0.010 C 
ATOM     11  C   UNL     1      -6.785  -2.034   1.130  0.00  0.00    +0.247 C 
ATOM     12  O   UNL     1      -7.753  -2.400   1.767  0.00  0.00    -0.270 OA
ATOM     13  H   UNL     1      -4.663  -7.777   3.448  0.00  0.00    -0.086 HD
ATOM     14  H   UNL     1      -3.559  -7.508   2.256  0.00  0.00    -0.086 HD
ENDROOT
BRANCH  11  15
ATOM     15  C   UNL     1      -6.940  -1.019   0.068  0.00  0.00    +0.045 A 
ATOM     16  C   UNL     1      -6.098   0.099   0.036  0.00  0.00    +0.014 A 
ATOM     17  C   UNL     1      -6.240   1.047  -0.954  0.00  0.00    +0.001 A 
ATOM     18  C   UNL     1      -7.217   0.905  -1.928  0.00  0.00    +0.012 A 
ATOM     19  C   UNL     1      -8.063  -0.198  -1.914  0.00  0.00    +0.031 A 
ATOM     20  C   UNL     1      -7.926  -1.175  -0.915  0.00  0.00    +0.006 A 
ATOM     21  C   UNL     1      -8.941  -2.233  -1.141  0.00  0.00    -0.006 A 
ATOM     22  C   UNL     1      -9.232  -3.402  -0.450  0.00  0.00    +0.009 A 
ATOM     23  C   UNL     1     -10.254  -4.230  -0.886  0.00  0.00    +0.001 A 
ATOM     24  C   UNL     1     -10.989  -3.902  -2.008  0.00  0.00    +0.001 A 
ATOM     25  C   UNL     1     -10.712  -2.740  -2.709  0.00  0.00    +0.012 A 
ATOM     26  C   UNL     1      -9.690  -1.901  -2.283  0.00  0.00    +0.030 A 
ATOM     27  C   UNL     1      -9.175  -0.611  -2.803  0.00  0.00    +0.194 C 
ATOM     28  O   UNL     1      -9.579  -0.013  -3.779  0.00  0.00    -0.287 OA
ENDBRANCH  11  15
BRANCH   1  30
ATOM     29  N   UNL     1      -1.152  -4.191   0.373  0.00  0.00    -0.311 N 
ATOM     30  C   UNL     1      -2.049  -3.328   0.890  0.00  0.00    +0.218 C 
ATOM     31  O   UNL     1      -1.675  -2.411   1.590  0.00  0.00    -0.275 OA
ATOM     32  H   UNL     1      -1.451  -4.924  -0.187  0.00  0.00    +0.149 HD
BRANCH  29  33
ATOM     33  C   UNL     1       0.275  -4.021   0.656  0.00  0.00    +0.143 C 
BRANCH  33  39
ATOM     34  C   UNL     1       1.349  -5.001  -1.387  0.00  0.00    +0.125 A 
ATOM     35  C   UNL     1       2.074  -6.001  -2.019  0.00  0.00    +0.046 A 
ATOM     36  C   UNL     1       2.499  -7.102  -1.302  0.00  0.00    +0.004 A 
ATOM     37  C   UNL     1       2.203  -7.209   0.044  0.00  0.00    +0.001 A 
ATOM     38  C   UNL     1       1.480  -6.214   0.676  0.00  0.00    +0.009 A 
ATOM     39  C   UNL     1       1.058  -5.108  -0.035  0.00  0.00    +0.011 A 
BRANCH  34  41
ATOM     40  C   UNL     1       1.265  -3.873  -3.478  0.00  0.00    +0.277 C 
ATOM     41  O   UNL     1       0.929  -3.916  -2.090  0.00  0.00    -0.495 OA
ENDBRANCH  34  41
ENDBRANCH  33  39
ENDBRANCH  29  33
ENDBRANCH   1  30
TORSDOF 5
