REMARK  Name = ZINC17113746
REMARK  13 active torsions:
REMARK  status: ('A' for Active; 'I' for Inactive)
REMARK    1  A    between atoms: C_1  and  C_2
REMARK    2  A    between atoms: C_2  and  C_3
REMARK    3  A    between atoms: C_2  and  N_4
REMARK    4  A    between atoms: C_5  and  C_29
REMARK    5  A    between atoms: N_7  and  C_10
REMARK    6  A    between atoms: C_12  and  N_25
REMARK    7  A    between atoms: C_14  and  O_24
REMARK    8  A    between atoms: C_16  and  O_23
REMARK    9  A    between atoms: C_18  and  C_21
REMARK   10  A    between atoms: C_21  and  O_22
REMARK   11  A    between atoms: C_26  and  C_28
REMARK   12  A    between atoms: C_29  and  O_30
REMARK   13  A    between atoms: O_30  and  C_31
REMARK                            x       y       z     vdW  Elec       q    Type
REMARK                         _______ _______ _______ _____ _____    ______ ____
ROOT
ATOM      1  N   UNL     1      -2.172  -0.796  -1.098  0.00  0.00    -0.302 N 
ATOM      2  C   UNL     1      -1.412  -0.526   0.013  0.00  0.00    +0.170 A 
ATOM      3  N   UNL     1      -2.106  -0.797   1.070  0.00  0.00    -0.150 NA
ATOM      4  N   UNL     1      -3.366  -1.253   0.660  0.00  0.00    -0.209 N 
ATOM      5  C   UNL     1      -3.376  -1.244  -0.690  0.00  0.00    +0.181 A 
ATOM      6  S   UNL     1      -4.677  -1.716  -1.697  0.00  0.00    -0.011 S 
ENDROOT
BRANCH   4   7
ATOM      7  C   UNL     1      -4.467  -1.668   1.533  0.00  0.00    +0.262 C 
ATOM      8  C   UNL     1      -4.157  -3.045   2.126  0.00  0.00    +0.155 C 
ATOM      9  C   UNL     1      -5.283  -3.445   3.084  0.00  0.00    +0.170 C 
ATOM     10  C   UNL     1      -5.428  -2.368   4.163  0.00  0.00    +0.176 C 
ATOM     11  C   UNL     1      -5.688  -1.016   3.492  0.00  0.00    +0.177 C 
ATOM     12  O   UNL     1      -4.619  -0.720   2.591  0.00  0.00    -0.345 OA
BRANCH   8  13
ATOM     13  N   UNL     1      -2.888  -2.990   2.855  0.00  0.00    -0.306 N 
ATOM     14  C   UNL     1      -2.160  -4.112   3.027  0.00  0.00    +0.210 C 
ATOM     15  O   UNL     1      -2.556  -5.166   2.576  0.00  0.00    -0.276 OA
ATOM     16  C   UNL     1      -0.855  -4.055   3.777  0.00  0.00    +0.109 C 
ATOM     17  H   UNL     1      -2.572  -2.147   3.215  0.00  0.00    +0.149 HD
ENDBRANCH   8  13
BRANCH  10  18
ATOM     18  O   UNL     1      -6.523  -2.694   5.020  0.00  0.00    -0.387 OA
ATOM     19  H   UNL     1      -6.673  -2.053   5.729  0.00  0.00    +0.210 HD
ENDBRANCH  10  18
BRANCH   9  20
ATOM     20  O   UNL     1      -6.509  -3.563   2.359  0.00  0.00    -0.387 OA
ATOM     21  H   UNL     1      -7.266  -3.814   2.905  0.00  0.00    +0.210 HD
ENDBRANCH   9  20
BRANCH  11  22
ATOM     22  C   UNL     1      -5.774   0.075   4.560  0.00  0.00    +0.190 C 
BRANCH  22  23
ATOM     23  O   UNL     1      -6.132   1.315   3.946  0.00  0.00    -0.392 OA
ATOM     24  H   UNL     1      -6.205   2.054   4.565  0.00  0.00    +0.210 HD
ENDBRANCH  22  23
ENDBRANCH  11  22
ENDBRANCH   4   7
BRANCH   1  26
ATOM     25  C   UNL     1      -1.810  -1.975  -3.211  0.00  0.00    +0.030 C 
ATOM     26  C   UNL     1      -1.748  -0.626  -2.490  0.00  0.00    +0.085 C 
ATOM     27  C   UNL     1      -2.676   0.369  -3.189  0.00  0.00    +0.030 C 
ENDBRANCH   1  26
BRANCH   2  28
ATOM     28  C   UNL     1       0.002  -0.004   0.002  0.00  0.00    +0.305 C 
BRANCH  28  29
ATOM     29  O   UNL     1      -0.017   1.425   0.010  0.00  0.00    -0.483 OA
BRANCH  29  30
ATOM     30  C   UNL     1       1.185   2.058   0.002  0.00  0.00    +0.139 A 
ATOM     31  C   UNL     1       2.359   1.320  -0.013  0.00  0.00    +0.047 A 
ATOM     32  C   UNL     1       3.580   1.966  -0.021  0.00  0.00    +0.004 A 
ATOM     33  C   UNL     1       3.634   3.348  -0.015  0.00  0.00    +0.002 A 
ATOM     34  C   UNL     1       2.465   4.087   0.000  0.00  0.00    +0.023 A 
ATOM     35  C   UNL     1       1.240   3.445   0.003  0.00  0.00    +0.083 A 
ATOM     36 CL   UNL     1      -0.227   4.373   0.014  0.00  0.00    -0.080 Cl
ENDBRANCH  29  30
ENDBRANCH  28  29
ENDBRANCH   2  28
TORSDOF 10
