REMARK  Name = ZINC02336201
REMARK  10 active torsions:
REMARK  status: ('A' for Active; 'I' for Inactive)
REMARK    1  A    between atoms: C_1  and  C_2
REMARK    2  A    between atoms: C_2  and  C_3
REMARK    3  A    between atoms: C_2  and  C_4
REMARK    4  A    between atoms: C_7  and  C_10
REMARK    5  A    between atoms: N_11  and  N_12
REMARK    6  A    between atoms: C_13  and  N_36
REMARK    7  A    between atoms: C_14  and  C_25
REMARK    8  A    between atoms: N_27  and  C_28
REMARK    9  A    between atoms: C_28  and  C_29
REMARK   10  A    between atoms: C_29  and  C_30
REMARK                            x       y       z     vdW  Elec       q    Type
REMARK                         _______ _______ _______ _____ _____    ______ ____
ROOT
ATOM      1  N   UNL     1      -3.495   4.665   6.106  0.00  0.00    -0.198 N 
ATOM      2  C   UNL     1      -4.834   4.911   6.190  0.00  0.00    +0.134 A 
ATOM      3  C   UNL     1      -5.168   5.344   7.468  0.00  0.00    +0.105 A 
ATOM      4  C   UNL     1      -3.915   5.376   8.241  0.00  0.00    +0.124 A 
ATOM      5  C   UNL     1      -2.874   4.929   7.311  0.00  0.00    +0.183 A 
ATOM      6  N   UNL     1      -1.627   4.854   7.725  0.00  0.00    -0.224 NA
ATOM      7  C   UNL     1      -1.321   5.185   8.986  0.00  0.00    +0.092 A 
ATOM      8  C   UNL     1       0.010   5.108   9.436  0.00  0.00    +0.030 A 
ATOM      9  C   UNL     1       0.312   5.446  10.719  0.00  0.00    +0.002 A 
ATOM     10  C   UNL     1      -0.681   5.870  11.601  0.00  0.00    +0.002 A 
ATOM     11  C   UNL     1      -1.978   5.958  11.202  0.00  0.00    +0.030 A 
ATOM     12  C   UNL     1      -2.329   5.617   9.883  0.00  0.00    +0.090 A 
ATOM     13  N   UNL     1      -3.603   5.699   9.480  0.00  0.00    -0.241 NA
ENDROOT
BRANCH   3  14
ATOM     14  C   UNL     1      -6.501   5.703   7.949  0.00  0.00    +0.250 C 
ATOM     15  O   UNL     1      -6.896   6.850   7.849  0.00  0.00    -0.270 OA
ATOM     16  N   UNL     1      -7.292   4.763   8.503  0.00  0.00    -0.311 N 
ATOM     17  H   UNL     1      -6.978   3.849   8.583  0.00  0.00    +0.149 HD
BRANCH  16  18
ATOM     18  C   UNL     1      -8.628   5.122   8.985  0.00  0.00    +0.109 C 
BRANCH  18  19
ATOM     19  C   UNL     1      -9.312   3.882   9.564  0.00  0.00    +0.049 C 
BRANCH  19  20
ATOM     20  C   UNL     1     -10.687   4.251  10.060  0.00  0.00    -0.072 C 
ATOM     21  C   UNL     1     -11.689   4.067   9.262  0.00  0.00    -0.028 C 
ATOM     22  C   UNL     1     -13.112   4.395   9.610  0.00  0.00    +0.027 C 
ATOM     23  C   UNL     1     -13.259   4.559  11.124  0.00  0.00    +0.004 C 
ATOM     24  C   UNL     1     -12.159   5.507  11.619  0.00  0.00    +0.005 C 
ATOM     25  C   UNL     1     -10.808   4.805  11.449  0.00  0.00    +0.030 C 
ENDBRANCH  19  20
ENDBRANCH  18  19
ENDBRANCH  16  18
ENDBRANCH   3  14
BRANCH   2  26
ATOM     26  N   UNL     1      -5.725   4.750   5.160  0.00  0.00    -0.342 N 
ATOM     27  H   UNL     1      -5.415   4.439   4.295  0.00  0.00    +0.144 HD
ATOM     28  H   UNL     1      -6.665   4.946   5.297  0.00  0.00    +0.144 HD
ENDBRANCH   2  26
BRANCH   1  30
ATOM     29  C   UNL     1      -2.705   2.941   4.740  0.00  0.00    +0.141 C 
ATOM     30  N   UNL     1      -2.839   4.213   4.953  0.00  0.00    -0.171 NA
BRANCH  29  34
ATOM     31  C   UNL     1      -0.718   1.572   1.248  0.00  0.00    -0.045 A 
ATOM     32  C   UNL     1      -0.854   2.930   1.475  0.00  0.00    +0.004 A 
ATOM     33  C   UNL     1      -1.504   3.382   2.605  0.00  0.00    +0.010 A 
ATOM     34  C   UNL     1      -2.014   2.465   3.526  0.00  0.00    -0.005 A 
ATOM     35  C   UNL     1      -1.869   1.095   3.293  0.00  0.00    +0.010 A 
ATOM     36  C   UNL     1      -1.222   0.658   2.156  0.00  0.00    +0.004 A 
BRANCH  31  38
ATOM     37  C   UNL     1       1.423   1.615  -0.003  0.00  0.00    +0.012 C 
ATOM     38  C   UNL     1      -0.013   1.086   0.008  0.00  0.00    +0.013 C 
ATOM     39  C   UNL     1      -0.753   1.593  -1.232  0.00  0.00    +0.012 C 
ENDBRANCH  31  38
ENDBRANCH  29  34
ENDBRANCH   1  30
TORSDOF 8
