REMARK  Name = ZINC15769491
REMARK  11 active torsions:
REMARK  status: ('A' for Active; 'I' for Inactive)
REMARK    1  A    between atoms: C_1  and  C_2
REMARK    2  A    between atoms: C_2  and  C_3
REMARK    3  A    between atoms: C_2  and  C_4
REMARK    4  A    between atoms: C_2  and  N_57
REMARK    5  A    between atoms: C_6  and  C_8
REMARK    6  A    between atoms: C_6  and  N_26
REMARK    7  A    between atoms: C_6  and  N_57
REMARK    8  A    between atoms: C_11  and  C_14
REMARK    9  A    between atoms: C_14  and  N_17
REMARK   10  A    between atoms: C_14  and  N_60
REMARK   11  A    between atoms: C_16  and  N_60
REMARK                            x       y       z     vdW  Elec       q    Type
REMARK                         _______ _______ _______ _____ _____    ______ ____
ROOT
ATOM      1  C   UNL     1      -2.742   3.907  -1.354  0.00  0.00    -0.040 A 
ATOM      2  C   UNL     1      -3.961   4.025  -1.994  0.00  0.00    +0.004 A 
ATOM      3  C   UNL     1      -4.020   4.522  -3.283  0.00  0.00    +0.004 A 
ATOM      4  C   UNL     1      -2.858   4.892  -3.934  0.00  0.00    -0.040 A 
ATOM      5  C   UNL     1      -1.638   4.769  -3.296  0.00  0.00    +0.004 A 
ATOM      6  C   UNL     1      -1.580   4.276  -2.006  0.00  0.00    +0.004 A 
ENDROOT
BRANCH   1   7
ATOM      7  C   UNL     1      -2.678   3.369   0.053  0.00  0.00    +0.086 C 
BRANCH   7   8
ATOM      8  N   UNL     1      -2.906   1.922   0.033  0.00  0.00    -0.254 N 
ATOM      9  C   UNL     1      -1.951   0.938   0.118  0.00  0.00    +0.087 A 
ATOM     10  C   UNL     1      -0.566   0.944   0.245  0.00  0.00    +0.029 A 
ATOM     11  C   UNL     1       0.115  -0.239   0.311  0.00  0.00    +0.002 A 
ATOM     12  C   UNL     1      -0.563  -1.450   0.253  0.00  0.00    +0.002 A 
ATOM     13  C   UNL     1      -1.921  -1.483   0.128  0.00  0.00    +0.032 A 
ATOM     14  C   UNL     1      -2.643  -0.284   0.058  0.00  0.00    +0.113 A 
ATOM     15  N   UNL     1      -3.956  -0.004  -0.063  0.00  0.00    -0.130 NA
ATOM     16  N   UNL     1      -4.142   1.268  -0.084  0.00  0.00    -0.066 NA
ENDBRANCH   7   8
BRANCH   7  17
ATOM     17  N   UNL     1      -3.722   4.020   0.868  0.00  0.00    +0.407 N 
ATOM     18  H   UNL     1      -3.935   4.942   0.471  0.00  0.00    -0.081 HD
ATOM     19  H   UNL     1      -4.569   3.439   0.860  0.00  0.00    -0.081 HD
BRANCH  17  21
ATOM     20  C   UNL     1      -2.829   2.827   2.821  0.00  0.00    +0.001 C 
ATOM     21  C   UNL     1      -3.257   4.184   2.258  0.00  0.00    +0.033 C 
ATOM     22  C   UNL     1      -2.070   5.148   2.293  0.00  0.00    +0.001 C 
BRANCH  21  23
ATOM     23  C   UNL     1      -4.382   4.742   3.092  0.00  0.00    +0.345 C 
ATOM     24  O   UNL     1      -4.507   4.399   4.244  0.00  0.00    -0.248 OA
ATOM     25  O   UNL     1      -5.244   5.619   2.555  0.00  0.00    -0.248 OA
ENDBRANCH  21  23
ENDBRANCH  17  21
ENDBRANCH   7  17
ENDBRANCH   1   7
BRANCH   4  26
ATOM     26  C   UNL     1      -2.921   5.430  -5.341  0.00  0.00    +0.084 C 
BRANCH  26  27
ATOM     27  N   UNL     1      -3.434   6.802  -5.316  0.00  0.00    -0.254 N 
ATOM     28  C   UNL     1      -2.701   7.957  -5.450  0.00  0.00    +0.087 A 
ATOM     29  C   UNL     1      -1.349   8.227  -5.638  0.00  0.00    +0.029 A 
ATOM     30  C   UNL     1      -0.923   9.522  -5.735  0.00  0.00    +0.002 A 
ATOM     31  C   UNL     1      -1.827  10.572  -5.648  0.00  0.00    +0.002 A 
ATOM     32  C   UNL     1      -3.158  10.334  -5.465  0.00  0.00    +0.032 A 
ATOM     33  C   UNL     1      -3.621   9.015  -5.362  0.00  0.00    +0.113 A 
ATOM     34  N   UNL     1      -4.845   8.479  -5.183  0.00  0.00    -0.130 NA
ATOM     35  N   UNL     1      -4.771   7.195  -5.159  0.00  0.00    -0.066 NA
ENDBRANCH  26  27
BRANCH  26  37
ATOM     36  C   UNL     1      -3.528   4.737  -7.580  0.00  0.00    -0.097 C 
ATOM     37  N   UNL     1      -3.822   4.581  -6.143  0.00  0.00    +0.395 N 
ATOM     38  H   UNL     1      -4.795   4.856  -5.965  0.00  0.00    -0.083 HD
ATOM     39  H   UNL     1      -3.690   3.598  -5.875  0.00  0.00    -0.083 HD
ENDBRANCH  26  37
ENDBRANCH   4  26
TORSDOF 8
