REMARK  Name = ZINC33928378
REMARK  6 active torsions:
REMARK  status: ('A' for Active; 'I' for Inactive)
REMARK    1  A    between atoms: C_1  and  C_2
REMARK    2  A    between atoms: N_8  and  C_9
REMARK    3  A    between atoms: C_9  and  C_10
REMARK    4  A    between atoms: C_11  and  C_21
REMARK    5  A    between atoms: N_23  and  N_24
REMARK    6  A    between atoms: C_25  and  C_26
REMARK                            x       y       z     vdW  Elec       q    Type
REMARK                         _______ _______ _______ _____ _____    ______ ____
ROOT
ATOM      1  C   UNL     1       2.608  -0.401   2.541  0.00  0.00    +0.063 A 
ATOM      2  C   UNL     1       2.604   0.290   3.719  0.00  0.00    +0.170 A 
ATOM      3  N   UNL     1       3.308  -0.409   4.626  0.00  0.00    -0.124 NA
ATOM      4  N   UNL     1       3.751  -1.492   4.087  0.00  0.00    -0.058 NA
ATOM      5  N   UNL     1       3.321  -1.529   2.753  0.00  0.00    -0.194 N 
ATOM      6  C   UNL     1       3.582  -2.539   1.820  0.00  0.00    +0.240 A 
ATOM      7  C   UNL     1       4.353  -3.760   2.071  0.00  0.00    +0.206 A 
ATOM      8  N   UNL     1       4.383  -4.460   0.971  0.00  0.00    -0.032 NA
ATOM      9  O   UNL     1       3.656  -3.749  -0.015  0.00  0.00    -0.239 OA
ATOM     10  N   UNL     1       3.176  -2.558   0.582  0.00  0.00    -0.027 NA
ATOM     11  N   UNL     1       4.951  -4.112   3.276  0.00  0.00    -0.337 N 
ATOM     12  H   UNL     1       4.875  -3.525   4.045  0.00  0.00    +0.144 HD
ATOM     13  H   UNL     1       5.444  -4.945   3.348  0.00  0.00    +0.144 HD
ENDROOT
BRANCH   2  14
ATOM     14  C   UNL     1       1.939   1.586   3.957  0.00  0.00    +0.285 C 
ATOM     15  O   UNL     1       1.327   2.129   3.057  0.00  0.00    -0.267 OA
ATOM     16  N   UNL     1       2.010   2.167   5.170  0.00  0.00    -0.202 N 
ATOM     17  H   UNL     1       2.498   1.734   5.888  0.00  0.00    +0.178 HD
BRANCH  16  18
ATOM     18  N   UNL     1       1.379   3.397   5.396  0.00  0.00    -0.192 NA
ATOM     19  C   UNL     1       1.371   3.907   6.570  0.00  0.00    +0.106 C 
BRANCH  19  20
ATOM     20  C   UNL     1       2.158   3.257   7.679  0.00  0.00    +0.032 C 
ATOM     21  C   UNL     1       1.195   2.711   8.735  0.00  0.00    +0.009 C 
ATOM     22  C   UNL     1       1.994   2.051   9.861  0.00  0.00    +0.001 C 
ATOM     23  C   UNL     1       2.921   3.085  10.502  0.00  0.00    +0.000 C 
ATOM     24  C   UNL     1       3.884   3.631   9.446  0.00  0.00    +0.001 C 
ATOM     25  C   UNL     1       3.086   4.291   8.320  0.00  0.00    +0.009 C 
ENDBRANCH  19  20
ENDBRANCH  16  18
ENDBRANCH   2  14
BRANCH   1  26
ATOM     26  C   UNL     1       1.941   0.012   1.254  0.00  0.00    -0.019 C 
BRANCH  26  33
ATOM     27  C   UNL     1      -0.083   1.521   0.025  0.00  0.00    -0.013 C 
ATOM     28  C   UNL     1      -0.119  -0.009   0.029  0.00  0.00    -0.071 C 
ATOM     29  C   UNL     1      -1.573  -0.484   0.035  0.00  0.00    -0.016 C 
ATOM     30  C   UNL     1      -1.604  -2.015   0.039  0.00  0.00    -0.003 C 
ATOM     31  C   UNL     1      -0.820  -2.529   1.250  0.00  0.00    -0.019 C 
ATOM     32  C   UNL     1       0.606  -1.978   1.199  0.00  0.00    -0.078 C 
ATOM     33  N   UNL     1       0.568  -0.510   1.225  0.00  0.00    +0.385 N 
ATOM     34  H   UNL     1       0.075  -0.202   2.049  0.00  0.00    -0.081 HD
ENDBRANCH  26  33
ENDBRANCH   1  26
TORSDOF 5
