REMARK  Name = ZINC09836256
REMARK  10 active torsions:
REMARK  status: ('A' for Active; 'I' for Inactive)
REMARK    1  A    between atoms: C_1  and  C_2
REMARK    2  A    between atoms: C_3  and  N_15
REMARK    3  A    between atoms: N_6  and  C_9
REMARK    4  A    between atoms: N_7  and  C_8
REMARK    5  A    between atoms: C_16  and  C_18
REMARK    6  A    between atoms: C_18  and  C_20
REMARK    7  A    between atoms: C_18  and  O_21
REMARK    8  A    between atoms: O_21  and  C_22
REMARK    9  A    between atoms: C_22  and  C_24
REMARK   10  A    between atoms: C_29  and  N_30
REMARK                            x       y       z     vdW  Elec       q    Type
REMARK                         _______ _______ _______ _____ _____    ______ ____
ROOT
ATOM      1  N   UNL     1       6.557  -4.656  -0.438  0.00  0.00    -0.277 N 
ATOM      2  C   UNL     1       5.463  -3.873  -0.357  0.00  0.00    +0.258 C 
ATOM      3  O   UNL     1       4.393  -4.281  -0.758  0.00  0.00    -0.271 OA
ATOM      4  H   UNL     1       7.395  -4.360  -0.051  0.00  0.00    +0.155 HD
ENDROOT
BRANCH   1   7
ATOM      5  C   UNL     1       8.284  -5.491  -2.832  0.00  0.00    +0.067 C 
ATOM      6  C   UNL     1       7.224  -6.309  -2.140  0.00  0.00    +0.059 A 
ATOM      7  C   UNL     1       6.482  -5.906  -1.084  0.00  0.00    +0.121 A 
ATOM      8  C   UNL     1       5.590  -7.012  -0.735  0.00  0.00    +0.293 A 
ATOM      9  O   UNL     1       4.773  -7.027   0.169  0.00  0.00    -0.264 OA
ATOM     10  N   UNL     1       5.842  -8.011  -1.606  0.00  0.00    -0.216 N 
ATOM     11  N   UNL     1       6.854  -7.584  -2.474  0.00  0.00    -0.282 N 
ATOM     12  C   UNL     1       7.424  -8.375  -3.567  0.00  0.00    +0.171 C 
BRANCH  10  13
ATOM     13  C   UNL     1       5.209  -9.257  -1.633  0.00  0.00    +0.067 A 
ATOM     14  C   UNL     1       4.699  -9.753  -2.826  0.00  0.00    +0.028 A 
ATOM     15  C   UNL     1       4.079 -10.987  -2.850  0.00  0.00    +0.002 A 
ATOM     16  C   UNL     1       3.954 -11.723  -1.685  0.00  0.00    +0.000 A 
ATOM     17  C   UNL     1       4.455 -11.229  -0.495  0.00  0.00    +0.002 A 
ATOM     18  C   UNL     1       5.082  -9.998  -0.465  0.00  0.00    +0.028 A 
ENDBRANCH  10  13
ENDBRANCH   1   7
BRANCH   2  19
ATOM     19  C   UNL     1       5.569  -2.490   0.233  0.00  0.00    +0.259 C 
ATOM     20  C   UNL     1       6.061  -2.587   1.678  0.00  0.00    +0.062 C 
BRANCH  19  21
ATOM     21  O   UNL     1       4.265  -1.852   0.208  0.00  0.00    -0.449 OA
BRANCH  21  22
ATOM     22  C   UNL     1       4.242  -0.509   0.090  0.00  0.00    +0.342 C 
ATOM     23  O   UNL     1       5.284   0.111   0.011  0.00  0.00    -0.245 OA
BRANCH  22  24
ATOM     24  C   UNL     1       2.955   0.205   0.058  0.00  0.00    +0.081 A 
ATOM     25  C   UNL     1       1.753  -0.509   0.030  0.00  0.00    +0.017 A 
ATOM     26  C   UNL     1       0.553   0.165  -0.001  0.00  0.00    +0.002 A 
ATOM     27  C   UNL     1       0.527   1.551  -0.003  0.00  0.00    +0.022 A 
ATOM     28  C   UNL     1       1.704   2.272   0.025  0.00  0.00    +0.062 A 
ATOM     29  C   UNL     1       2.926   1.609   0.056  0.00  0.00    +0.057 A 
ATOM     30 CL   UNL     1       1.658   4.007   0.021  0.00  0.00    -0.082 Cl
BRANCH  29  31
ATOM     31  N   UNL     1       4.112   2.331   0.084  0.00  0.00    -0.356 N 
ATOM     32  H   UNL     1       4.963   1.871   0.013  0.00  0.00    +0.142 HD
ATOM     33  H   UNL     1       4.090   3.297   0.176  0.00  0.00    +0.142 HD
ENDBRANCH  29  31
ENDBRANCH  22  24
ENDBRANCH  21  22
ENDBRANCH  19  21
ENDBRANCH   2  19
TORSDOF 7
