REMARK  Name = ZINC15730296
REMARK  5 active torsions:
REMARK  status: ('A' for Active; 'I' for Inactive)
REMARK    1  A    between atoms: C_1  and  C_2
REMARK    2  A    between atoms: C_10  and  S_15
REMARK    3  A    between atoms: S_15  and  N_18
REMARK    4  A    between atoms: C_24  and  O_28
REMARK    5  A    between atoms: O_28  and  C_29
REMARK                            x       y       z     vdW  Elec       q    Type
REMARK                         _______ _______ _______ _____ _____    ______ ____
ROOT
ATOM      1  S   UNL     1      -1.859   4.889   7.256  0.00  0.00    +0.074 S 
ATOM      2  O   UNL     1      -1.728   6.206   6.738  0.00  0.00    -0.150 OA
ATOM      3  O   UNL     1      -3.099   4.374   7.721  0.00  0.00    -0.150 OA
ENDROOT
BRANCH   1  12
ATOM      4  C   UNL     1      -0.013   1.086   0.008  0.00  0.00    +0.020 C 
ATOM      5  C   UNL     1      -0.729   1.579   1.267  0.00  0.00    +0.057 C 
ATOM      6  C   UNL     1      -0.710   3.117   1.311  0.00  0.00    +0.110 C 
ATOM      7  C   UNL     1       0.636   3.613   1.752  0.00  0.00    +0.218 C 
ATOM      8  O   UNL     1       1.494   3.822   0.921  0.00  0.00    -0.275 OA
ATOM      9  N   UNL     1       0.907   3.827   3.046  0.00  0.00    -0.284 N 
ATOM     10  C   UNL     1       0.018   3.385   4.038  0.00  0.00    +0.049 A 
ATOM     11  C   UNL     1      -0.420   4.248   5.029  0.00  0.00    +0.053 A 
ATOM     12  C   UNL     1      -1.300   3.793   5.995  0.00  0.00    +0.110 A 
ATOM     13  C   UNL     1      -1.742   2.483   5.976  0.00  0.00    +0.030 A 
ATOM     14  C   UNL     1      -1.308   1.615   4.990  0.00  0.00    +0.018 A 
ATOM     15  C   UNL     1      -0.427   2.065   4.020  0.00  0.00    +0.029 A 
ATOM     16  S   UNL     1       0.145   0.981   2.752  0.00  0.00    -0.120 S 
ATOM     17  H   UNL     1       1.721   4.290   3.298  0.00  0.00    +0.155 HD
ENDBRANCH   1  12
BRANCH   1  18
ATOM     18  N   UNL     1      -0.793   4.768   8.518  0.00  0.00    -0.194 N 
ATOM     19  C   UNL     1       0.516   5.174   8.356  0.00  0.00    +0.179 A 
ATOM     20  N   UNL     1       1.099   5.671   7.290  0.00  0.00    -0.224 NA
ATOM     21  C   UNL     1       2.402   6.032   7.276  0.00  0.00    +0.081 A 
ATOM     22  C   UNL     1       3.144   6.580   6.204  0.00  0.00    +0.032 A 
ATOM     23  C   UNL     1       4.470   6.889   6.354  0.00  0.00    +0.048 A 
ATOM     24  C   UNL     1       5.133   6.678   7.559  0.00  0.00    +0.121 A 
ATOM     25  C   UNL     1       4.434   6.142   8.631  0.00  0.00    +0.063 A 
ATOM     26  C   UNL     1       3.106   5.831   8.485  0.00  0.00    +0.044 A 
ATOM     27  S   UNL     1       1.852   5.150   9.544  0.00  0.00    -0.051 S 
ATOM     28  H   UNL     1      -1.089   4.411   9.370  0.00  0.00    +0.176 HD
BRANCH  24  29
ATOM     29  O   UNL     1       6.450   6.993   7.684  0.00  0.00    -0.495 OA
ATOM     30  C   UNL     1       7.099   7.540   6.535  0.00  0.00    +0.277 C 
ENDBRANCH  24  29
ENDBRANCH   1  18
TORSDOF 3
