REMARK  Name = ZINC41353906
REMARK  13 active torsions:
REMARK  status: ('A' for Active; 'I' for Inactive)
REMARK    1  A    between atoms: C_1  and  C_2
REMARK    2  A    between atoms: C_3  and  O_25
REMARK    3  A    between atoms: C_10  and  C_11
REMARK    4  A    between atoms: C_13  and  O_21
REMARK    5  A    between atoms: C_14  and  O_19
REMARK    6  A    between atoms: C_15  and  O_17
REMARK    7  A    between atoms: O_17  and  C_18
REMARK    8  A    between atoms: O_19  and  C_20
REMARK    9  A    between atoms: O_21  and  C_22
REMARK   10  A    between atoms: O_25  and  C_26
REMARK   11  A    between atoms: C_26  and  C_28
REMARK   12  A    between atoms: C_34  and  O_37
REMARK   13  A    between atoms: O_37  and  C_38
REMARK                            x       y       z     vdW  Elec       q    Type
REMARK                         _______ _______ _______ _____ _____    ______ ____
ROOT
ATOM      1  C   UNL     1       0.213   1.676   0.292  0.00  0.00    +0.051 C 
ATOM      2  C   UNL     1       0.182   0.173   0.188  0.00  0.00    +0.035 A 
ATOM      3  C   UNL     1       0.196  -0.436  -1.056  0.00  0.00    +0.138 A 
ATOM      4  C   UNL     1       0.168  -1.823  -1.166  0.00  0.00    +0.047 A 
ATOM      5  C   UNL     1       0.127  -2.600  -0.043  0.00  0.00    +0.019 A 
ATOM      6  C   UNL     1       0.112  -2.001   1.217  0.00  0.00    +0.068 A 
ATOM      7  C   UNL     1       0.146  -0.602   1.341  0.00  0.00    +0.146 A 
ATOM      8  O   UNL     1       0.132  -0.261   2.647  0.00  0.00    -0.451 OA
ATOM      9  C   UNL     1       0.096  -1.349   3.452  0.00  0.00    +0.176 C 
ATOM     10  C   UNL     1       0.073  -1.342   4.810  0.00  0.00    +0.058 C 
ATOM     11  C   UNL     1       0.070  -2.538   2.589  0.00  0.00    +0.231 C 
ATOM     12  O   UNL     1       0.037  -3.708   2.931  0.00  0.00    -0.283 OA
ENDROOT
BRANCH  10  13
ATOM     13  C   UNL     1      -0.050  -0.072   5.535  0.00  0.00    -0.014 A 
ATOM     14  C   UNL     1       0.077  -0.045   6.930  0.00  0.00    +0.057 A 
ATOM     15  C   UNL     1      -0.040   1.152   7.609  0.00  0.00    +0.166 A 
ATOM     16  C   UNL     1      -0.283   2.332   6.909  0.00  0.00    +0.204 A 
ATOM     17  C   UNL     1      -0.410   2.309   5.522  0.00  0.00    +0.166 A 
ATOM     18  C   UNL     1      -0.289   1.117   4.834  0.00  0.00    +0.057 A 
BRANCH  17  19
ATOM     19  O   UNL     1      -0.649   3.463   4.843  0.00  0.00    -0.491 OA
ATOM     20  C   UNL     1      -0.768   3.367   3.422  0.00  0.00    +0.277 C 
ENDBRANCH  17  19
BRANCH  16  21
ATOM     21  O   UNL     1      -0.398   3.507   7.581  0.00  0.00    -0.488 OA
ATOM     22  C   UNL     1       0.800   4.258   7.784  0.00  0.00    +0.277 C 
ENDBRANCH  16  21
BRANCH  15  23
ATOM     23  O   UNL     1       0.084   1.180   8.963  0.00  0.00    -0.491 OA
ATOM     24  C   UNL     1       0.333  -0.066   9.617  0.00  0.00    +0.277 C 
ENDBRANCH  15  23
ENDBRANCH  10  13
BRANCH   3  25
ATOM     25  O   UNL     1       0.236   0.328  -2.178  0.00  0.00    -0.420 OA
BRANCH  25  26
ATOM     26  C   UNL     1       1.431   0.821  -2.566  0.00  0.00    +0.380 C 
ATOM     27  O   UNL     1       2.413   0.653  -1.869  0.00  0.00    -0.241 OA
BRANCH  26  28
ATOM     28  C   UNL     1       1.544   1.560  -3.830  0.00  0.00    +0.213 A 
ATOM     29  C   UNL     1       2.692   2.095  -4.322  0.00  0.00    +0.065 A 
ATOM     30  C   UNL     1       2.332   2.729  -5.590  0.00  0.00    +0.025 A 
ATOM     31  C   UNL     1       3.046   3.438  -6.562  0.00  0.00    +0.012 A 
ATOM     32  C   UNL     1       2.398   3.916  -7.665  0.00  0.00    +0.004 A 
ATOM     33  C   UNL     1       1.036   3.704  -7.830  0.00  0.00    +0.049 A 
ATOM     34  C   UNL     1       0.311   3.006  -6.883  0.00  0.00    +0.163 A 
ATOM     35  C   UNL     1       0.953   2.509  -5.748  0.00  0.00    +0.177 A 
ATOM     36  O   UNL     1       0.526   1.805  -4.681  0.00  0.00    -0.445 OA
BRANCH  34  37
ATOM     37  O   UNL     1      -1.022   2.804  -7.056  0.00  0.00    -0.491 OA
ATOM     38  C   UNL     1      -1.611   3.342  -8.242  0.00  0.00    +0.277 C 
ENDBRANCH  34  37
ENDBRANCH  26  28
ENDBRANCH  25  26
ENDBRANCH   3  25
TORSDOF 8
