REMARK  Name = ZINC40149334
REMARK  9 active torsions:
REMARK  status: ('A' for Active; 'I' for Inactive)
REMARK    1  A    between atoms: C_4  and  C_7
REMARK    2  A    between atoms: C_7  and  C_9
REMARK    3  A    between atoms: C_12  and  N_18
REMARK    4  A    between atoms: C_13  and  N_15
REMARK    5  A    between atoms: N_18  and  C_19
REMARK    6  A    between atoms: C_19  and  C_20
REMARK    7  A    between atoms: C_31  and  C_33
REMARK    8  A    between atoms: C_33  and  C_34
REMARK    9  A    between atoms: C_34  and  O_35
REMARK                            x       y       z     vdW  Elec       q    Type
REMARK                         _______ _______ _______ _____ _____    ______ ____
ROOT
ATOM      1  N   UNL     1       3.880  -6.424   0.119  0.00  0.00    -0.338 N 
ATOM      2  H   UNL     1       4.724  -6.870   0.291  0.00  0.00    +0.146 HD
ENDROOT
BRANCH   1   6
ATOM      3  C   UNL     1       3.847  -2.536  -1.337  0.00  0.00    +0.025 A 
ATOM      4  C   UNL     1       2.643  -3.180  -1.031  0.00  0.00    +0.013 A 
ATOM      5  C   UNL     1       2.658  -4.460  -0.552  0.00  0.00    +0.026 A 
ATOM      6  C   UNL     1       3.869  -5.123  -0.369  0.00  0.00    +0.058 A 
ATOM      7  C   UNL     1       5.069  -4.484  -0.673  0.00  0.00    +0.148 A 
ATOM      8  C   UNL     1       5.061  -3.207  -1.157  0.00  0.00    +0.046 A 
BRANCH   7   9
ATOM      9  N   UNL     1       6.353  -5.193  -0.475  0.00  0.00    +0.058 N 
ATOM     10  O   UNL     1       7.319  -4.591  -0.069  0.00  0.00    -0.126 OA
ATOM     11  O   UNL     1       6.436  -6.374  -0.721  0.00  0.00    -0.126 OA
ENDBRANCH   7   9
BRANCH   3  12
ATOM     12  C   UNL     1       3.835  -1.156  -1.854  0.00  0.00    +0.193 C 
ATOM     13  O   UNL     1       4.771  -0.746  -2.514  0.00  0.00    -0.287 OA
BRANCH  12  17
ATOM     14  C   UNL     1       0.532   1.388  -1.042  0.00  0.00    +0.000 A 
ATOM     15  C   UNL     1       1.393   1.688  -2.084  0.00  0.00    +0.001 A 
ATOM     16  C   UNL     1       2.467   0.866  -2.353  0.00  0.00    +0.012 A 
ATOM     17  C   UNL     1       2.686  -0.271  -1.571  0.00  0.00    +0.022 A 
ATOM     18  C   UNL     1       1.814  -0.567  -0.522  0.00  0.00    +0.012 A 
ATOM     19  C   UNL     1       0.743   0.264  -0.264  0.00  0.00    +0.001 A 
ENDBRANCH  12  17
ENDBRANCH   3  12
ENDBRANCH   1   6
BRANCH   1  20
ATOM     20  C   UNL     1       2.617  -7.122   0.373  0.00  0.00    +0.138 C 
BRANCH  20  21
ATOM     21  C   UNL     1       2.904  -8.507   0.893  0.00  0.00    -0.014 A 
ATOM     22  C   UNL     1       3.050  -9.571   0.012  0.00  0.00    +0.010 A 
ATOM     23  C   UNL     1       3.313 -10.825   0.531  0.00  0.00    +0.042 A 
ATOM     24  C   UNL     1       3.421 -10.979   1.909  0.00  0.00    +0.099 A 
ATOM     25  N   UNL     1       3.276  -9.939   2.716  0.00  0.00    -0.349 N 
ATOM     26  C   UNL     1       3.030  -8.729   2.249  0.00  0.00    +0.089 A 
ATOM     27  N   UNL     1       3.685 -12.234   2.444  0.00  0.00    -0.314 N 
ATOM     28  C   UNL     1       5.063 -12.647   2.742  0.00  0.00    +0.107 C 
ATOM     29  C   UNL     1       5.136 -13.108   4.201  0.00  0.00    +0.019 C 
ATOM     30  C   UNL     1       4.088 -14.197   4.440  0.00  0.00    +0.003 C 
ATOM     31  C   UNL     1       2.691 -13.629   4.183  0.00  0.00    +0.022 C 
ATOM     32  C   UNL     1       2.590 -13.171   2.729  0.00  0.00    +0.077 C 
ATOM     33  H   UNL     1       3.356 -10.069   3.674  0.00  0.00    +0.167 HD
BRANCH  32  34
ATOM     34  C   UNL     1       1.246 -12.474   2.505  0.00  0.00    +0.050 C 
BRANCH  34  35
ATOM     35  C   UNL     1       0.113 -13.491   2.655  0.00  0.00    +0.157 C 
BRANCH  35  36
ATOM     36  O   UNL     1      -1.132 -12.865   2.337  0.00  0.00    -0.395 OA
ATOM     37  H   UNL     1      -1.897 -13.453   2.411  0.00  0.00    +0.209 HD
ENDBRANCH  35  36
ENDBRANCH  34  35
ENDBRANCH  32  34
ENDBRANCH  20  21
ENDBRANCH   1  20
TORSDOF 9
