REMARK  Name = ZINC40064148
REMARK  14 active torsions:
REMARK  status: ('A' for Active; 'I' for Inactive)
REMARK    1  A    between atoms: C_1  and  C_2
REMARK    2  A    between atoms: C_2  and  O_3
REMARK    3  A    between atoms: O_3  and  C_4
REMARK    4  A    between atoms: C_6  and  C_11
REMARK    5  A    between atoms: C_9  and  O_10
REMARK    6  A    between atoms: C_19  and  C_40
REMARK    7  A    between atoms: C_20  and  C_39
REMARK    8  A    between atoms: N_26  and  C_27
REMARK    9  A    between atoms: C_27  and  C_28
REMARK   10  A    between atoms: C_28  and  C_29
REMARK   11  A    between atoms: C_32  and  O_37
REMARK   12  A    between atoms: C_33  and  O_35
REMARK   13  A    between atoms: O_35  and  C_36
REMARK   14  A    between atoms: O_37  and  C_38
REMARK                            x       y       z     vdW  Elec       q    Type
REMARK                         _______ _______ _______ _____ _____    ______ ____
ROOT
ATOM      1  C   UNL     1      -0.229  -4.969   0.477  0.00  0.00    +0.145 C 
ATOM      2  C   UNL     1       0.856  -5.514   1.348  0.00  0.00    +0.072 A 
ATOM      3  C   UNL     1       1.814  -4.843   2.232  0.00  0.00    +0.199 A 
ATOM      4  O   UNL     1       1.740  -3.662   2.522  0.00  0.00    -0.287 OA
ATOM      5  C   UNL     1       2.881  -5.740   2.742  0.00  0.00    +0.065 A 
ATOM      6  C   UNL     1       3.975  -5.216   3.430  0.00  0.00    +0.015 A 
ATOM      7  C   UNL     1       4.952  -6.055   3.889  0.00  0.00    +0.004 A 
ATOM      8  C   UNL     1       4.858  -7.423   3.671  0.00  0.00    -0.044 A 
ATOM      9  C   UNL     1       3.784  -7.957   2.995  0.00  0.00    -0.005 A 
ATOM     10  C   UNL     1       2.772  -7.122   2.520  0.00  0.00    +0.143 A 
ATOM     11  O   UNL     1       1.722  -7.670   1.868  0.00  0.00    -0.449 OA
ATOM     12  C   UNL     1       0.860  -6.872   1.206  0.00  0.00    +0.199 A 
ATOM     13  C   UNL     1      -0.200  -7.241   0.251  0.00  0.00    +0.283 C 
ATOM     14  O   UNL     1      -0.459  -8.376  -0.097  0.00  0.00    -0.267 OA
ATOM     15  N   UNL     1      -0.844  -6.134  -0.179  0.00  0.00    -0.283 N 
ATOM     16  C   UNL     1       3.702  -9.444   2.769  0.00  0.00    +0.048 C 
ATOM     17  C   UNL     1       5.944  -8.334   4.181  0.00  0.00    +0.044 C 
ENDROOT
BRANCH   1  20
ATOM     18  C   UNL     1       0.777  -1.811  -1.336  0.00  0.00    +0.162 A 
ATOM     19  C   UNL     1       0.243  -2.669  -0.388  0.00  0.00    +0.055 A 
ATOM     20  C   UNL     1       0.352  -4.037  -0.555  0.00  0.00    -0.019 A 
ATOM     21  C   UNL     1       0.992  -4.552  -1.667  0.00  0.00    +0.009 A 
ATOM     22  C   UNL     1       1.526  -3.702  -2.616  0.00  0.00    +0.049 A 
ATOM     23  C   UNL     1       1.416  -2.330  -2.458  0.00  0.00    +0.158 A 
BRANCH  23  24
ATOM     24  O   UNL     1       1.936  -1.492  -3.394  0.00  0.00    -0.503 OA
ATOM     25  H   UNL     1       2.856  -1.241  -3.231  0.00  0.00    +0.292 HD
ENDBRANCH  23  24
BRANCH  18  26
ATOM     26  O   UNL     1       0.671  -0.465  -1.174  0.00  0.00    -0.489 OA
BRANCH  26  28
ATOM     27  C   UNL     1      -0.019   1.526   0.010  0.00  0.00    +0.048 C 
ATOM     28  C   UNL     1       0.002  -0.004   0.002  0.00  0.00    +0.226 C 
ENDBRANCH  26  28
ENDBRANCH  18  26
ENDBRANCH   1  20
BRANCH  15  29
ATOM     29  C   UNL     1      -1.956  -6.099  -1.131  0.00  0.00    +0.114 C 
BRANCH  29  30
ATOM     30  C   UNL     1      -1.407  -5.966  -2.553  0.00  0.00    +0.054 C 
BRANCH  30  31
ATOM     31  C   UNL     1      -2.552  -5.930  -3.532  0.00  0.00    -0.042 A 
ATOM     32  C   UNL     1      -3.037  -7.107  -4.071  0.00  0.00    +0.007 A 
ATOM     33  C   UNL     1      -4.087  -7.079  -4.969  0.00  0.00    +0.049 A 
ATOM     34  C   UNL     1      -4.656  -5.869  -5.332  0.00  0.00    +0.161 A 
ATOM     35  C   UNL     1      -4.168  -4.684  -4.790  0.00  0.00    +0.162 A 
ATOM     36  C   UNL     1      -3.119  -4.719  -3.886  0.00  0.00    +0.053 A 
BRANCH  35  37
ATOM     37  O   UNL     1      -4.723  -3.493  -5.143  0.00  0.00    -0.491 OA
ATOM     38  C   UNL     1      -4.171  -2.318  -4.546  0.00  0.00    +0.277 C 
ENDBRANCH  35  37
BRANCH  34  39
ATOM     39  O   UNL     1      -5.688  -5.839  -6.217  0.00  0.00    -0.491 OA
ATOM     40  C   UNL     1      -6.137  -7.094  -6.733  0.00  0.00    +0.277 C 
ENDBRANCH  34  39
ENDBRANCH  30  31
ENDBRANCH  29  30
ENDBRANCH  15  29
TORSDOF 9
