REMARK  Name = ZINC58950255
REMARK  14 active torsions:
REMARK  status: ('A' for Active; 'I' for Inactive)
REMARK    1  A    between atoms: C_1  and  C_2
REMARK    2  A    between atoms: C_2  and  O_3
REMARK    3  A    between atoms: O_3  and  C_4
REMARK    4  A    between atoms: C_7  and  C_13
REMARK    5  A    between atoms: C_9  and  O_10
REMARK    6  A    between atoms: O_10  and  C_11
REMARK    7  A    between atoms: C_11  and  C_12
REMARK    8  A    between atoms: N_15  and  C_16
REMARK    9  A    between atoms: C_16  and  C_17
REMARK   10  A    between atoms: N_19  and  C_20
REMARK   11  A    between atoms: C_20  and  C_21
REMARK   12  A    between atoms: C_24  and  C_27
REMARK   13  A    between atoms: C_27  and  N_28
REMARK   14  A    between atoms: C_33  and  C_35
REMARK                            x       y       z     vdW  Elec       q    Type
REMARK                         _______ _______ _______ _____ _____    ______ ____
ROOT
ATOM      1  C   UNL     1       0.041  -8.993   0.079  0.00  0.00    +0.230 C 
ATOM      2  O   UNL     1      -0.471  -8.341   0.965  0.00  0.00    -0.274 OA
ATOM      3  N   UNL     1       0.022 -10.339   0.136  0.00  0.00    -0.310 N 
ATOM      4  H   UNL     1       0.432 -10.861  -0.573  0.00  0.00    +0.149 HD
ENDROOT
BRANCH   1   5
ATOM      5  C   UNL     1       0.698  -8.297  -1.085  0.00  0.00    +0.200 C 
BRANCH   5   8
ATOM      6  C   UNL     1       1.105  -6.016  -1.839  0.00  0.00    +0.245 C 
ATOM      7  O   UNL     1       1.667  -6.471  -2.817  0.00  0.00    -0.270 OA
ATOM      8  N   UNL     1       0.585  -6.847  -0.914  0.00  0.00    -0.303 N 
ATOM      9  H   UNL     1       0.137  -6.484  -0.134  0.00  0.00    +0.150 HD
BRANCH   6  13
ATOM     10  C   UNL     1       0.777  -1.809  -1.336  0.00  0.00    +0.162 A 
ATOM     11  C   UNL     1       0.241  -2.666  -0.384  0.00  0.00    +0.050 A 
ATOM     12  C   UNL     1       0.346  -4.030  -0.544  0.00  0.00    +0.017 A 
ATOM     13  C   UNL     1       0.992  -4.555  -1.667  0.00  0.00    +0.040 A 
ATOM     14  C   UNL     1       1.530  -3.692  -2.625  0.00  0.00    +0.062 A 
ATOM     15  C   UNL     1       1.418  -2.325  -2.461  0.00  0.00    +0.163 A 
BRANCH  10  16
ATOM     16  O   UNL     1       0.671  -0.465  -1.174  0.00  0.00    -0.489 OA
BRANCH  16  18
ATOM     17  C   UNL     1      -0.019   1.526   0.010  0.00  0.00    +0.048 C 
ATOM     18  C   UNL     1       0.002  -0.004   0.002  0.00  0.00    +0.226 C 
ENDBRANCH  16  18
ENDBRANCH  10  16
BRANCH  15  19
ATOM     19  O   UNL     1       1.937  -1.483  -3.395  0.00  0.00    -0.489 OA
BRANCH  19  20
ATOM     20  C   UNL     1       2.579  -2.082  -4.522  0.00  0.00    +0.226 C 
ATOM     21  C   UNL     1       3.096  -0.985  -5.456  0.00  0.00    +0.048 C 
ENDBRANCH  19  20
ENDBRANCH  15  19
ENDBRANCH   6  13
ENDBRANCH   5   8
ENDBRANCH   1   5
BRANCH   3  22
ATOM     22  C   UNL     1      -0.616 -11.016   1.268  0.00  0.00    +0.139 C 
BRANCH  22  23
ATOM     23  C   UNL     1      -0.501 -12.508   1.091  0.00  0.00    -0.030 A 
ATOM     24  C   UNL     1      -1.485 -13.202   0.412  0.00  0.00    +0.005 A 
ATOM     25  C   UNL     1      -1.378 -14.571   0.250  0.00  0.00    +0.002 A 
ATOM     26  C   UNL     1      -0.288 -15.246   0.767  0.00  0.00    -0.064 A 
ATOM     27  C   UNL     1       0.696 -14.551   1.445  0.00  0.00    +0.002 A 
ATOM     28  C   UNL     1       0.592 -13.182   1.603  0.00  0.00    +0.005 A 
BRANCH  26  29
ATOM     29  C   UNL     1      -0.173 -16.738   0.592  0.00  0.00    -0.043 C 
BRANCH  29  30
ATOM     30  N   UNL     1       0.548 -17.030  -0.655  0.00  0.00    +0.384 N 
ATOM     31  C   UNL     1      -0.242 -16.556  -1.798  0.00  0.00    -0.078 C 
ATOM     32  C   UNL     1       0.539 -16.785  -3.093  0.00  0.00    -0.019 C 
ATOM     33  C   UNL     1       0.825 -18.281  -3.253  0.00  0.00    -0.003 C 
ATOM     34  C   UNL     1       1.585 -18.780  -2.021  0.00  0.00    -0.016 C 
ATOM     35  C   UNL     1       0.764 -18.478  -0.765  0.00  0.00    -0.071 C 
ATOM     36  C   UNL     1       1.520 -18.975   0.469  0.00  0.00    -0.013 C 
ATOM     37  H   UNL     1       1.439 -16.557  -0.646  0.00  0.00    -0.081 HD
ENDBRANCH  29  30
ENDBRANCH  26  29
ENDBRANCH  22  23
ENDBRANCH   3  22
TORSDOF 11
