REMARK  Name = ZINC33880286
REMARK  13 active torsions:
REMARK  status: ('A' for Active; 'I' for Inactive)
REMARK    1  A    between atoms: C_4  and  C_7
REMARK    2  A    between atoms: C_7  and  O_8
REMARK    3  A    between atoms: O_8  and  C_9
REMARK    4  A    between atoms: N_11  and  C_12
REMARK    5  A    between atoms: C_12  and  C_13
REMARK    6  A    between atoms: C_13  and  C_14
REMARK    7  A    between atoms: C_14  and  N_15
REMARK    8  A    between atoms: C_16  and  C_18
REMARK    9  A    between atoms: C_21  and  C_23
REMARK   10  A    between atoms: C_23  and  C_25
REMARK   11  A    between atoms: C_23  and  N_33
REMARK   12  A    between atoms: C_25  and  C_26
REMARK   13  A    between atoms: C_29  and  O_32
REMARK                            x       y       z     vdW  Elec       q    Type
REMARK                         _______ _______ _______ _____ _____    ______ ____
ROOT
ATOM      1  N   UNL     1       8.937  -3.625   5.985  0.00  0.00    -0.310 N 
ATOM      2  C   UNL     1      10.060  -4.253   6.388  0.00  0.00    +0.266 C 
ATOM      3  O   UNL     1      10.841  -4.690   5.565  0.00  0.00    -0.268 OA
ATOM      4  H   UNL     1       8.314  -3.276   6.642  0.00  0.00    +0.149 HD
ENDROOT
BRANCH   2   5
ATOM      5  C   UNL     1      10.341  -4.409   7.827  0.00  0.00    +0.163 A 
ATOM      6  C   UNL     1      11.431  -5.011   8.377  0.00  0.00    +0.230 A 
ATOM      7  O   UNL     1      11.290  -4.933   9.710  0.00  0.00    -0.449 OA
ATOM      8  C   UNL     1      10.139  -4.297   9.973  0.00  0.00    +0.182 A 
ATOM      9  N   UNL     1       9.563  -3.973   8.854  0.00  0.00    -0.210 NA
BRANCH   8  10
ATOM     10  C   UNL     1       9.602  -4.000  11.349  0.00  0.00    +0.017 C 
BRANCH  10  11
ATOM     11  N   UNL     1       9.736  -5.194  12.195  0.00  0.00    +0.386 N 
ATOM     12  H   UNL     1      10.710  -5.450  12.263  0.00  0.00    -0.089 HD
ATOM     13  H   UNL     1       9.376  -4.995  13.117  0.00  0.00    -0.089 HD
ATOM     14  H   UNL     1       9.215  -5.955  11.788  0.00  0.00    -0.089 HD
ENDBRANCH  10  11
BRANCH  10  15
ATOM     15  C   UNL     1      10.392  -2.845  11.968  0.00  0.00    +0.028 C 
BRANCH  15  16
ATOM     16  C   UNL     1       9.777  -2.467  13.291  0.00  0.00    -0.048 A 
ATOM     17  C   UNL     1       8.778  -1.513  13.340  0.00  0.00    +0.007 A 
ATOM     18  C   UNL     1       8.213  -1.165  14.552  0.00  0.00    +0.045 A 
ATOM     19  C   UNL     1       8.649  -1.774  15.720  0.00  0.00    +0.117 A 
ATOM     20  C   UNL     1       9.651  -2.732  15.667  0.00  0.00    +0.045 A 
ATOM     21  C   UNL     1      10.209  -3.080  14.453  0.00  0.00    +0.007 A 
BRANCH  19  22
ATOM     22  O   UNL     1       8.095  -1.433  16.913  0.00  0.00    -0.507 OA
ATOM     23  H   UNL     1       7.326  -1.965  17.156  0.00  0.00    +0.292 HD
ENDBRANCH  19  22
ENDBRANCH  15  16
ENDBRANCH  10  15
ENDBRANCH   8  10
ENDBRANCH   2   5
BRANCH   1  24
ATOM     24  C   UNL     1       8.658  -3.470   4.556  0.00  0.00    +0.106 C 
BRANCH  24  25
ATOM     25  C   UNL     1       7.332  -2.728   4.373  0.00  0.00    +0.037 C 
BRANCH  25  26
ATOM     26  C   UNL     1       7.040  -2.566   2.880  0.00  0.00    +0.109 C 
BRANCH  26  29
ATOM     27  C   UNL     1       5.308  -1.599   1.465  0.00  0.00    +0.401 C 
ATOM     28  O   UNL     1       5.944  -1.955   0.493  0.00  0.00    -0.226 OA
ATOM     29  N   UNL     1       5.770  -1.857   2.704  0.00  0.00    -0.281 N 
ATOM     30  H   UNL     1       5.263  -1.572   3.481  0.00  0.00    +0.152 HD
BRANCH  27  31
ATOM     31  O   UNL     1       4.141  -0.946   1.304  0.00  0.00    -0.446 OA
BRANCH  31  32
ATOM     32  C   UNL     1       3.711  -0.707  -0.038  0.00  0.00    +0.269 C 
BRANCH  32  36
ATOM     33  C   UNL     1      -0.017   1.378   0.010  0.00  0.00    +0.000 A 
ATOM     34  C   UNL     1       1.171   2.086   0.002  0.00  0.00    +0.000 A 
ATOM     35  C   UNL     1       2.377   1.411  -0.013  0.00  0.00    +0.007 A 
ATOM     36  C   UNL     1       2.396   0.029  -0.020  0.00  0.00    -0.010 A 
ATOM     37  C   UNL     1       1.208  -0.679  -0.012  0.00  0.00    +0.007 A 
ATOM     38  C   UNL     1       0.002  -0.004   0.002  0.00  0.00    +0.000 A 
ENDBRANCH  32  36
ENDBRANCH  31  32
ENDBRANCH  27  31
ENDBRANCH  26  29
ENDBRANCH  25  26
ENDBRANCH  24  25
ENDBRANCH   1  24
TORSDOF 13
