REMARK  Name = ZINC36073391
REMARK  10 active torsions:
REMARK  status: ('A' for Active; 'I' for Inactive)
REMARK    1  A    between atoms: C_1  and  C_2
REMARK    2  A    between atoms: C_2  and  C_4
REMARK    3  A    between atoms: C_2  and  N_10
REMARK    4  A    between atoms: N_10  and  C_11
REMARK    5  A    between atoms: N_10  and  C_20
REMARK    6  A    between atoms: C_11  and  C_12
REMARK    7  A    between atoms: C_20  and  C_21
REMARK    8  A    between atoms: C_23  and  C_26
REMARK    9  A    between atoms: N_28  and  C_29
REMARK   10  A    between atoms: C_29  and  C_30
REMARK                            x       y       z     vdW  Elec       q    Type
REMARK                         _______ _______ _______ _____ _____    ______ ____
ROOT
ATOM      1  N   UNL     1       1.413  -0.748  -2.798  0.00  0.00    +0.393 N 
ATOM      2  H   UNL     1       2.206  -0.803  -3.420  0.00  0.00    -0.080 HD
ENDROOT
BRANCH   1   4
ATOM      3  C   UNL     1       1.278   1.688  -2.594  0.00  0.00    -0.008 C 
ATOM      4  C   UNL     1       1.594   0.377  -1.872  0.00  0.00    -0.040 C 
BRANCH   4   5
ATOM      5  C   UNL     1       3.020   0.403  -1.385  0.00  0.00    -0.061 A 
ATOM      6  C   UNL     1       4.061   0.386  -2.295  0.00  0.00    +0.002 A 
ATOM      7  C   UNL     1       5.370   0.409  -1.849  0.00  0.00    +0.000 A 
ATOM      8  C   UNL     1       5.637   0.450  -0.493  0.00  0.00    +0.000 A 
ATOM      9  C   UNL     1       4.596   0.468   0.416  0.00  0.00    +0.000 A 
ATOM     10  C   UNL     1       3.288   0.449  -0.030  0.00  0.00    +0.002 A 
ENDBRANCH   4   5
ENDBRANCH   1   4
BRANCH   1  11
ATOM     11  C   UNL     1       0.189  -0.543  -3.584  0.00  0.00    -0.040 C 
BRANCH  11  12
ATOM     12  C   UNL     1       0.465   0.432  -4.699  0.00  0.00    -0.045 A 
ATOM     13  C   UNL     1      -0.304   1.574  -4.824  0.00  0.00    +0.004 A 
ATOM     14  C   UNL     1      -0.052   2.469  -5.847  0.00  0.00    +0.020 A 
ATOM     15  C   UNL     1       0.972   2.223  -6.745  0.00  0.00    +0.042 A 
ATOM     16  C   UNL     1       1.742   1.081  -6.620  0.00  0.00    +0.040 A 
ATOM     17  C   UNL     1       1.492   0.188  -5.593  0.00  0.00    +0.044 A 
ATOM     18 CL   UNL     1       2.462  -1.243  -5.432  0.00  0.00    -0.083 Cl
ATOM     19 CL   UNL     1       1.288   3.347  -8.029  0.00  0.00    -0.083 Cl
ENDBRANCH  11  12
ENDBRANCH   1  11
BRANCH   1  20
ATOM     20  C   UNL     1       1.301  -1.998  -2.035  0.00  0.00    +0.020 C 
BRANCH  20  21
ATOM     21  C   UNL     1       2.652  -2.369  -1.479  0.00  0.00    +0.179 A 
ATOM     22  N   UNL     1       2.864  -2.914  -0.318  0.00  0.00    -0.210 NA
ATOM     23  C   UNL     1       4.203  -3.102  -0.168  0.00  0.00    +0.163 A 
ATOM     24  C   UNL     1       4.801  -2.642  -1.301  0.00  0.00    +0.230 A 
ATOM     25  O   UNL     1       3.824  -2.195  -2.106  0.00  0.00    -0.449 OA
BRANCH  23  26
ATOM     26  C   UNL     1       4.879  -3.691   1.002  0.00  0.00    +0.266 C 
ATOM     27  O   UNL     1       6.094  -3.707   1.058  0.00  0.00    -0.268 OA
ATOM     28  N   UNL     1       4.151  -4.214   2.008  0.00  0.00    -0.306 N 
ATOM     29  H   UNL     1       3.186  -4.268   1.931  0.00  0.00    +0.149 HD
BRANCH  28  30
ATOM     30  C   UNL     1       4.818  -4.699   3.220  0.00  0.00    +0.140 C 
BRANCH  30  31
ATOM     31  C   UNL     1       3.787  -5.229   4.182  0.00  0.00    -0.030 A 
ATOM     32  C   UNL     1       3.209  -4.384   5.111  0.00  0.00    +0.008 A 
ATOM     33  C   UNL     1       2.263  -4.869   5.994  0.00  0.00    +0.038 A 
ATOM     34  C   UNL     1       1.894  -6.202   5.948  0.00  0.00    +0.123 A 
ATOM     35  C   UNL     1       2.473  -7.049   5.017  0.00  0.00    +0.038 A 
ATOM     36  C   UNL     1       3.415  -6.560   4.132  0.00  0.00    +0.008 A 
ATOM     37  F   UNL     1       0.970  -6.678   6.811  0.00  0.00    -0.205 F 
ENDBRANCH  30  31
ENDBRANCH  28  30
ENDBRANCH  23  26
ENDBRANCH  20  21
ENDBRANCH   1  20
TORSDOF 9
