REMARK  Name = ZINC49944185
REMARK  10 active torsions:
REMARK  status: ('A' for Active; 'I' for Inactive)
REMARK    1  A    between atoms: C_1  and  C_2
REMARK    2  A    between atoms: C_2  and  C_3
REMARK    3  A    between atoms: N_11  and  C_15
REMARK    4  A    between atoms: C_15  and  C_16
REMARK    5  A    between atoms: N_18  and  C_19
REMARK    6  A    between atoms: C_19  and  C_20
REMARK    7  A    between atoms: C_20  and  C_22
REMARK    8  A    between atoms: C_20  and  N_27
REMARK    9  A    between atoms: N_27  and  C_28
REMARK   10  A    between atoms: N_27  and  C_29
REMARK                            x       y       z     vdW  Elec       q    Type
REMARK                         _______ _______ _______ _____ _____    ______ ____
ROOT
ATOM      1  C   UNL     1      -2.862  -3.717   4.555  0.00  0.00    +0.213 C 
ENDROOT
BRANCH   1  10
ATOM      2  C   UNL     1      -0.435   0.896   1.452  0.00  0.00    -0.011 C 
ATOM      3  C   UNL     1      -1.357   1.036   2.665  0.00  0.00    +0.006 C 
ATOM      4  C   UNL     1      -2.719   0.414   2.344  0.00  0.00    +0.035 C 
ATOM      5  C   UNL     1      -2.538  -1.058   1.990  0.00  0.00    +0.113 C 
ATOM      6  C   UNL     1      -1.601  -1.215   0.797  0.00  0.00    +0.035 C 
ATOM      7  C   UNL     1      -0.244  -0.586   1.124  0.00  0.00    +0.006 C 
ATOM      8  C   UNL     1      -2.011  -1.826   3.180  0.00  0.00    +0.247 C 
ATOM      9  O   UNL     1      -0.960  -1.654   3.758  0.00  0.00    -0.273 OA
ATOM     10  N   UNL     1      -2.958  -2.745   3.463  0.00  0.00    -0.215 N 
ATOM     11  C   UNL     1      -3.996  -2.658   2.622  0.00  0.00    +0.310 C 
ATOM     12  O   UNL     1      -4.972  -3.380   2.676  0.00  0.00    -0.252 OA
ATOM     13  N   UNL     1      -3.837  -1.682   1.708  0.00  0.00    -0.285 N 
ATOM     14  H   UNL     1      -4.458  -1.438   1.004  0.00  0.00    +0.151 HD
BRANCH   2  16
ATOM     15  C   UNL     1       0.748   3.034   1.972  0.00  0.00    +0.004 C 
ATOM     16  C   UNL     1       0.922   1.528   1.767  0.00  0.00    -0.000 C 
ENDBRANCH   2  16
ENDBRANCH   1  10
BRANCH   1  17
ATOM     17  C   UNL     1      -3.462  -3.128   5.806  0.00  0.00    +0.231 C 
ATOM     18  O   UNL     1      -3.924  -2.007   5.787  0.00  0.00    -0.274 OA
ATOM     19  N   UNL     1      -3.484  -3.848   6.945  0.00  0.00    -0.315 N 
ATOM     20  H   UNL     1      -3.115  -4.744   6.960  0.00  0.00    +0.149 HD
BRANCH  19  21
ATOM     21  C   UNL     1      -4.067  -3.275   8.161  0.00  0.00    +0.096 C 
BRANCH  21  22
ATOM     22  C   UNL     1      -4.083  -4.334   9.266  0.00  0.00    +0.016 C 
BRANCH  22  23
ATOM     23  C   UNL     1      -2.668  -4.688   9.643  0.00  0.00    +0.093 A 
ATOM     24  C   UNL     1      -2.000  -4.225  10.714  0.00  0.00    +0.043 A 
ATOM     25  C   UNL     1      -0.714  -4.812  10.681  0.00  0.00    +0.041 A 
ATOM     26  C   UNL     1      -0.673  -5.599   9.591  0.00  0.00    +0.195 A 
ATOM     27  O   UNL     1      -1.862  -5.525   8.969  0.00  0.00    -0.469 OA
ENDBRANCH  22  23
BRANCH  22  28
ATOM     28  N   UNL     1      -4.777  -5.535   8.783  0.00  0.00    +0.384 N 
ATOM     29  C   UNL     1      -4.784  -6.555   9.840  0.00  0.00    -0.096 C 
ATOM     30  C   UNL     1      -6.159  -5.191   8.424  0.00  0.00    -0.096 C 
ATOM     31  H   UNL     1      -4.298  -5.896   7.971  0.00  0.00    -0.082 HD
ENDBRANCH  22  28
ENDBRANCH  21  22
ENDBRANCH  19  21
ENDBRANCH   1  17
TORSDOF 7
