REMARK  Name = ZINC14792454
REMARK  4 active torsions:
REMARK  status: ('A' for Active; 'I' for Inactive)
REMARK    1  A    between atoms: C_4  and  C_7
REMARK    2  A    between atoms: C_7  and  N_8
REMARK    3  A    between atoms: C_17  and  C_19
REMARK    4  A    between atoms: N_21  and  N_22
REMARK                            x       y       z     vdW  Elec       q    Type
REMARK                         _______ _______ _______ _____ _____    ______ ____
ROOT
ATOM      1  N   UNL     1       3.541   2.046  -0.021  0.00  0.00    -0.224 N 
ATOM      2  C   UNL     1       3.696   3.386  -0.015  0.00  0.00    +0.275 A 
ATOM      3  O   UNL     1       4.807   3.885  -0.023  0.00  0.00    -0.266 OA
ATOM      4  C   UNL     1       2.494   4.230   0.001  0.00  0.00    +0.050 A 
ATOM      5  C   UNL     1       2.546   5.620   0.007  0.00  0.00    +0.014 A 
ATOM      6  C   UNL     1       1.370   6.340   0.022  0.00  0.00    +0.001 A 
ATOM      7  C   UNL     1       0.142   5.693   0.030  0.00  0.00    +0.001 A 
ATOM      8  C   UNL     1       0.069   4.316   0.024  0.00  0.00    +0.011 A 
ATOM      9  C   UNL     1       1.242   3.571   0.009  0.00  0.00    +0.020 A 
ATOM     10  C   UNL     1       1.252   2.099   0.001  0.00  0.00    +0.155 A 
ATOM     11  N   UNL     1       2.401   1.467  -0.008  0.00  0.00    -0.163 NA
ENDROOT
BRANCH  10  12
ATOM     12  C   UNL     1      -0.016   1.344   0.009  0.00  0.00    +0.281 C 
ATOM     13  O   UNL     1      -1.077   1.937   0.018  0.00  0.00    -0.267 OA
ATOM     14  N   UNL     1       0.002  -0.004   0.002  0.00  0.00    -0.218 N 
ATOM     15  H   UNL     1       0.849  -0.478  -0.009  0.00  0.00    +0.174 HD
BRANCH  14  16
ATOM     16  N   UNL     1      -1.202  -0.721   0.010  0.00  0.00    -0.137 N 
ATOM     17  C   UNL     1      -1.716  -1.351  -1.067  0.00  0.00    +0.263 C 
ATOM     18  O   UNL     1      -1.242  -1.404  -2.182  0.00  0.00    -0.271 OA
ATOM     19  C   UNL     1      -3.005  -1.979  -0.590  0.00  0.00    +0.114 C 
ATOM     20  C   UNL     1      -2.944  -3.495  -0.735  0.00  0.00    +0.035 C 
ATOM     21  C   UNL     1      -4.247  -4.113  -0.221  0.00  0.00    +0.003 C 
ATOM     22  C   UNL     1      -5.425  -3.554  -1.021  0.00  0.00    +0.000 C 
ATOM     23  C   UNL     1      -5.488  -2.036  -0.845  0.00  0.00    +0.003 C 
ATOM     24  C   UNL     1      -4.190  -1.409  -1.361  0.00  0.00    +0.035 C 
ATOM     25  N   UNL     1      -3.083  -1.600   0.827  0.00  0.00    -0.284 N 
ATOM     26  C   UNL     1      -1.982  -0.870   1.087  0.00  0.00    +0.326 C 
ATOM     27  O   UNL     1      -1.726  -0.398   2.178  0.00  0.00    -0.251 OA
ATOM     28  H   UNL     1      -3.787  -1.833   1.453  0.00  0.00    +0.151 HD
ENDBRANCH  14  16
ENDBRANCH  10  12
BRANCH   1  29
ATOM     29  C   UNL     1       4.744   1.209  -0.037  0.00  0.00    +0.182 C 
BRANCH  29  33
ATOM     30  C   UNL     1       5.951   0.373   3.974  0.00  0.00    +0.000 A 
ATOM     31  C   UNL     1       5.072  -0.474   3.327  0.00  0.00    +0.000 A 
ATOM     32  C   UNL     1       4.681  -0.203   2.029  0.00  0.00    +0.005 A 
ATOM     33  C   UNL     1       5.169   0.914   1.378  0.00  0.00    -0.026 A 
ATOM     34  C   UNL     1       6.053   1.759   2.024  0.00  0.00    +0.005 A 
ATOM     35  C   UNL     1       6.440   1.491   3.324  0.00  0.00    +0.000 A 
ENDBRANCH  29  33
ENDBRANCH   1  29
TORSDOF 4
