REMARK  Name = ZINC39691147
REMARK  9 active torsions:
REMARK  status: ('A' for Active; 'I' for Inactive)
REMARK    1  A    between atoms: C_1  and  C_2
REMARK    2  A    between atoms: C_7  and  C_8
REMARK    3  A    between atoms: C_8  and  C_9
REMARK    4  A    between atoms: C_9  and  N_10
REMARK    5  A    between atoms: C_11  and  C_13
REMARK    6  A    between atoms: C_24  and  C_26
REMARK    7  A    between atoms: C_26  and  C_28
REMARK    8  A    between atoms: C_26  and  O_29
REMARK    9  A    between atoms: O_29  and  C_30
REMARK                            x       y       z     vdW  Elec       q    Type
REMARK                         _______ _______ _______ _____ _____    ______ ____
ROOT
ATOM      1  C   UNL     1      -2.532   2.265   6.029  0.00  0.00    +0.100 C 
ATOM      2  C   UNL     1      -1.688   3.554   5.902  0.00  0.00    +0.121 C 
ATOM      3  N   UNL     1      -2.671   4.615   5.581  0.00  0.00    -0.297 N 
ATOM      4  C   UNL     1      -3.849   4.292   6.421  0.00  0.00    +0.115 C 
ATOM      5  C   UNL     1      -3.949   2.754   6.374  0.00  0.00    -0.004 C 
ATOM      6  C   UNL     1      -4.380   2.211   7.733  0.00  0.00    -0.010 C 
ATOM      7  C   UNL     1      -5.813   2.662   8.027  0.00  0.00    -0.082 C 
ATOM      8  N   UNL     1      -6.709   2.169   6.974  0.00  0.00    +0.379 N 
ATOM      9  C   UNL     1      -6.345   2.769   5.685  0.00  0.00    -0.082 C 
ATOM     10  C   UNL     1      -4.934   2.323   5.292  0.00  0.00    -0.010 C 
ATOM     11  C   UNL     1      -2.526   5.642   4.720  0.00  0.00    +0.256 C 
ATOM     12  O   UNL     1      -1.532   5.720   4.030  0.00  0.00    -0.272 OA
ATOM     13  H   UNL     1      -6.630   1.165   6.910  0.00  0.00    -0.086 HD
ATOM     14  H   UNL     1      -7.661   2.415   7.202  0.00  0.00    -0.086 HD
ENDROOT
BRANCH   1  16
ATOM     15  N   UNL     1      -2.652   0.169   4.723  0.00  0.00    -0.315 N 
ATOM     16  C   UNL     1      -2.540   1.512   4.725  0.00  0.00    +0.218 C 
ATOM     17  O   UNL     1      -2.444   2.113   3.676  0.00  0.00    -0.275 OA
ATOM     18  H   UNL     1      -2.729  -0.313   5.562  0.00  0.00    +0.149 HD
BRANCH  15  19
ATOM     19  C   UNL     1      -2.660  -0.564   3.455  0.00  0.00    +0.109 C 
BRANCH  19  20
ATOM     20  C   UNL     1      -2.798  -2.063   3.732  0.00  0.00    +0.054 C 
BRANCH  20  27
ATOM     21  C   UNL     1      -0.303  -2.806   2.479  0.00  0.00    +0.044 C 
ATOM     22  C   UNL     1      -1.612  -3.172   1.828  0.00  0.00    -0.047 A 
ATOM     23  C   UNL     1      -1.619  -3.869   0.633  0.00  0.00    +0.003 A 
ATOM     24  C   UNL     1      -2.820  -4.205   0.036  0.00  0.00    +0.000 A 
ATOM     25  C   UNL     1      -4.013  -3.845   0.634  0.00  0.00    +0.000 A 
ATOM     26  C   UNL     1      -4.006  -3.149   1.828  0.00  0.00    +0.004 A 
ATOM     27  C   UNL     1      -2.806  -2.817   2.427  0.00  0.00    -0.043 A 
ENDBRANCH  20  27
ENDBRANCH  19  20
ENDBRANCH  15  19
ENDBRANCH   1  16
BRANCH  11  28
ATOM     28  C   UNL     1      -3.600   6.694   4.616  0.00  0.00    +0.256 C 
ATOM     29  C   UNL     1      -3.635   7.517   5.905  0.00  0.00    +0.062 C 
BRANCH  28  30
ATOM     30  O   UNL     1      -3.319   7.554   3.510  0.00  0.00    -0.480 OA
BRANCH  30  31
ATOM     31  C   UNL     1      -4.374   8.199   2.945  0.00  0.00    +0.122 A 
ATOM     32  C   UNL     1      -4.193   8.950   1.793  0.00  0.00    +0.045 A 
ATOM     33  C   UNL     1      -5.267   9.605   1.222  0.00  0.00    +0.004 A 
ATOM     34  C   UNL     1      -6.521   9.512   1.797  0.00  0.00    +0.000 A 
ATOM     35  C   UNL     1      -6.703   8.764   2.945  0.00  0.00    +0.004 A 
ATOM     36  C   UNL     1      -5.634   8.102   3.517  0.00  0.00    +0.045 A 
ENDBRANCH  30  31
ENDBRANCH  28  30
ENDBRANCH  11  28
TORSDOF 7
