REMARK  Name = ZINC14200485
REMARK  6 active torsions:
REMARK  status: ('A' for Active; 'I' for Inactive)
REMARK    1  A    between atoms: C_7  and  N_24
REMARK    2  A    between atoms: C_8  and  S_13
REMARK    3  A    between atoms: S_13  and  C_14
REMARK    4  A    between atoms: C_16  and  C_19
REMARK    5  A    between atoms: N_24  and  C_25
REMARK    6  A    between atoms: C_25  and  C_26
REMARK                            x       y       z     vdW  Elec       q    Type
REMARK                         _______ _______ _______ _____ _____    ______ ____
ROOT
ATOM      1  C   UNL     1      -0.102   1.061  -0.220  0.00  0.00    +0.001 A 
ATOM      2  C   UNL     1       0.951   1.959  -0.124  0.00  0.00    +0.002 A 
ATOM      3  C   UNL     1       2.252   1.510  -0.036  0.00  0.00    +0.026 A 
ATOM      4  C   UNL     1       2.513   0.144  -0.044  0.00  0.00    +0.051 A 
ATOM      5  C   UNL     1       1.442  -0.762  -0.142  0.00  0.00    +0.020 A 
ATOM      6  C   UNL     1       0.132  -0.286  -0.230  0.00  0.00    +0.012 A 
ATOM      7  C   UNL     1       1.728  -2.203  -0.150  0.00  0.00    +0.056 A 
ATOM      8  C   UNL     1       3.047  -2.608  -0.060  0.00  0.00    +0.101 A 
ATOM      9  C   UNL     1       4.071  -1.647   0.035  0.00  0.00    +0.265 A 
ATOM     10  O   UNL     1       5.230  -2.021   0.114  0.00  0.00    -0.267 OA
ATOM     11  N   UNL     1       3.807  -0.330   0.043  0.00  0.00    -0.321 N 
ATOM     12  H   UNL     1       4.540   0.301   0.110  0.00  0.00    +0.169 HD
ENDROOT
BRANCH   7  13
ATOM     13  N   UNL     1       0.705  -3.131  -0.245  0.00  0.00    -0.335 N 
ATOM     14  H   UNL     1      -0.219  -2.838  -0.210  0.00  0.00    +0.147 HD
BRANCH  13  15
ATOM     15  C   UNL     1       1.018  -4.554  -0.398  0.00  0.00    +0.176 C 
BRANCH  15  16
ATOM     16  C   UNL     1      -0.254  -5.325  -0.638  0.00  0.00    +0.122 A 
ATOM     17  C   UNL     1      -0.750  -5.669  -1.840  0.00  0.00    +0.046 A 
ATOM     18  C   UNL     1      -1.950  -6.378  -1.600  0.00  0.00    +0.041 A 
ATOM     19  C   UNL     1      -2.115  -6.424  -0.266  0.00  0.00    +0.195 A 
ATOM     20  O   UNL     1      -1.083  -5.790   0.312  0.00  0.00    -0.466 OA
ENDBRANCH  15  16
ENDBRANCH  13  15
ENDBRANCH   7  13
BRANCH   8  21
ATOM     21  S   UNL     1       3.446  -4.324  -0.065  0.00  0.00    -0.041 S 
BRANCH  21  22
ATOM     22  C   UNL     1       4.383  -4.541  -1.541  0.00  0.00    +0.216 A 
ATOM     23  N   UNL     1       4.829  -5.685  -2.012  0.00  0.00    -0.198 NA
ATOM     24  C   UNL     1       5.501  -5.471  -3.154  0.00  0.00    +0.191 A 
ATOM     25  N   UNL     1       5.489  -4.182  -3.419  0.00  0.00    -0.126 NA
ATOM     26  N   UNL     1       4.765  -3.560  -2.389  0.00  0.00    -0.120 NA
BRANCH  24  27
ATOM     27  C   UNL     1       6.150  -6.513  -3.978  0.00  0.00    +0.058 A 
ATOM     28  C   UNL     1       6.775  -6.389  -5.190  0.00  0.00    +0.019 A 
ATOM     29  C   UNL     1       7.313  -7.514  -5.776  0.00  0.00    +0.008 A 
ATOM     30  C   UNL     1       7.207  -8.707  -5.136  0.00  0.00    +0.046 A 
ATOM     31  S   UNL     1       6.330  -8.258  -3.648  0.00  0.00    -0.093 S 
ENDBRANCH  24  27
ENDBRANCH  21  22
ENDBRANCH   8  21
TORSDOF 6
