REMARK  Name = ZINC59121598
REMARK  7 active torsions:
REMARK  status: ('A' for Active; 'I' for Inactive)
REMARK    1  A    between atoms: C_1  and  C_2
REMARK    2  A    between atoms: C_2  and  C_4
REMARK    3  A    between atoms: N_6  and  C_26
REMARK    4  A    between atoms: C_13  and  C_23
REMARK    5  A    between atoms: N_14  and  N_15
REMARK    6  A    between atoms: N_15  and  C_16
REMARK    7  A    between atoms: C_23  and  C_25
REMARK                            x       y       z     vdW  Elec       q    Type
REMARK                         _______ _______ _______ _____ _____    ______ ____
ROOT
ATOM      1  C   UNL     1      -1.912   0.197   0.622  0.00  0.00    +0.162 C 
ATOM      2  N   UNL     1      -3.218   0.267   0.720  0.00  0.00    -0.166 NA
ATOM      3  N   UNL     1      -4.051  -0.797   0.416  0.00  0.00    -0.179 N 
ATOM      4  C   UNL     1      -3.361  -2.003  -0.023  0.00  0.00    +0.226 C 
ATOM      5  S   UNL     1      -1.616  -1.471   0.044  0.00  0.00    -0.043 S 
ATOM      6  N   UNL     1      -3.618  -3.192   0.768  0.00  0.00    -0.272 N 
ATOM      7  C   UNL     1      -4.002  -4.385   0.005  0.00  0.00    +0.121 C 
ATOM      8  C   UNL     1      -4.774  -3.992  -1.292  0.00  0.00    +0.093 C 
ATOM      9  S   UNL     1      -3.813  -2.471  -1.733  0.00  0.00    -0.101 S 
ATOM     10  C   UNL     1      -3.507  -3.201   2.164  0.00  0.00    +0.158 C 
ATOM     11  N   UNL     1      -3.065  -2.140   2.793  0.00  0.00    -0.291 N 
ATOM     12  H   UNL     1      -2.892  -1.322   2.301  0.00  0.00    +0.186 HD
ENDROOT
BRANCH   3  13
ATOM     13  C   UNL     1      -5.439  -0.721   0.522  0.00  0.00    +0.074 A 
ATOM     14  C   UNL     1      -6.239  -1.010  -0.577  0.00  0.00    +0.026 A 
ATOM     15  C   UNL     1      -7.614  -0.933  -0.468  0.00  0.00    +0.002 A 
ATOM     16  C   UNL     1      -8.195  -0.569   0.733  0.00  0.00    +0.002 A 
ATOM     17  C   UNL     1      -7.404  -0.280   1.829  0.00  0.00    +0.022 A 
ATOM     18  C   UNL     1      -6.028  -0.360   1.730  0.00  0.00    +0.064 A 
ATOM     19 CL   UNL     1      -5.034  -0.004   3.109  0.00  0.00    -0.082 Cl
ENDBRANCH   3  13
BRANCH   1  21
ATOM     20  C   UNL     1      -1.415   2.559   1.383  0.00  0.00    +0.094 C 
ATOM     21  C   UNL     1      -0.960   1.206   0.901  0.00  0.00    +0.186 C 
ATOM     22  O   UNL     1       0.225   0.982   0.752  0.00  0.00    -0.290 OA
ENDBRANCH   1  21
BRANCH  10  23
ATOM     23  C   UNL     1      -3.873  -4.356   2.897  0.00  0.00    +0.192 C 
ATOM     24  O   UNL     1      -4.848  -4.333   3.620  0.00  0.00    -0.289 OA
ATOM     25  C   UNL     1      -3.052  -5.614   2.778  0.00  0.00    +0.095 C 
ENDBRANCH  10  23
BRANCH  11  26
ATOM     26  N   UNL     1      -2.843  -2.187   4.175  0.00  0.00    -0.257 N 
ATOM     27  H   UNL     1      -3.081  -2.981   4.678  0.00  0.00    +0.172 HD
BRANCH  26  28
ATOM     28  C   UNL     1      -2.278  -1.091   4.828  0.00  0.00    +0.065 A 
ATOM     29  C   UNL     1      -1.941   0.050   4.110  0.00  0.00    +0.026 A 
ATOM     30  C   UNL     1      -1.383   1.133   4.760  0.00  0.00    +0.002 A 
ATOM     31  C   UNL     1      -1.159   1.084   6.124  0.00  0.00    +0.002 A 
ATOM     32  C   UNL     1      -1.492  -0.049   6.842  0.00  0.00    +0.022 A 
ATOM     33  C   UNL     1      -2.056  -1.135   6.200  0.00  0.00    +0.063 A 
ATOM     34 CL   UNL     1      -2.481  -2.555   7.104  0.00  0.00    -0.082 Cl
ENDBRANCH  26  28
ENDBRANCH  11  26
TORSDOF 5
