REMARK  Name = ZINC35503190
REMARK  4 active torsions:
REMARK  status: ('A' for Active; 'I' for Inactive)
REMARK    1  A    between atoms: C_1  and  N_2
REMARK    2  A    between atoms: N_2  and  C_3
REMARK    3  A    between atoms: C_3  and  C_5
REMARK    4  A    between atoms: C_3  and  C_12
REMARK                            x       y       z     vdW  Elec       q    Type
REMARK                         _______ _______ _______ _____ _____    ______ ____
ROOT
ATOM      1  C   UNL     1       0.690  -0.478  -1.207  0.00  0.00    -0.006 C 
ENDROOT
BRANCH   1   2
ATOM      2  C   UNL     1       0.710  -1.985  -1.215  0.00  0.00    -0.021 A 
ATOM      3  C   UNL     1       0.933  -2.680  -0.040  0.00  0.00    +0.044 A 
ATOM      4  C   UNL     1       0.952  -4.064  -0.048  0.00  0.00    +0.020 A 
ATOM      5  C   UNL     1       0.748  -4.751  -1.230  0.00  0.00    +0.003 A 
ATOM      6  C   UNL     1       0.525  -4.056  -2.404  0.00  0.00    +0.020 A 
ATOM      7  C   UNL     1       0.500  -2.673  -2.396  0.00  0.00    +0.044 A 
ATOM      8 CL   UNL     1       0.213  -1.801  -3.870  0.00  0.00    -0.083 Cl
ATOM      9 CL   UNL     1       1.190  -1.817   1.444  0.00  0.00    -0.083 Cl
ENDBRANCH   1   2
BRANCH   1  10
ATOM     10  C   UNL     1       2.081   0.042  -0.954  0.00  0.00    -0.035 A 
ATOM     11  C   UNL     1       2.487   0.367   0.328  0.00  0.00    +0.026 A 
ATOM     12  C   UNL     1       3.746   0.833   0.520  0.00  0.00    +0.056 A 
ATOM     13  S   UNL     1       4.402   0.822  -1.140  0.00  0.00    -0.074 S 
ATOM     14  C   UNL     1       2.957   0.193  -1.978  0.00  0.00    +0.058 A 
ATOM     15 BR   UNL     1       2.710  -0.168  -3.818  0.00  0.00    -0.042 Br
ATOM     16 BR   UNL     1       4.589   1.358   2.130  0.00  0.00    -0.043 Br
ENDBRANCH   1  10
BRANCH   1  18
ATOM     17  C   UNL     1      -0.364   1.451  -0.246  0.00  0.00    -0.099 C 
ATOM     18  N   UNL     1      -0.210  -0.006  -0.145  0.00  0.00    +0.385 N 
ATOM     19  H   UNL     1       0.180  -0.241   0.755  0.00  0.00    -0.085 HD
ATOM     20  H   UNL     1      -1.111  -0.448  -0.247  0.00  0.00    -0.085 HD
ENDBRANCH   1  18
TORSDOF 3
