REMARK  Name = ZINC59120477
REMARK  7 active torsions:
REMARK  status: ('A' for Active; 'I' for Inactive)
REMARK    1  A    between atoms: C_1  and  C_2
REMARK    2  A    between atoms: C_2  and  C_3
REMARK    3  A    between atoms: C_2  and  C_4
REMARK    4  A    between atoms: C_2  and  O_26
REMARK    5  A    between atoms: N_6  and  C_7
REMARK    6  A    between atoms: C_10  and  C_13
REMARK    7  A    between atoms: O_26  and  C_27
REMARK                            x       y       z     vdW  Elec       q    Type
REMARK                         _______ _______ _______ _____ _____    ______ ____
ROOT
ATOM      1  C   UNL     1      -2.409   0.193   1.563  0.00  0.00    +0.034 A 
ATOM      2  C   UNL     1      -3.168  -0.721   0.839  0.00  0.00    +0.024 A 
ATOM      3  C   UNL     1      -4.513  -0.861   1.099  0.00  0.00    +0.015 A 
ATOM      4  C   UNL     1      -5.115  -0.083   2.092  0.00  0.00    +0.037 A 
ATOM      5  C   UNL     1      -4.350   0.834   2.817  0.00  0.00    +0.015 A 
ATOM      6  C   UNL     1      -3.004   0.965   2.556  0.00  0.00    +0.024 A 
ENDROOT
BRANCH   4   7
ATOM      7  C   UNL     1      -6.556  -0.229   2.373  0.00  0.00    +0.251 C 
ATOM      8  O   UNL     1      -6.961  -0.170   3.518  0.00  0.00    -0.270 OA
ATOM      9  N   UNL     1      -7.424  -0.429   1.361  0.00  0.00    -0.257 N 
ATOM     10  C   UNL     1      -6.951  -0.594  -0.021  0.00  0.00    +0.210 C 
ATOM     11  C   UNL     1      -7.855   0.181  -0.946  0.00  0.00    +0.235 C 
ATOM     12  O   UNL     1      -7.411   0.627  -1.983  0.00  0.00    -0.274 OA
ATOM     13  N   UNL     1      -9.149   0.385  -0.634  0.00  0.00    -0.283 N 
ATOM     14  C   UNL     1      -9.673  -0.075   0.578  0.00  0.00    +0.055 A 
ATOM     15  C   UNL     1      -8.806  -0.490   1.594  0.00  0.00    +0.058 A 
ATOM     16  C   UNL     1      -9.308  -0.948   2.799  0.00  0.00    +0.025 A 
ATOM     17  C   UNL     1     -10.676  -1.001   2.996  0.00  0.00    +0.002 A 
ATOM     18  C   UNL     1     -11.540  -0.599   1.994  0.00  0.00    +0.002 A 
ATOM     19  C   UNL     1     -11.042  -0.127   0.784  0.00  0.00    +0.025 A 
ATOM     20  H   UNL     1      -9.723   0.856  -1.258  0.00  0.00    +0.155 HD
ENDBRANCH   4   7
BRANCH   1  23
ATOM     21  C   UNL     1      -0.592   0.216   0.034  0.00  0.00    +0.261 C 
ATOM     22  O   UNL     1      -1.351  -0.102  -0.857  0.00  0.00    -0.271 OA
ATOM     23  N   UNL     1      -1.047   0.331   1.297  0.00  0.00    -0.282 N 
ATOM     24  H   UNL     1      -0.427   0.511   2.022  0.00  0.00    +0.155 HD
BRANCH  21  26
ATOM     25  C   UNL     1       1.208   1.919   0.117  0.00  0.00    +0.065 C 
ATOM     26  C   UNL     1       0.860   0.481  -0.271  0.00  0.00    +0.180 C 
ATOM     27  C   UNL     1       1.734  -0.488   0.527  0.00  0.00    +0.065 C 
BRANCH  26  28
ATOM     28  O   UNL     1       1.095   0.295  -1.668  0.00  0.00    -0.477 OA
BRANCH  28  29
ATOM     29  C   UNL     1       0.852  -0.943  -2.175  0.00  0.00    +0.122 A 
ATOM     30  C   UNL     1       0.283  -1.922  -1.374  0.00  0.00    +0.047 A 
ATOM     31  C   UNL     1       0.037  -3.179  -1.891  0.00  0.00    +0.023 A 
ATOM     32  C   UNL     1       0.358  -3.463  -3.206  0.00  0.00    +0.041 A 
ATOM     33  C   UNL     1       0.927  -2.487  -4.007  0.00  0.00    +0.023 A 
ATOM     34  C   UNL     1       1.168  -1.227  -3.495  0.00  0.00    +0.047 A 
ATOM     35 CL   UNL     1       0.049  -5.043  -3.853  0.00  0.00    -0.084 Cl
ENDBRANCH  28  29
ENDBRANCH  26  28
ENDBRANCH  21  26
ENDBRANCH   1  23
TORSDOF 5
