REMARK  Name = ZINC19295356
REMARK  13 active torsions:
REMARK  status: ('A' for Active; 'I' for Inactive)
REMARK    1  A    between atoms: C_1  and  C_2
REMARK    2  A    between atoms: C_3  and  C_13
REMARK    3  A    between atoms: C_5  and  C_7
REMARK    4  A    between atoms: N_15  and  C_16
REMARK    5  A    between atoms: N_15  and  C_20
REMARK    6  A    between atoms: C_16  and  C_17
REMARK    7  A    between atoms: C_17  and  C_18
REMARK    8  A    between atoms: C_17  and  C_19
REMARK    9  A    between atoms: C_21  and  N_33
REMARK   10  A    between atoms: N_22  and  C_29
REMARK   11  A    between atoms: C_29  and  C_30
REMARK   12  A    between atoms: C_30  and  C_31
REMARK   13  A    between atoms: C_30  and  C_32
REMARK                            x       y       z     vdW  Elec       q    Type
REMARK                         _______ _______ _______ _____ _____    ______ ____
ROOT
ATOM      1  C   UNL     1      -0.325   0.311   0.441  0.00  0.00    +0.259 C 
ATOM      2  O   UNL     1       0.654  -0.411   0.396  0.00  0.00    -0.269 OA
ATOM      3  N   UNL     1      -0.216   1.615   0.116  0.00  0.00    -0.260 N 
ENDROOT
BRANCH   3   4
ATOM      4  C   UNL     1      -1.367   2.430   0.078  0.00  0.00    +0.140 A 
ATOM      5  C   UNL     1      -1.495   3.504   0.936  0.00  0.00    +0.127 A 
ATOM      6  N   UNL     1      -2.628   4.280   0.875  0.00  0.00    -0.280 N 
ATOM      7  C   UNL     1      -3.601   3.997  -0.011  0.00  0.00    +0.331 A 
ATOM      8  O   UNL     1      -4.596   4.696  -0.049  0.00  0.00    -0.246 OA
ATOM      9  N   UNL     1      -3.494   2.955  -0.854  0.00  0.00    -0.273 N 
ATOM     10  H   UNL     1      -4.303   2.739  -1.567  0.00  0.00    +0.173 HD
ATOM     11  C   UNL     1      -2.401   2.166  -0.839  0.00  0.00    +0.277 A 
ATOM     12  O   UNL     1      -2.312   1.227  -1.612  0.00  0.00    -0.266 OA
BRANCH   5  13
ATOM     13  N   UNL     1      -0.501   3.793   1.841  0.00  0.00    -0.343 N 
ATOM     14  H   UNL     1      -0.610   4.650   2.522  0.00  0.00    +0.144 HD
ATOM     15  H   UNL     1       0.402   3.167   1.884  0.00  0.00    +0.144 HD
ENDBRANCH   5  13
BRANCH   6  16
ATOM     16  C   UNL     1      -2.777   5.423   1.779  0.00  0.00    +0.131 C 
BRANCH  16  17
ATOM     17  C   UNL     1      -2.192   6.674   1.120  0.00  0.00    +0.003 C 
ATOM     18  C   UNL     1      -3.015   7.030  -0.120  0.00  0.00    +0.009 C 
ATOM     19  C   UNL     1      -2.235   7.840   2.111  0.00  0.00    +0.009 C 
ENDBRANCH  16  17
ENDBRANCH   6  16
ENDBRANCH   3   4
BRANCH   1  22
ATOM     20  C   UNL     1      -0.986  -2.673   1.008  0.00  0.00    +0.067 C 
ATOM     21  C   UNL     1      -1.985  -1.551   1.118  0.00  0.00    +0.058 A 
ATOM     22  C   UNL     1      -1.622  -0.237   0.849  0.00  0.00    +0.097 A 
ATOM     23  S   UNL     1      -3.172   0.600   1.147  0.00  0.00    -0.062 S 
ATOM     24  C   UNL     1      -4.109  -0.800   1.568  0.00  0.00    +0.109 A 
ATOM     25  N   UNL     1      -3.221  -1.780   1.469  0.00  0.00    -0.243 NA
BRANCH  24  26
ATOM     26  C   UNL     1      -5.535  -0.880   1.948  0.00  0.00    +0.007 A 
ATOM     27  C   UNL     1      -6.312   0.279   2.001  0.00  0.00    +0.010 A 
ATOM     28  C   UNL     1      -7.643   0.198   2.351  0.00  0.00    +0.001 A 
ATOM     29  C   UNL     1      -8.207  -1.028   2.660  0.00  0.00    +0.000 A 
ATOM     30  C   UNL     1      -7.442  -2.179   2.614  0.00  0.00    +0.001 A 
ATOM     31  C   UNL     1      -6.110  -2.113   2.260  0.00  0.00    +0.010 A 
ENDBRANCH  24  26
ENDBRANCH   1  22
BRANCH   3  32
ATOM     32  C   UNL     1       1.095   2.183  -0.203  0.00  0.00    +0.117 C 
BRANCH  32  33
ATOM     33  C   UNL     1       1.289   2.197  -1.721  0.00  0.00    +0.001 C 
ATOM     34  C   UNL     1       2.628   2.857  -2.058  0.00  0.00    +0.009 C 
ATOM     35  C   UNL     1       1.282   0.761  -2.249  0.00  0.00    +0.009 C 
ENDBRANCH  32  33
ENDBRANCH   3  32
TORSDOF 8
