REMARK  Name = ZINC39695908
REMARK  10 active torsions:
REMARK  status: ('A' for Active; 'I' for Inactive)
REMARK    1  A    between atoms: C_1  and  C_2
REMARK    2  A    between atoms: C_2  and  C_3
REMARK    3  A    between atoms: C_3  and  C_4
REMARK    4  A    between atoms: C_4  and  C_5
REMARK    5  A    between atoms: C_9  and  C_18
REMARK    6  A    between atoms: N_20  and  C_21
REMARK    7  A    between atoms: C_21  and  C_23
REMARK    8  A    between atoms: C_21  and  C_24
REMARK    9  A    between atoms: C_27  and  C_30
REMARK   10  A    between atoms: C_30  and  C_31
REMARK                            x       y       z     vdW  Elec       q    Type
REMARK                         _______ _______ _______ _____ _____    ______ ____
ROOT
ATOM      1  C   UNL     1      -2.974  -2.605  -0.016  0.00  0.00    +0.216 C 
ATOM      2  O   UNL     1      -3.923  -1.852   0.048  0.00  0.00    -0.276 OA
ATOM      3  N   UNL     1      -3.169  -3.938   0.011  0.00  0.00    -0.300 N 
ATOM      4  C   UNL     1      -2.144  -5.007  -0.049  0.00  0.00    +0.121 C 
ATOM      5  C   UNL     1      -2.641  -6.080   0.946  0.00  0.00    +0.100 C 
ATOM      6  C   UNL     1      -4.159  -5.853   1.043  0.00  0.00    -0.004 C 
ATOM      7  C   UNL     1      -4.456  -4.667   0.114  0.00  0.00    +0.115 C 
ATOM      8  C   UNL     1      -4.551  -5.504   2.475  0.00  0.00    -0.010 C 
ATOM      9  C   UNL     1      -6.071  -5.339   2.558  0.00  0.00    -0.082 C 
ATOM     10  N   UNL     1      -6.723  -6.585   2.141  0.00  0.00    +0.379 N 
ATOM     11  C   UNL     1      -6.416  -6.865   0.733  0.00  0.00    -0.082 C 
ATOM     12  C   UNL     1      -4.910  -7.094   0.573  0.00  0.00    -0.010 C 
ATOM     13  H   UNL     1      -6.390  -7.346   2.714  0.00  0.00    -0.086 HD
ATOM     14  H   UNL     1      -7.722  -6.495   2.254  0.00  0.00    -0.086 HD
ENDROOT
BRANCH   5  15
ATOM     15  C   UNL     1      -2.347  -7.460   0.418  0.00  0.00    +0.219 C 
ATOM     16  O   UNL     1      -2.335  -7.663  -0.777  0.00  0.00    -0.275 OA
ATOM     17  N   UNL     1      -2.098  -8.471   1.275  0.00  0.00    -0.308 N 
ATOM     18  H   UNL     1      -2.108  -8.309   2.232  0.00  0.00    +0.149 HD
BRANCH  17  19
ATOM     19  C   UNL     1      -1.813  -9.813   0.762  0.00  0.00    +0.100 C 
ATOM     20  C   UNL     1      -3.128 -10.551   0.504  0.00  0.00    +0.033 C 
BRANCH  19  21
ATOM     21  C   UNL     1      -0.999 -10.576   1.776  0.00  0.00    -0.027 A 
ATOM     22  C   UNL     1      -1.292 -10.464   3.123  0.00  0.00    +0.006 A 
ATOM     23  C   UNL     1      -0.546 -11.164   4.052  0.00  0.00    +0.004 A 
ATOM     24  C   UNL     1       0.493 -11.975   3.636  0.00  0.00    -0.048 A 
ATOM     25  C   UNL     1       0.785 -12.088   2.289  0.00  0.00    +0.004 A 
ATOM     26  C   UNL     1       0.036 -11.391   1.359  0.00  0.00    +0.006 A 
BRANCH  24  27
ATOM     27  C   UNL     1       1.307 -12.737   4.650  0.00  0.00    +0.032 C 
ATOM     28  C   UNL     1       0.670 -14.108   4.888  0.00  0.00    +0.009 C 
ENDBRANCH  24  27
ENDBRANCH  19  21
ENDBRANCH  17  19
ENDBRANCH   5  15
BRANCH   1  29
ATOM     29  C   UNL     1      -1.578  -2.049  -0.126  0.00  0.00    +0.096 C 
BRANCH  29  30
ATOM     30  C   UNL     1      -1.637  -0.520  -0.136  0.00  0.00    +0.009 C 
BRANCH  30  32
ATOM     31  C   UNL     1      -0.278   1.573  -0.257  0.00  0.00    +0.004 C 
ATOM     32  C   UNL     1      -0.219   0.044  -0.247  0.00  0.00    -0.003 C 
ENDBRANCH  30  32
ENDBRANCH  29  30
ENDBRANCH   1  29
TORSDOF 7
