REMARK  Name = ZINC14547733
REMARK  7 active torsions:
REMARK  status: ('A' for Active; 'I' for Inactive)
REMARK    1  A    between atoms: C_1  and  O_2
REMARK    2  A    between atoms: O_2  and  C_3
REMARK    3  A    between atoms: C_6  and  N_9
REMARK    4  A    between atoms: N_9  and  S_10
REMARK    5  A    between atoms: S_10  and  C_13
REMARK    6  A    between atoms: C_26  and  C_29
REMARK    7  A    between atoms: C_38  and  O_39
REMARK                            x       y       z     vdW  Elec       q    Type
REMARK                         _______ _______ _______ _____ _____    ______ ____
ROOT
ATOM      1  C   UNL     1      -3.098   0.584  -0.084  0.00  0.00    +0.109 A 
ATOM      2  C   UNL     1      -2.897  -0.782  -0.154  0.00  0.00    +0.030 A 
ATOM      3  C   UNL     1      -1.612  -1.282  -0.228  0.00  0.00    +0.025 A 
ATOM      4  C   UNL     1      -0.528  -0.412  -0.232  0.00  0.00    +0.031 A 
ATOM      5  C   UNL     1      -0.725   0.956  -0.160  0.00  0.00    -0.018 A 
ATOM      6  C   UNL     1      -2.021   1.447  -0.083  0.00  0.00    +0.034 A 
ATOM      7  C   UNL     1       0.409   1.946  -0.155  0.00  0.00    +0.049 C 
ATOM      8  C   UNL     1       0.317   2.739   1.141  0.00  0.00    -0.023 C 
ATOM      9  C   UNL     1       1.117   2.232   2.045  0.00  0.00    -0.030 C 
ATOM     10  C   UNL     1       1.859   1.032   1.484  0.00  0.00    +0.033 C 
ATOM     11  C   UNL     1       1.784   1.263  -0.044  0.00  0.00    +0.029 C 
ATOM     12  C   UNL     1       1.833  -0.053  -0.797  0.00  0.00    +0.109 C 
ATOM     13  N   UNL     1       0.767  -0.937  -0.312  0.00  0.00    -0.336 N 
ATOM     14  H   UNL     1       0.954  -1.853  -0.055  0.00  0.00    +0.147 HD
ENDROOT
BRANCH  12  15
ATOM     15  C   UNL     1       1.642   0.204  -2.269  0.00  0.00    +0.022 A 
ATOM     16  C   UNL     1       1.284  -0.848  -3.129  0.00  0.00    -0.009 A 
ATOM     17  C   UNL     1       1.097  -2.154  -2.644  0.00  0.00    +0.009 A 
ATOM     18  C   UNL     1       0.750  -3.149  -3.506  0.00  0.00    +0.001 A 
ATOM     19  C   UNL     1       0.577  -2.893  -4.865  0.00  0.00    +0.001 A 
ATOM     20  C   UNL     1       0.750  -1.641  -5.370  0.00  0.00    +0.008 A 
ATOM     21  C   UNL     1       1.108  -0.588  -4.511  0.00  0.00    -0.017 A 
ATOM     22  C   UNL     1       1.294   0.718  -4.998  0.00  0.00    +0.012 A 
ATOM     23  C   UNL     1       1.640   1.715  -4.140  0.00  0.00    +0.046 A 
ATOM     24  C   UNL     1       1.810   1.462  -2.775  0.00  0.00    +0.122 A 
BRANCH  24  25
ATOM     25  O   UNL     1       2.150   2.479  -1.941  0.00  0.00    -0.506 OA
ATOM     26  H   UNL     1       3.099   2.662  -1.911  0.00  0.00    +0.292 HD
ENDBRANCH  24  25
ENDBRANCH  12  15
BRANCH   1  27
ATOM     27  S   UNL     1      -4.736   1.226   0.009  0.00  0.00    +0.072 S 
ATOM     28  O   UNL     1      -4.702   2.515  -0.589  0.00  0.00    -0.150 OA
ATOM     29  O   UNL     1      -5.602   0.197  -0.450  0.00  0.00    -0.150 OA
BRANCH  27  30
ATOM     30  N   UNL     1      -5.082   1.456   1.612  0.00  0.00    -0.216 N 
ATOM     31  H   UNL     1      -5.797   0.952   2.031  0.00  0.00    +0.174 HD
BRANCH  30  35
ATOM     32  C   UNL     1      -2.880   4.202   3.845  0.00  0.00    +0.120 A 
ATOM     33  C   UNL     1      -2.658   2.842   4.004  0.00  0.00    +0.047 A 
ATOM     34  C   UNL     1      -3.387   1.931   3.265  0.00  0.00    +0.028 A 
ATOM     35  C   UNL     1      -4.343   2.378   2.362  0.00  0.00    +0.048 A 
ATOM     36  C   UNL     1      -4.560   3.740   2.199  0.00  0.00    +0.028 A 
ATOM     37  C   UNL     1      -3.834   4.648   2.943  0.00  0.00    +0.047 A 
BRANCH  32  39
ATOM     38  C   UNL     1      -2.441   6.482   4.358  0.00  0.00    +0.277 C 
ATOM     39  O   UNL     1      -2.161   5.097   4.573  0.00  0.00    -0.495 OA
ENDBRANCH  32  39
ENDBRANCH  30  35
ENDBRANCH  27  30
ENDBRANCH   1  27
TORSDOF 6
