REMARK  Name = ZINC63778301
REMARK  10 active torsions:
REMARK  status: ('A' for Active; 'I' for Inactive)
REMARK    1  A    between atoms: C_1  and  C_2
REMARK    2  A    between atoms: C_2  and  C_3
REMARK    3  A    between atoms: C_3  and  C_4
REMARK    4  A    between atoms: C_4  and  C_5
REMARK    5  A    between atoms: C_5  and  N_6
REMARK    6  A    between atoms: C_7  and  C_9
REMARK    7  A    between atoms: C_9  and  C_11
REMARK    8  A    between atoms: C_9  and  N_21
REMARK    9  A    between atoms: C_11  and  C_12
REMARK   10  A    between atoms: C_22  and  C_24
REMARK                            x       y       z     vdW  Elec       q    Type
REMARK                         _______ _______ _______ _____ _____    ______ ____
ROOT
ATOM      1  C   UNL     1      -3.966  -6.254   0.006  0.00  0.00    +0.163 C 
ENDROOT
BRANCH   1   3
ATOM      2  N   UNL     1      -2.828  -4.058   0.007  0.00  0.00    -0.314 N 
ATOM      3  C   UNL     1      -3.986  -4.748   0.015  0.00  0.00    +0.234 C 
ATOM      4  O   UNL     1      -5.044  -4.156   0.028  0.00  0.00    -0.274 OA
ATOM      5  H   UNL     1      -1.982  -4.531  -0.003  0.00  0.00    +0.149 HD
BRANCH   2   6
ATOM      6  C   UNL     1      -2.848  -2.593   0.015  0.00  0.00    +0.104 C 
BRANCH   6   7
ATOM      7  C   UNL     1      -1.413  -2.063   0.004  0.00  0.00    +0.019 C 
BRANCH   7   8
ATOM      8  C   UNL     1      -1.433  -0.534   0.013  0.00  0.00    +0.001 C 
BRANCH   8  10
ATOM      9  C   UNL     1      -0.019   1.526   0.010  0.00  0.00    +0.004 C 
ATOM     10  C   UNL     1       0.002  -0.004   0.002  0.00  0.00    -0.003 C 
ENDBRANCH   8  10
ENDBRANCH   7   8
ENDBRANCH   6   7
ENDBRANCH   2   6
ENDBRANCH   1   3
BRANCH   1  11
ATOM     11  N   UNL     1      -5.340  -6.761   0.017  0.00  0.00    -0.300 N 
ATOM     12  C   UNL     1      -5.601  -7.990   0.506  0.00  0.00    +0.246 C 
ATOM     13  O   UNL     1      -4.697  -8.677   0.939  0.00  0.00    -0.270 OA
ATOM     14  H   UNL     1      -6.062  -6.213  -0.329  0.00  0.00    +0.150 HD
BRANCH  12  15
ATOM     15  C   UNL     1      -6.988  -8.501   0.516  0.00  0.00    +0.055 A 
ATOM     16  C   UNL     1      -8.028  -7.717   0.015  0.00  0.00    +0.014 A 
ATOM     17  C   UNL     1      -9.320  -8.201   0.027  0.00  0.00    +0.001 A 
ATOM     18  C   UNL     1      -9.587  -9.460   0.535  0.00  0.00    +0.001 A 
ATOM     19  C   UNL     1      -8.562 -10.243   1.034  0.00  0.00    +0.021 A 
ATOM     20  C   UNL     1      -7.262  -9.774   1.023  0.00  0.00    +0.053 A 
ATOM     21 CL   UNL     1      -5.975 -10.761   1.642  0.00  0.00    -0.083 Cl
ENDBRANCH  12  15
ENDBRANCH   1  11
BRANCH   1  22
ATOM     22  C   UNL     1      -3.249  -6.748  -1.252  0.00  0.00    +0.065 C 
BRANCH  22  23
ATOM     23  C   UNL     1      -3.120  -8.248  -1.201  0.00  0.00    -0.039 C 
ATOM     24  C   UNL     1      -3.952  -9.156  -1.762  0.00  0.00    -0.001 A 
ATOM     25  C   UNL     1      -5.179  -9.022  -2.557  0.00  0.00    +0.010 A 
ATOM     26  C   UNL     1      -5.806 -10.140  -2.989  0.00  0.00    +0.001 A 
ATOM     27  C   UNL     1      -5.314 -11.420  -2.697  0.00  0.00    +0.002 A 
ATOM     28  C   UNL     1      -4.193 -11.623  -1.973  0.00  0.00    +0.026 A 
ATOM     29  C   UNL     1      -3.453 -10.518  -1.469  0.00  0.00    +0.043 A 
ATOM     30  N   UNL     1      -2.356 -10.456  -0.754  0.00  0.00    -0.380 N 
ATOM     31  C   UNL     1      -2.031  -9.045  -0.518  0.00  0.00    +0.144 C 
ATOM     32  H   UNL     1      -1.843 -11.216  -0.437  0.00  0.00    +0.160 HD
ENDBRANCH  22  23
ENDBRANCH   1  22
TORSDOF 9
