REMARK  Name = ZINC08876707
REMARK  5 active torsions:
REMARK  status: ('A' for Active; 'I' for Inactive)
REMARK    1  A    between atoms: C_1  and  C_2
REMARK    2  A    between atoms: C_5  and  C_8
REMARK    3  A    between atoms: C_8  and  C_10
REMARK    4  A    between atoms: C_30  and  C_38
REMARK    5  A    between atoms: C_32  and  C_37
REMARK                            x       y       z     vdW  Elec       q    Type
REMARK                         _______ _______ _______ _____ _____    ______ ____
ROOT
ATOM      1  C   UNL     1      -4.184   3.186   4.602  0.00  0.00    +0.066 C 
ATOM      2  C   UNL     1      -4.459   4.612   4.058  0.00  0.00    -0.055 C 
ATOM      3  C   UNL     1      -4.588   4.542   2.526  0.00  0.00    -0.016 C 
ATOM      4  C   UNL     1      -6.077   4.255   2.249  0.00  0.00    -0.020 C 
ATOM      5  C   UNL     1      -6.731   4.146   3.643  0.00  0.00    -0.076 C 
ATOM      6  C   UNL     1      -5.907   4.319   5.909  0.00  0.00    +0.060 C 
ATOM      7  C   UNL     1      -4.861   3.212   5.984  0.00  0.00    +0.085 C 
ATOM      8  C   UNL     1      -3.857   3.460   7.075  0.00  0.00    -0.011 A 
ATOM      9  C   UNL     1      -2.983   4.490   7.342  0.00  0.00    +0.006 A 
ATOM     10  C   UNL     1      -2.163   4.431   8.454  0.00  0.00    +0.000 A 
ATOM     11  C   UNL     1      -2.222   3.335   9.296  0.00  0.00    +0.002 A 
ATOM     12  C   UNL     1      -3.096   2.301   9.032  0.00  0.00    +0.023 A 
ATOM     13  C   UNL     1      -3.926   2.353   7.915  0.00  0.00    +0.038 A 
ATOM     14  N   UNL     1      -4.880   1.448   7.443  0.00  0.00    -0.285 N 
ATOM     15  C   UNL     1      -5.474   1.879   6.314  0.00  0.00    +0.228 C 
ATOM     16  O   UNL     1      -6.336   1.303   5.684  0.00  0.00    -0.275 OA
ATOM     17  C   UNL     1      -7.288   3.793   6.199  0.00  0.00    -0.026 A 
ATOM     18  C   UNL     1      -8.076   2.833   5.604  0.00  0.00    +0.008 A 
ATOM     19  C   UNL     1      -9.337   2.565   6.108  0.00  0.00    -0.050 A 
ATOM     20  C   UNL     1      -9.801   3.262   7.208  0.00  0.00    +0.008 A 
ATOM     21  C   UNL     1      -9.014   4.225   7.806  0.00  0.00    -0.029 A 
ATOM     22  C   UNL     1      -7.744   4.501   7.305  0.00  0.00    +0.039 A 
ATOM     23  N   UNL     1      -6.776   5.414   7.727  0.00  0.00    -0.286 N 
ATOM     24  C   UNL     1      -5.670   5.372   6.961  0.00  0.00    +0.212 C 
ATOM     25  O   UNL     1      -4.673   6.050   7.092  0.00  0.00    -0.277 OA
ATOM     26  C   UNL     1      -9.530   4.979   9.005  0.00  0.00    +0.045 C 
ATOM     27  C   UNL     1     -10.202   1.515   5.459  0.00  0.00    +0.044 C 
ATOM     28  H   UNL     1      -5.089   0.607   7.878  0.00  0.00    +0.155 HD
ATOM     29  H   UNL     1      -6.887   6.010   8.484  0.00  0.00    +0.155 HD
ATOM     30  N   UNL     1      -5.808   4.859   4.536  0.00  0.00    +0.395 N 
ATOM     31  H   UNL     1      -6.017   5.864   4.535  0.00  0.00    -0.079 HD
ENDROOT
BRANCH   1  32
ATOM     32  C   UNL     1      -2.703   2.942   4.737  0.00  0.00    +0.166 C 
ATOM     33  O   UNL     1      -1.936   3.879   4.790  0.00  0.00    -0.292 OA
BRANCH  32  38
ATOM     34  C   UNL     1      -0.690  -2.437   5.001  0.00  0.00    +0.044 C 
ATOM     35  C   UNL     1      -1.218  -1.027   4.932  0.00  0.00    -0.050 A 
ATOM     36  C   UNL     1      -2.562  -0.806   4.685  0.00  0.00    +0.004 A 
ATOM     37  C   UNL     1      -3.053   0.481   4.625  0.00  0.00    +0.011 A 
ATOM     38  C   UNL     1      -2.188   1.565   4.805  0.00  0.00    +0.018 A 
ATOM     39  C   UNL     1      -0.831   1.333   5.049  0.00  0.00    +0.011 A 
ATOM     40  C   UNL     1      -0.355   0.040   5.111  0.00  0.00    +0.004 A 
ENDBRANCH  32  38
ENDBRANCH   1  32
TORSDOF 2
