REMARK  Name = ZINC59889307
REMARK  12 active torsions:
REMARK  status: ('A' for Active; 'I' for Inactive)
REMARK    1  A    between atoms: C_1  and  C_2
REMARK    2  A    between atoms: C_2  and  C_3
REMARK    3  A    between atoms: C_3  and  C_26
REMARK    4  A    between atoms: N_4  and  N_5
REMARK    5  A    between atoms: C_8  and  S_11
REMARK    6  A    between atoms: S_11  and  C_12
REMARK    7  A    between atoms: C_12  and  C_13
REMARK    8  A    between atoms: N_15  and  C_16
REMARK    9  A    between atoms: C_18  and  C_24
REMARK   10  A    between atoms: C_18  and  C_25
REMARK   11  A    between atoms: C_20  and  C_22
REMARK   12  A    between atoms: C_20  and  C_23
REMARK                            x       y       z     vdW  Elec       q    Type
REMARK                         _______ _______ _______ _____ _____    ______ ____
ROOT
ATOM      1  C   UNL     1      -4.379  -5.141   7.733  0.00  0.00    +0.224 C 
ATOM      2  O   UNL     1      -5.384  -4.942   7.083  0.00  0.00    -0.275 OA
ATOM      3  N   UNL     1      -4.444  -5.863   8.869  0.00  0.00    -0.312 N 
ATOM      4  H   UNL     1      -3.640  -6.022   9.389  0.00  0.00    +0.149 HD
ENDROOT
BRANCH   3   5
ATOM      5  C   UNL     1      -5.729  -6.411   9.319  0.00  0.00    +0.070 C 
ATOM      6  C   UNL     1      -6.456  -5.360  10.160  0.00  0.00    +0.009 C 
ATOM      7  C   UNL     1      -7.792  -5.920  10.647  0.00  0.00    -0.072 C 
ATOM      8  N   UNL     1      -7.634  -7.185  11.349  0.00  0.00    +0.386 N 
ATOM      9  C   UNL     1      -6.788  -8.197  10.736  0.00  0.00    -0.072 C 
ATOM     10  C   UNL     1      -5.476  -7.637  10.196  0.00  0.00    +0.009 C 
ATOM     11  C   UNL     1      -7.525  -8.957   9.630  0.00  0.00    -0.010 C 
ATOM     12  C   UNL     1      -6.429  -9.229  11.831  0.00  0.00    -0.010 C 
ATOM     13  C   UNL     1      -8.776  -6.027   9.482  0.00  0.00    -0.010 C 
ATOM     14  C   UNL     1      -8.379  -4.900  11.650  0.00  0.00    -0.010 C 
ATOM     15  H   UNL     1      -7.273  -6.989  12.286  0.00  0.00    -0.084 HD
ATOM     16  H   UNL     1      -8.562  -7.588  11.498  0.00  0.00    -0.084 HD
ENDBRANCH   3   5
BRANCH   1  17
ATOM     17  C   UNL     1      -3.059  -4.578   7.271  0.00  0.00    +0.173 C 
BRANCH  17  18
ATOM     18  S   UNL     1      -3.301  -3.662   5.725  0.00  0.00    -0.075 S 
BRANCH  18  22
ATOM     19  N   UNL     1       0.598  -1.340   3.303  0.00  0.00    -0.205 N 
ATOM     20  C   UNL     1      -0.086  -2.076   4.254  0.00  0.00    +0.232 A 
ATOM     21  N   UNL     1      -1.375  -2.340   4.248  0.00  0.00    -0.186 NA
ATOM     22  C   UNL     1      -1.689  -3.075   5.321  0.00  0.00    +0.211 A 
ATOM     23  N   UNL     1      -0.602  -3.289   6.024  0.00  0.00    -0.144 NA
ATOM     24  N   UNL     1       0.453  -2.655   5.348  0.00  0.00    -0.245 N 
ATOM     25  H   UNL     1       1.554  -1.202   3.392  0.00  0.00    +0.177 HD
ATOM     26  H   UNL     1       1.385  -2.635   5.616  0.00  0.00    +0.192 HD
BRANCH  19  28
ATOM     27  C   UNL     1       0.542  -0.112   1.332  0.00  0.00    +0.034 C 
ATOM     28  N   UNL     1      -0.090  -0.794   2.212  0.00  0.00    -0.189 NA
ATOM     29  C   UNL     1       2.027   0.102   1.470  0.00  0.00    +0.062 C 
BRANCH  27  31
ATOM     30  C   UNL     1      -0.149   2.003   0.238  0.00  0.00    +0.010 C 
ATOM     31  C   UNL     1      -0.198   0.475   0.159  0.00  0.00    +0.049 C 
ENDBRANCH  27  31
ENDBRANCH  19  28
ENDBRANCH  18  22
ENDBRANCH  17  18
ENDBRANCH   1  17
TORSDOF 6
