REMARK  Name = ZINC14637008
REMARK  9 active torsions:
REMARK  status: ('A' for Active; 'I' for Inactive)
REMARK    1  A    between atoms: C_1  and  C_2
REMARK    2  A    between atoms: C_2  and  C_3
REMARK    3  A    between atoms: C_3  and  N_4
REMARK    4  A    between atoms: C_8  and  S_27
REMARK    5  A    between atoms: C_12  and  S_13
REMARK    6  A    between atoms: S_13  and  C_14
REMARK    7  A    between atoms: C_14  and  C_15
REMARK    8  A    between atoms: C_17  and  C_20
REMARK    9  A    between atoms: S_27  and  N_30
REMARK                            x       y       z     vdW  Elec       q    Type
REMARK                         _______ _______ _______ _____ _____    ______ ____
ROOT
ATOM      1  N   UNL     1      -3.909   4.095   2.434  0.00  0.00    -0.319 N 
ATOM      2  C   UNL     1      -4.913   4.816   1.807  0.00  0.00    +0.070 A 
ATOM      3  C   UNL     1      -5.977   5.579   2.263  0.00  0.00    +0.030 A 
ATOM      4  C   UNL     1      -6.822   6.188   1.359  0.00  0.00    +0.030 A 
ATOM      5  C   UNL     1      -6.616   6.042  -0.004  0.00  0.00    +0.107 A 
ATOM      6  C   UNL     1      -5.565   5.288  -0.475  0.00  0.00    +0.058 A 
ATOM      7  C   UNL     1      -4.699   4.665   0.427  0.00  0.00    +0.092 A 
ATOM      8  N   UNL     1      -3.598   3.882   0.276  0.00  0.00    -0.222 NA
ATOM      9  C   UNL     1      -3.135   3.541   1.453  0.00  0.00    +0.170 A 
ENDROOT
BRANCH   5  10
ATOM     10  S   UNL     1      -7.707   6.827  -1.143  0.00  0.00    +0.056 S 
ATOM     11  O   UNL     1      -7.626   6.093  -2.357  0.00  0.00    -0.153 OA
ATOM     12  O   UNL     1      -8.935   7.030  -0.456  0.00  0.00    -0.153 OA
BRANCH  10  13
ATOM     13  N   UNL     1      -7.088   8.331  -1.457  0.00  0.00    -0.204 NA
ATOM     14  H   UNL     1      -6.264   8.615  -1.030  0.00  0.00    +0.144 HD
ATOM     15  H   UNL     1      -7.548   8.927  -2.068  0.00  0.00    +0.144 HD
ENDBRANCH  10  13
ENDBRANCH   5  10
BRANCH   1  16
ATOM     16  C   UNL     1      -3.714   3.953   3.879  0.00  0.00    +0.124 C 
BRANCH  16  18
ATOM     17  C   UNL     1      -2.602   4.927   5.893  0.00  0.00    +0.005 C 
ATOM     18  C   UNL     1      -2.805   5.075   4.383  0.00  0.00    +0.018 C 
ENDBRANCH  16  18
ENDBRANCH   1  16
BRANCH   9  19
ATOM     19  S   UNL     1      -1.722   2.526   1.731  0.00  0.00    -0.078 S 
BRANCH  19  20
ATOM     20  C   UNL     1      -1.240   2.184   0.020  0.00  0.00    +0.176 C 
BRANCH  20  21
ATOM     21  C   UNL     1      -0.016   1.306   0.009  0.00  0.00    +0.238 A 
ATOM     22  N   UNL     1       0.002  -0.004   0.002  0.00  0.00    -0.191 NA
ATOM     23  C   UNL     1       1.309  -0.349  -0.012  0.00  0.00    +0.203 A 
ATOM     24  N   UNL     1       2.002   0.760  -0.013  0.00  0.00    -0.056 NA
ATOM     25  O   UNL     1       1.256   1.716  -0.001  0.00  0.00    -0.337 OA
BRANCH  23  26
ATOM     26  C   UNL     1       1.856  -1.729  -0.024  0.00  0.00    +0.041 A 
ATOM     27  C   UNL     1       0.993  -2.823  -0.015  0.00  0.00    +0.013 A 
ATOM     28  C   UNL     1       1.507  -4.104  -0.032  0.00  0.00    +0.001 A 
ATOM     29  C   UNL     1       2.876  -4.304  -0.046  0.00  0.00    +0.001 A 
ATOM     30  C   UNL     1       3.737  -3.222  -0.050  0.00  0.00    +0.021 A 
ATOM     31  C   UNL     1       3.235  -1.935  -0.039  0.00  0.00    +0.052 A 
ATOM     32 CL   UNL     1       4.317  -0.578  -0.042  0.00  0.00    -0.083 Cl
ENDBRANCH  23  26
ENDBRANCH  20  21
ENDBRANCH  19  20
ENDBRANCH   9  19
TORSDOF 8
