REMARK  Name = ZINC12484271
REMARK  14 active torsions:
REMARK  status: ('A' for Active; 'I' for Inactive)
REMARK    1  A    between atoms: C_1  and  C_2
REMARK    2  A    between atoms: C_2  and  C_3
REMARK    3  A    between atoms: C_2  and  C_4
REMARK    4  A    between atoms: C_7  and  C_10
REMARK    5  A    between atoms: C_10  and  C_12
REMARK    6  A    between atoms: C_10  and  N_19
REMARK    7  A    between atoms: N_14  and  C_15
REMARK    8  A    between atoms: C_15  and  C_16
REMARK    9  A    between atoms: C_15  and  C_17
REMARK   10  A    between atoms: C_15  and  C_18
REMARK   11  A    between atoms: N_19  and  C_20
REMARK   12  A    between atoms: C_29  and  C_31
REMARK   13  A    between atoms: C_31  and  N_32
REMARK   14  A    between atoms: C_33  and  C_35
REMARK                            x       y       z     vdW  Elec       q    Type
REMARK                         _______ _______ _______ _____ _____    ______ ____
ROOT
ATOM      1  N   UNL     1      -1.944   4.029   5.362  0.00  0.00    -0.254 N 
ATOM      2  C   UNL     1      -2.144   4.474   6.619  0.00  0.00    +0.238 C 
ATOM      3  O   UNL     1      -3.002   3.968   7.312  0.00  0.00    -0.274 OA
ENDROOT
BRANCH   1   4
ATOM      4  C   UNL     1      -0.888   4.539   4.599  0.00  0.00    +0.038 A 
ATOM      5  C   UNL     1       0.207   3.737   4.301  0.00  0.00    +0.024 A 
ATOM      6  C   UNL     1       1.242   4.243   3.543  0.00  0.00    +0.006 A 
ATOM      7  C   UNL     1       1.202   5.551   3.089  0.00  0.00    -0.044 A 
ATOM      8  C   UNL     1       0.117   6.354   3.389  0.00  0.00    -0.042 A 
ATOM      9  C   UNL     1      -0.927   5.848   4.143  0.00  0.00    +0.027 A 
ATOM     10  C   UNL     1       0.312   7.727   2.782  0.00  0.00    +0.036 C 
ATOM     11  C   UNL     1       1.818   7.813   2.455  0.00  0.00    +0.009 C 
ATOM     12  C   UNL     1       2.201   6.331   2.260  0.00  0.00    +0.036 C 
ENDBRANCH   1   4
BRANCH   1  13
ATOM     13  C   UNL     1      -2.833   3.012   4.795  0.00  0.00    +0.197 C 
BRANCH  13  17
ATOM     14  C   UNL     1      -1.379   1.830   0.957  0.00  0.00    -0.045 A 
ATOM     15  C   UNL     1      -1.679   3.156   1.203  0.00  0.00    +0.004 A 
ATOM     16  C   UNL     1      -2.155   3.538   2.444  0.00  0.00    +0.006 A 
ATOM     17  C   UNL     1      -2.320   2.595   3.441  0.00  0.00    -0.018 A 
ATOM     18  C   UNL     1      -2.015   1.269   3.196  0.00  0.00    +0.006 A 
ATOM     19  C   UNL     1      -1.544   0.887   1.954  0.00  0.00    +0.004 A 
BRANCH  14  21
ATOM     20  C   UNL     1       0.438   2.155  -0.700  0.00  0.00    +0.012 C 
ATOM     21  C   UNL     1      -0.866   1.413  -0.398  0.00  0.00    +0.013 C 
ATOM     22  C   UNL     1      -1.907   1.755  -1.465  0.00  0.00    +0.012 C 
ENDBRANCH  14  21
ENDBRANCH  13  17
BRANCH  13  23
ATOM     23  C   UNL     1      -4.221   3.581   4.652  0.00  0.00    +0.239 C 
ATOM     24  O   UNL     1      -4.446   4.724   4.991  0.00  0.00    -0.273 OA
ATOM     25  N   UNL     1      -5.213   2.821   4.149  0.00  0.00    -0.309 N 
ATOM     26  H   UNL     1      -5.034   1.907   3.877  0.00  0.00    +0.149 HD
BRANCH  25  27
ATOM     27  C   UNL     1      -6.562   3.374   4.010  0.00  0.00    +0.026 C 
ATOM     28  C   UNL     1      -6.522   4.590   3.083  0.00  0.00    +0.031 C 
ATOM     29  C   UNL     1      -7.491   2.312   3.418  0.00  0.00    +0.031 C 
ATOM     30  C   UNL     1      -7.084   3.797   5.385  0.00  0.00    +0.031 C 
ENDBRANCH  25  27
ENDBRANCH  13  23
ENDBRANCH   1  13
BRANCH   2  31
ATOM     31  C   UNL     1      -1.302   5.599   7.163  0.00  0.00    +0.201 C 
BRANCH  31  32
ATOM     32  N   UNL     1      -1.623   5.809   8.577  0.00  0.00    -0.300 N 
ATOM     33  C   UNL     1      -0.988   6.771   9.276  0.00  0.00    +0.280 C 
ATOM     34  O   UNL     1      -0.148   7.465   8.732  0.00  0.00    -0.267 OA
ATOM     35  H   UNL     1      -2.292   5.256   9.010  0.00  0.00    +0.150 HD
BRANCH  33  36
ATOM     36  C   UNL     1      -1.309   6.982  10.691  0.00  0.00    +0.189 A 
ATOM     37  C   UNL     1      -0.745   7.916  11.511  0.00  0.00    +0.054 A 
ATOM     38  C   UNL     1      -1.346   7.763  12.771  0.00  0.00    +0.042 A 
ATOM     39  C   UNL     1      -2.240   6.755  12.665  0.00  0.00    +0.196 A 
ATOM     40  O   UNL     1      -2.219   6.291  11.409  0.00  0.00    -0.458 OA
ENDBRANCH  33  36
ENDBRANCH  31  32
ENDBRANCH   2  31
TORSDOF 9
