REMARK  Name = ZINC09191449
REMARK  8 active torsions:
REMARK  status: ('A' for Active; 'I' for Inactive)
REMARK    1  A    between atoms: C_1  and  N_2
REMARK    2  A    between atoms: N_7  and  C_10
REMARK    3  A    between atoms: N_11  and  C_26
REMARK    4  A    between atoms: N_14  and  C_15
REMARK    5  A    between atoms: C_15  and  C_16
REMARK    6  A    between atoms: C_21  and  C_24
REMARK    7  A    between atoms: C_24  and  N_25
REMARK    8  A    between atoms: C_26  and  C_27
REMARK                            x       y       z     vdW  Elec       q    Type
REMARK                         _______ _______ _______ _____ _____    ______ ____
ROOT
ATOM      1  C   UNL     1       0.598   1.240  -1.350  0.00  0.00    +0.155 C 
ATOM      2  N   UNL     1       0.590  -0.223  -1.282  0.00  0.00    -0.280 N 
ATOM      3  C   UNL     1      -0.563  -0.893  -0.906  0.00  0.00    +0.170 A 
ATOM      4  C   UNL     1      -0.543  -2.282  -0.850  0.00  0.00    +0.153 A 
ATOM      5  C   UNL     1       0.642  -2.965  -1.177  0.00  0.00    +0.282 A 
ATOM      6  O   UNL     1       0.682  -4.183  -1.135  0.00  0.00    -0.265 OA
ATOM      7  N   UNL     1       1.734  -2.259  -1.537  0.00  0.00    -0.262 N 
ATOM      8  C   UNL     1       1.702  -0.916  -1.591  0.00  0.00    +0.333 A 
ATOM      9  O   UNL     1       2.704  -0.313  -1.924  0.00  0.00    -0.246 OA
ATOM     10  C   UNL     1       2.970  -2.966  -1.878  0.00  0.00    +0.157 C 
ATOM     11  N   UNL     1      -1.813  -2.676  -0.450  0.00  0.00    -0.302 N 
ATOM     12  C   UNL     1      -2.540  -1.540  -0.282  0.00  0.00    +0.198 A 
ATOM     13  N   UNL     1      -1.787  -0.494  -0.555  0.00  0.00    -0.196 NA
ATOM     14  N   UNL     1      -3.857  -1.490   0.112  0.00  0.00    -0.314 N 
ATOM     15  H   UNL     1      -4.321  -2.305   0.361  0.00  0.00    +0.149 HD
ENDROOT
BRANCH  14  16
ATOM     16  C   UNL     1      -4.561  -0.205   0.156  0.00  0.00    +0.108 C 
BRANCH  16  17
ATOM     17  C   UNL     1      -5.967  -0.412   0.722  0.00  0.00    +0.006 C 
ATOM     18  C   UNL     1      -5.866  -0.931   2.158  0.00  0.00    +0.005 C 
ATOM     19  C   UNL     1      -7.272  -1.138   2.725  0.00  0.00    +0.001 C 
ATOM     20  C   UNL     1      -8.028   0.192   2.715  0.00  0.00    +0.002 C 
ATOM     21  C   UNL     1      -8.128   0.711   1.278  0.00  0.00    -0.028 C 
ATOM     22  C   UNL     1      -6.722   0.918   0.712  0.00  0.00    +0.006 C 
BRANCH  21  23
ATOM     23  C   UNL     1      -8.879  -0.309   0.420  0.00  0.00    -0.083 C 
BRANCH  23  24
ATOM     24  N   UNL     1     -10.266  -0.419   0.891  0.00  0.00    +0.378 N 
ATOM     25  H   UNL     1     -10.271  -0.721   1.853  0.00  0.00    -0.090 HD
ATOM     26  H   UNL     1     -10.718   0.480   0.818  0.00  0.00    -0.090 HD
ATOM     27  H   UNL     1     -10.761  -1.091   0.324  0.00  0.00    -0.090 HD
ENDBRANCH  23  24
ENDBRANCH  21  23
ENDBRANCH  16  17
ENDBRANCH  14  16
BRANCH  11  28
ATOM     28  C   UNL     1      -2.280  -4.050  -0.249  0.00  0.00    +0.162 C 
BRANCH  28  29
ATOM     29  C   UNL     1      -1.992  -4.476   1.167  0.00  0.00    -0.009 A 
ATOM     30  C   UNL     1      -0.700  -4.794   1.544  0.00  0.00    +0.008 A 
ATOM     31  C   UNL     1      -0.435  -5.184   2.843  0.00  0.00    +0.020 A 
ATOM     32  C   UNL     1      -1.463  -5.258   3.767  0.00  0.00    +0.042 A 
ATOM     33  C   UNL     1      -2.755  -4.939   3.390  0.00  0.00    +0.040 A 
ATOM     34  C   UNL     1      -3.019  -4.543   2.091  0.00  0.00    +0.047 A 
ATOM     35 CL   UNL     1      -4.639  -4.138   1.619  0.00  0.00    -0.083 Cl
ATOM     36 CL   UNL     1      -1.130  -5.749   5.399  0.00  0.00    -0.083 Cl
ENDBRANCH  28  29
ENDBRANCH  11  28
TORSDOF 6
