REMARK  Name = ZINC64228069
REMARK  7 active torsions:
REMARK  status: ('A' for Active; 'I' for Inactive)
REMARK    1  A    between atoms: C_8  and  C_12
REMARK    2  A    between atoms: N_14  and  C_15
REMARK    3  A    between atoms: C_15  and  C_17
REMARK    4  A    between atoms: C_15  and  C_27
REMARK    5  A    between atoms: C_17  and  C_18
REMARK    6  A    between atoms: N_29  and  C_30
REMARK    7  A    between atoms: C_30  and  C_31
REMARK                            x       y       z     vdW  Elec       q    Type
REMARK                         _______ _______ _______ _____ _____    ______ ____
ROOT
ATOM      1  C   UNL     1       2.046  -6.516  -0.868  0.00  0.00    +0.163 C 
ENDROOT
BRANCH   1   4
ATOM      2  C   UNL     1       2.583  -4.232  -0.208  0.00  0.00    +0.231 C 
ATOM      3  O   UNL     1       3.136  -4.677   0.775  0.00  0.00    -0.274 OA
ATOM      4  N   UNL     1       2.005  -5.069  -1.093  0.00  0.00    -0.302 N 
ATOM      5  H   UNL     1       1.562  -4.713  -1.879  0.00  0.00    +0.150 HD
BRANCH   2  13
ATOM      6  C   UNL     1      -0.017   1.376   0.010  0.00  0.00    +0.000 A 
ATOM      7  C   UNL     1       1.173   2.080   0.002  0.00  0.00    +0.000 A 
ATOM      8  C   UNL     1       2.374   1.400  -0.015  0.00  0.00    +0.005 A 
ATOM      9  C   UNL     1       2.395   0.013  -0.024  0.00  0.00    -0.030 A 
ATOM     10  C   UNL     1       1.208  -0.688  -0.012  0.00  0.00    -0.041 A 
ATOM     11  C   UNL     1       0.002  -0.004   0.002  0.00  0.00    +0.004 A 
ATOM     12  C   UNL     1       1.180  -2.195  -0.009  0.00  0.00    +0.063 C 
ATOM     13  C   UNL     1       2.541  -2.744  -0.440  0.00  0.00    +0.145 C 
ATOM     14  N   UNL     1       3.585  -2.085   0.361  0.00  0.00    -0.301 NA
ATOM     15  C   UNL     1       3.730  -0.684  -0.048  0.00  0.00    +0.117 C 
ATOM     16  H   UNL     1       3.382  -2.155   1.347  0.00  0.00    +0.123 HD
ENDBRANCH   2  13
ENDBRANCH   1   4
BRANCH   1  17
ATOM     17  C   UNL     1       0.908  -6.916   0.035  0.00  0.00    +0.234 C 
ATOM     18  O   UNL     1       0.138  -6.075   0.449  0.00  0.00    -0.274 OA
ATOM     19  N   UNL     1       0.745  -8.208   0.382  0.00  0.00    -0.307 N 
ATOM     20  H   UNL     1       1.361  -8.880   0.051  0.00  0.00    +0.149 HD
BRANCH  19  21
ATOM     21  C   UNL     1      -0.362  -8.597   1.259  0.00  0.00    +0.178 C 
BRANCH  21  22
ATOM     22  C   UNL     1      -0.320 -10.086   1.491  0.00  0.00    +0.122 A 
ATOM     23  C   UNL     1       0.335 -10.708   2.487  0.00  0.00    +0.046 A 
ATOM     24  C   UNL     1       0.106 -12.094   2.325  0.00  0.00    +0.041 A 
ATOM     25  C   UNL     1      -0.675 -12.235   1.239  0.00  0.00    +0.195 A 
ATOM     26  O   UNL     1      -0.934 -11.015   0.741  0.00  0.00    -0.466 OA
ENDBRANCH  21  22
ENDBRANCH  19  21
ENDBRANCH   1  17
BRANCH   1  27
ATOM     27  C   UNL     1       1.916  -7.245  -2.207  0.00  0.00    +0.065 C 
BRANCH  27  28
ATOM     28  C   UNL     1       3.118  -6.940  -3.063  0.00  0.00    -0.039 C 
ATOM     29  C   UNL     1       4.241  -7.685  -3.183  0.00  0.00    -0.001 A 
ATOM     30  C   UNL     1       4.662  -8.953  -2.575  0.00  0.00    +0.010 A 
ATOM     31  C   UNL     1       5.872  -9.465  -2.897  0.00  0.00    +0.001 A 
ATOM     32  C   UNL     1       6.732  -8.815  -3.794  0.00  0.00    +0.002 A 
ATOM     33  C   UNL     1       6.415  -7.648  -4.393  0.00  0.00    +0.026 A 
ATOM     34  C   UNL     1       5.166  -7.020  -4.128  0.00  0.00    +0.043 A 
ATOM     35  N   UNL     1       4.637  -5.907  -4.574  0.00  0.00    -0.380 N 
ATOM     36  C   UNL     1       3.312  -5.743  -3.966  0.00  0.00    +0.144 C 
ATOM     37  H   UNL     1       5.051  -5.295  -5.203  0.00  0.00    +0.160 HD
ENDBRANCH  27  28
ENDBRANCH   1  27
TORSDOF 7
