REMARK  Name = ZINC14669634
REMARK  13 active torsions:
REMARK  status: ('A' for Active; 'I' for Inactive)
REMARK    1  A    between atoms: C_1  and  C_2
REMARK    2  A    between atoms: C_2  and  C_3
REMARK    3  A    between atoms: C_3  and  C_5
REMARK    4  A    between atoms: C_3  and  C_6
REMARK    5  A    between atoms: C_11  and  O_12
REMARK    6  A    between atoms: O_12  and  C_13
REMARK    7  A    between atoms: C_13  and  C_14
REMARK    8  A    between atoms: N_16  and  N_17
REMARK    9  A    between atoms: C_18  and  C_20
REMARK   10  A    between atoms: C_23  and  O_27
REMARK   11  A    between atoms: O_27  and  C_28
REMARK   12  A    between atoms: C_28  and  C_29
REMARK   13  A    between atoms: C_29  and  C_30
REMARK                            x       y       z     vdW  Elec       q    Type
REMARK                         _______ _______ _______ _____ _____    ______ ____
ROOT
ATOM      1  N   UNL     1       1.143   1.901   0.001  0.00  0.00    -0.230 N 
ATOM      2  C   UNL     1      -0.014   1.212   0.009  0.00  0.00    +0.260 C 
ATOM      3  O   UNL     1       0.002  -0.004   0.002  0.00  0.00    -0.269 OA
ATOM      4  H   UNL     1       1.130   2.871   0.007  0.00  0.00    +0.173 HD
ENDROOT
BRANCH   2   5
ATOM      5  C   UNL     1      -1.303   1.932   0.019  0.00  0.00    +0.039 A 
ATOM      6  C   UNL     1      -1.324   3.329   0.032  0.00  0.00    +0.017 A 
ATOM      7  C   UNL     1      -2.527   3.998   0.036  0.00  0.00    +0.047 A 
ATOM      8  C   UNL     1      -3.721   3.286   0.038  0.00  0.00    +0.134 A 
ATOM      9  C   UNL     1      -3.704   1.896   0.030  0.00  0.00    +0.060 A 
ATOM     10  C   UNL     1      -2.504   1.219   0.021  0.00  0.00    +0.032 A 
ATOM     11 BR   UNL     1      -5.332   0.932   0.033  0.00  0.00    -0.046 Br
BRANCH   8  12
ATOM     12  O   UNL     1      -4.905   3.949   0.047  0.00  0.00    -0.491 OA
BRANCH  12  13
ATOM     13  C   UNL     1      -4.849   5.377   0.055  0.00  0.00    +0.234 C 
BRANCH  13  14
ATOM     14  C   UNL     1      -6.270   5.943   0.065  0.00  0.00    +0.076 C 
BRANCH  14  15
ATOM     15  C   UNL     1      -6.211   7.449   0.073  0.00  0.00    -0.044 A 
ATOM     16  C   UNL     1      -6.184   8.133   1.273  0.00  0.00    +0.004 A 
ATOM     17  C   UNL     1      -6.124   9.514   1.281  0.00  0.00    +0.000 A 
ATOM     18  C   UNL     1      -6.103  10.212   0.087  0.00  0.00    +0.000 A 
ATOM     19  C   UNL     1      -6.136   9.527  -1.114  0.00  0.00    +0.000 A 
ATOM     20  C   UNL     1      -6.189   8.146  -1.121  0.00  0.00    +0.004 A 
ENDBRANCH  14  15
ENDBRANCH  13  14
ENDBRANCH  12  13
ENDBRANCH   8  12
ENDBRANCH   2   5
BRANCH   1  23
ATOM     21  C   UNL     1       3.524   1.907  -0.021  0.00  0.00    +0.267 C 
ATOM     22  O   UNL     1       3.508   3.120  -0.015  0.00  0.00    -0.271 OA
ATOM     23  N   UNL     1       2.366   1.217  -0.014  0.00  0.00    -0.231 N 
ATOM     24  H   UNL     1       2.379   0.247  -0.019  0.00  0.00    +0.173 HD
BRANCH  21  25
ATOM     25  C   UNL     1       4.839   1.171  -0.038  0.00  0.00    +0.326 C 
BRANCH  25  26
ATOM     26  O   UNL     1       5.913   2.115  -0.043  0.00  0.00    -0.482 OA
BRANCH  26  32
ATOM     27  C   UNL     1       8.264   2.471  -0.069  0.00  0.00    -0.003 A 
ATOM     28  C   UNL     1       9.547   1.958  -0.079  0.00  0.00    +0.007 A 
ATOM     29  C   UNL     1       9.746   0.590  -0.087  0.00  0.00    +0.001 A 
ATOM     30  C   UNL     1       8.661  -0.268  -0.082  0.00  0.00    +0.004 A 
ATOM     31  C   UNL     1       7.377   0.240  -0.067  0.00  0.00    +0.046 A 
ATOM     32  C   UNL     1       7.175   1.613  -0.058  0.00  0.00    +0.125 A 
BRANCH  27  33
ATOM     33  C   UNL     1       8.049   3.963  -0.066  0.00  0.00    +0.019 C 
ATOM     34  C   UNL     1       8.704   4.570   1.177  0.00  0.00    +0.012 C 
BRANCH  33  36
ATOM     35  C   UNL     1       8.350   6.066  -1.381  0.00  0.00    +0.004 C 
ATOM     36  C   UNL     1       8.676   4.572  -1.321  0.00  0.00    +0.004 C 
ENDBRANCH  33  36
ENDBRANCH  27  33
ENDBRANCH  26  32
ENDBRANCH  25  26
ENDBRANCH  21  25
ENDBRANCH   1  23
TORSDOF 11
