REMARK  Name = ZINC13065260
REMARK  13 active torsions:
REMARK  status: ('A' for Active; 'I' for Inactive)
REMARK    1  A    between atoms: C_1  and  C_2
REMARK    2  A    between atoms: C_2  and  C_3
REMARK    3  A    between atoms: C_3  and  C_5
REMARK    4  A    between atoms: C_3  and  N_73
REMARK    5  A    between atoms: N_9  and  C_10
REMARK    6  A    between atoms: C_10  and  C_11
REMARK    7  A    between atoms: C_17  and  C_18
REMARK    8  A    between atoms: C_17  and  N_73
REMARK    9  A    between atoms: C_21  and  C_24
REMARK   10  A    between atoms: C_25  and  C_26
REMARK   11  A    between atoms: C_25  and  N_73
REMARK   12  A    between atoms: C_29  and  C_39
REMARK   13  A    between atoms: C_32  and  C_38
REMARK                            x       y       z     vdW  Elec       q    Type
REMARK                         _______ _______ _______ _____ _____    ______ ____
ROOT
ATOM      1  N   UNL     1       1.392  -2.565  -1.576  0.00  0.00    +0.392 N 
ATOM      2  H   UNL     1       2.220  -2.089  -1.953  0.00  0.00    -0.080 HD
ENDROOT
BRANCH   1   3
ATOM      3  C   UNL     1       1.441  -3.991  -1.964  0.00  0.00    +0.003 C 
BRANCH   3   4
ATOM      4  C   UNL     1       0.100  -4.644  -1.744  0.00  0.00    +0.138 A 
ATOM      5  N   UNL     1      -1.060  -4.212  -2.175  0.00  0.00    -0.115 NA
ATOM      6  N   UNL     1      -1.963  -5.044  -1.785  0.00  0.00    -0.023 NA
ATOM      7  N   UNL     1      -1.410  -5.991  -1.111  0.00  0.00    -0.044 NA
ATOM      8  N   UNL     1      -0.138  -5.780  -1.063  0.00  0.00    -0.228 N 
BRANCH   8   9
ATOM      9  C   UNL     1       0.859  -6.619  -0.394  0.00  0.00    +0.178 C 
BRANCH   9  10
ATOM     10  C   UNL     1       1.034  -6.148   1.051  0.00  0.00    +0.140 C 
ATOM     11  C   UNL     1       2.165  -6.951   1.730  0.00  0.00    +0.035 C 
ATOM     12  C   UNL     1       1.601  -7.169   3.160  0.00  0.00    +0.031 C 
ATOM     13  C   UNL     1       0.087  -7.307   2.862  0.00  0.00    +0.160 C 
ATOM     14  O   UNL     1      -0.170  -6.386   1.790  0.00  0.00    -0.375 OA
ENDBRANCH   9  10
ENDBRANCH   8   9
ENDBRANCH   3   4
BRANCH   3  16
ATOM     15  C   UNL     1       3.233  -3.540  -3.646  0.00  0.00    +0.002 C 
ATOM     16  C   UNL     1       1.817  -4.085  -3.444  0.00  0.00    -0.011 C 
ENDBRANCH   3  16
ENDBRANCH   1   3
BRANCH   1  17
ATOM     17  C   UNL     1       1.395  -2.442  -0.103  0.00  0.00    -0.042 C 
BRANCH  17  18
ATOM     18  C   UNL     1       2.817  -2.539   0.385  0.00  0.00    -0.064 A 
ATOM     19  C   UNL     1       3.549  -1.389   0.617  0.00  0.00    +0.002 A 
ATOM     20  C   UNL     1       4.853  -1.479   1.065  0.00  0.00    +0.003 A 
ATOM     21  C   UNL     1       5.426  -2.718   1.282  0.00  0.00    -0.050 A 
ATOM     22  C   UNL     1       4.695  -3.868   1.049  0.00  0.00    +0.003 A 
ATOM     23  C   UNL     1       3.391  -3.779   0.601  0.00  0.00    +0.002 A 
ATOM     24  C   UNL     1       6.848  -2.815   1.771  0.00  0.00    +0.044 C 
ENDBRANCH  17  18
ENDBRANCH   1  17
BRANCH   1  25
ATOM     25  C   UNL     1       0.179  -1.931  -2.134  0.00  0.00    -0.036 C 
BRANCH  25  26
ATOM     26  C   UNL     1       0.386  -0.439  -2.166  0.00  0.00    +0.001 A 
ATOM     27  C   UNL     1       0.894   0.148  -3.278  0.00  0.00    +0.017 A 
ATOM     28  C   UNL     1       1.083   1.600  -3.277  0.00  0.00    +0.002 A 
ATOM     29  C   UNL     1       1.604   2.262  -4.394  0.00  0.00    -0.041 A 
ATOM     30  C   UNL     1       1.767   3.618  -4.362  0.00  0.00    +0.004 A 
ATOM     31  C   UNL     1       1.422   4.345  -3.231  0.00  0.00    +0.005 A 
ATOM     32  C   UNL     1       0.907   3.713  -2.119  0.00  0.00    -0.026 A 
ATOM     33  C   UNL     1       0.732   2.333  -2.128  0.00  0.00    +0.052 A 
ATOM     34  N   UNL     1       0.219   1.676  -1.031  0.00  0.00    -0.322 N 
ATOM     35  H   UNL     1      -0.022   2.183  -0.240  0.00  0.00    +0.169 HD
ATOM     36  C   UNL     1       0.044   0.343  -1.042  0.00  0.00    +0.251 A 
ATOM     37  O   UNL     1      -0.416  -0.205  -0.056  0.00  0.00    -0.268 OA
ATOM     38  C   UNL     1       0.536   4.515  -0.898  0.00  0.00    +0.046 C 
ATOM     39  C   UNL     1       1.981   1.483  -5.628  0.00  0.00    +0.044 C 
ENDBRANCH  25  26
ENDBRANCH   1  25
TORSDOF 9
