REMARK  Name = ZINC03412685
REMARK  15 active torsions:
REMARK  status: ('A' for Active; 'I' for Inactive)
REMARK    1  A    between atoms: C_1  and  C_2
REMARK    2  A    between atoms: C_2  and  O_3
REMARK    3  A    between atoms: O_3  and  C_4
REMARK    4  A    between atoms: C_4  and  C_6
REMARK    5  A    between atoms: C_7  and  C_37
REMARK    6  A    between atoms: C_11  and  N_36
REMARK    7  A    between atoms: C_13  and  C_15
REMARK    8  A    between atoms: C_15  and  N_16
REMARK    9  A    between atoms: N_16  and  C_17
REMARK   10  A    between atoms: N_16  and  S_25
REMARK   11  A    between atoms: C_20  and  O_23
REMARK   12  A    between atoms: O_23  and  C_24
REMARK   13  A    between atoms: S_25  and  C_28
REMARK   14  A    between atoms: C_30  and  C_35
REMARK   15  A    between atoms: C_33  and  C_34
REMARK                            x       y       z     vdW  Elec       q    Type
REMARK                         _______ _______ _______ _____ _____    ______ ____
ROOT
ATOM      1  N   UNL     1       2.860   8.182  -3.962  0.00  0.00    -0.196 N 
ENDROOT
BRANCH   1   2
ATOM      2  C   UNL     1       3.663   9.018  -3.178  0.00  0.00    +0.052 A 
ATOM      3  C   UNL     1       4.774   9.637  -3.736  0.00  0.00    +0.028 A 
ATOM      4  C   UNL     1       5.563  10.467  -2.963  0.00  0.00    +0.047 A 
ATOM      5  C   UNL     1       5.252  10.673  -1.627  0.00  0.00    +0.120 A 
ATOM      6  C   UNL     1       4.145  10.052  -1.068  0.00  0.00    +0.047 A 
ATOM      7  C   UNL     1       3.352   9.226  -1.841  0.00  0.00    +0.028 A 
BRANCH   5   8
ATOM      8  O   UNL     1       6.032  11.486  -0.866  0.00  0.00    -0.495 OA
ATOM      9  C   UNL     1       7.156  12.093  -1.507  0.00  0.00    +0.277 C 
ENDBRANCH   5   8
ENDBRANCH   1   2
BRANCH   1  10
ATOM     10  S   UNL     1       3.496   7.437  -5.297  0.00  0.00    +0.075 S 
ATOM     11  O   UNL     1       4.859   7.166  -5.000  0.00  0.00    -0.150 OA
ATOM     12  O   UNL     1       2.580   6.416  -5.667  0.00  0.00    -0.150 OA
BRANCH  10  13
ATOM     13  C   UNL     1       3.491   8.617  -6.605  0.00  0.00    +0.112 A 
ATOM     14  C   UNL     1       4.685   9.061  -7.141  0.00  0.00    +0.032 A 
ATOM     15  C   UNL     1       4.681   9.984  -8.170  0.00  0.00    -0.049 A 
ATOM     16  C   UNL     1       3.482  10.471  -8.656  0.00  0.00    +0.004 A 
ATOM     17  C   UNL     1       2.287  10.031  -8.117  0.00  0.00    +0.005 A 
ATOM     18  C   UNL     1       2.292   9.104  -7.091  0.00  0.00    -0.024 A 
ATOM     19  C   UNL     1       0.990   8.625  -6.502  0.00  0.00    +0.046 C 
ATOM     20  C   UNL     1       5.983  10.463  -8.758  0.00  0.00    +0.044 C 
ENDBRANCH  10  13
ENDBRANCH   1  10
BRANCH   1  21
ATOM     21  C   UNL     1       1.457   7.965  -3.601  0.00  0.00    +0.207 C 
BRANCH  21  29
ATOM     22  C   UNL     1       1.132   3.944   0.306  0.00  0.00    +0.112 A 
ATOM     23  C   UNL     1       1.258   4.803   1.356  0.00  0.00    +0.119 A 
ATOM     24  O   UNL     1       1.390   6.056   0.901  0.00  0.00    -0.441 OA
ATOM     25  C   UNL     1       1.350   6.099  -0.442  0.00  0.00    +0.233 A 
ATOM     26  C   UNL     1       1.187   4.785  -0.903  0.00  0.00    +0.094 A 
ATOM     27  C   UNL     1       1.115   4.553  -2.280  0.00  0.00    +0.132 A 
ATOM     28  N   UNL     1       1.206   5.597  -3.101  0.00  0.00    -0.215 NA
ATOM     29  C   UNL     1       1.360   6.819  -2.627  0.00  0.00    +0.154 A 
ATOM     30  N   UNL     1       1.431   7.078  -1.339  0.00  0.00    -0.195 NA
ATOM     31  C   UNL     1       1.252   4.404   2.809  0.00  0.00    +0.087 C 
BRANCH  27  32
ATOM     32  N   UNL     1       0.954   3.272  -2.777  0.00  0.00    -0.342 N 
ATOM     33  H   UNL     1       0.889   2.520  -2.168  0.00  0.00    +0.144 HD
ATOM     34  H   UNL     1       0.906   3.126  -3.735  0.00  0.00    +0.144 HD
ENDBRANCH  27  32
BRANCH  22  35
ATOM     35  C   UNL     1       0.970   2.485   0.368  0.00  0.00    +0.343 C 
ATOM     36  O   UNL     1       1.948   1.763   0.358  0.00  0.00    -0.245 OA
BRANCH  35  37
ATOM     37  O   UNL     1      -0.264   1.946   0.434  0.00  0.00    -0.461 OA
BRANCH  37  39
ATOM     38  C   UNL     1      -1.818   0.075   0.563  0.00  0.00    +0.048 C 
ATOM     39  C   UNL     1      -0.349   0.498   0.492  0.00  0.00    +0.229 C 
ENDBRANCH  37  39
ENDBRANCH  35  37
ENDBRANCH  22  35
ENDBRANCH  21  29
ENDBRANCH   1  21
TORSDOF 10
