REMARK  Name = ZINC33388793
REMARK  11 active torsions:
REMARK  status: ('A' for Active; 'I' for Inactive)
REMARK    1  A    between atoms: C_1  and  C_2
REMARK    2  A    between atoms: C_2  and  C_30
REMARK    3  A    between atoms: C_5  and  C_26
REMARK    4  A    between atoms: C_6  and  N_13
REMARK    5  A    between atoms: C_9  and  C_11
REMARK    6  A    between atoms: C_9  and  C_12
REMARK    7  A    between atoms: C_14  and  C_16
REMARK    8  A    between atoms: C_17  and  C_18
REMARK    9  A    between atoms: C_21  and  N_23
REMARK   10  A    between atoms: C_26  and  O_28
REMARK   11  A    between atoms: O_28  and  C_29
REMARK                            x       y       z     vdW  Elec       q    Type
REMARK                         _______ _______ _______ _____ _____    ______ ____
ROOT
ATOM      1  C   UNL     1      -3.702  -0.574   0.728  0.00  0.00    -0.010 C 
ATOM      2  C   UNL     1      -2.327   0.117   0.798  0.00  0.00    -0.069 C 
ATOM      3  C   UNL     1      -1.327  -0.748   0.023  0.00  0.00    +0.024 C 
ATOM      4  C   UNL     1       0.002  -0.004   0.002  0.00  0.00    -0.024 A 
ATOM      5  C   UNL     1       1.316  -0.611  -0.021  0.00  0.00    +0.091 A 
ATOM      6  C   UNL     1       2.414   0.245  -0.026  0.00  0.00    +0.086 A 
ATOM      7  S   UNL     1       1.689   1.819  -0.004  0.00  0.00    -0.079 S 
ATOM      8  C   UNL     1      -0.016   1.349   0.009  0.00  0.00    -0.016 A 
ATOM      9  C   UNL     1      -1.229   2.221   0.018  0.00  0.00    -0.041 C 
ATOM     10  N   UNL     1      -2.449   1.451   0.233  0.00  0.00    +0.389 N 
ATOM     11  C   UNL     1      -1.077   3.294   1.105  0.00  0.00    -0.005 C 
ATOM     12  C   UNL     1      -1.322   2.935  -1.345  0.00  0.00    -0.005 C 
ATOM     13  C   UNL     1      -1.907   0.180   2.270  0.00  0.00    -0.010 C 
ATOM     14  H   UNL     1      -2.924   1.387  -0.757  0.00  0.00    -0.084 HD
ATOM     15  H   UNL     1      -3.066   2.075   0.896  0.00  0.00    -0.084 HD
ENDROOT
BRANCH   6  16
ATOM     16  N   UNL     1       3.758  -0.084  -0.045  0.00  0.00    -0.276 N 
ATOM     17  C   UNL     1       4.690   0.889  -0.047  0.00  0.00    +0.241 C 
ATOM     18  O   UNL     1       4.349   2.058  -0.032  0.00  0.00    -0.270 OA
ATOM     19  H   UNL     1       4.066  -1.140  -0.059  0.00  0.00    +0.156 HD
BRANCH  17  20
ATOM     20  C   UNL     1       6.063   0.553  -0.067  0.00  0.00    +0.068 C 
ATOM     21  C   UNL     1       7.002   1.534  -0.069  0.00  0.00    +0.020 C 
BRANCH  21  22
ATOM     22  C   UNL     1       8.377   1.197  -0.088  0.00  0.00    +0.015 A 
ATOM     23  C   UNL     1       9.484   2.037  -0.100  0.00  0.00    +0.018 A 
ATOM     24  C   UNL     1      10.719   1.439  -0.114  0.00  0.00    +0.041 A 
ATOM     25  C   UNL     1      10.800   0.082  -0.128  0.00  0.00    +0.164 A 
ATOM     26  S   UNL     1       9.140  -0.415  -0.113  0.00  0.00    -0.065 S 
BRANCH  25  27
ATOM     27  N   UNL     1      12.014  -0.766  -0.151  0.00  0.00    +0.063 N 
ATOM     28  O   UNL     1      13.117  -0.250  -0.158  0.00  0.00    -0.126 OA
ATOM     29  O   UNL     1      11.908  -1.979  -0.162  0.00  0.00    -0.126 OA
ENDBRANCH  25  27
ENDBRANCH  21  22
ENDBRANCH  17  20
ENDBRANCH   6  16
BRANCH   5  30
ATOM     30  C   UNL     1       1.497  -2.064  -0.041  0.00  0.00    +0.342 C 
ATOM     31  O   UNL     1       1.560  -2.655  -1.103  0.00  0.00    -0.245 OA
BRANCH  30  32
ATOM     32  O   UNL     1       1.594  -2.748   1.118  0.00  0.00    -0.464 OA
ATOM     33  C   UNL     1       1.772  -4.186   1.022  0.00  0.00    +0.280 C 
ENDBRANCH  30  32
ENDBRANCH   5  30
TORSDOF 6
