REMARK  Name = ZINC39467409
REMARK  5 active torsions:
REMARK  status: ('A' for Active; 'I' for Inactive)
REMARK    1  A    between atoms: C_4  and  O_7
REMARK    2  A    between atoms: O_7  and  S_8
REMARK    3  A    between atoms: S_8  and  C_11
REMARK    4  A    between atoms: P_27  and  C_30
REMARK    5  A    between atoms: C_35  and  O_36
REMARK                            x       y       z     vdW  Elec       q    Type
REMARK                         _______ _______ _______ _____ _____    ______ ____
ROOT
ATOM      1  C   UNL     1       3.071  -2.384   1.880  0.00  0.00    +0.142 C 
ATOM      2  C   UNL     1       3.652  -3.562   2.105  0.00  0.00    +0.007 C 
ATOM      3  C   UNL     1       2.799  -4.716   2.552  0.00  0.00    +0.006 C 
ATOM      4  C   UNL     1       3.618  -5.775   3.281  0.00  0.00    -0.046 C 
ATOM      5  N   UNL     1       2.749  -6.903   3.661  0.00  0.00    +0.398 N 
ATOM      6  C   UNL     1       1.669  -6.472   4.546  0.00  0.00    -0.020 C 
ATOM      7  C   UNL     1       0.826  -5.366   3.895  0.00  0.00    -0.003 C 
ATOM      8  C   UNL     1       1.730  -4.196   3.523  0.00  0.00    +0.017 C 
ATOM      9  C   UNL     1       0.958  -3.095   2.848  0.00  0.00    -0.001 C 
ATOM     10  C   UNL     1       1.615  -2.239   2.066  0.00  0.00    +0.065 C 
ATOM     11 CL   UNL     1       0.757  -0.961   1.265  0.00  0.00    -0.082 Cl
ATOM     12  C   UNL     1       0.707  -7.625   4.861  0.00  0.00    +0.157 C 
ATOM     13  O   UNL     1       1.423  -8.669   5.547  0.00  0.00    -0.316 OA
ATOM     14  P   UNL     1       2.818  -9.188   4.890  0.00  0.00    +0.291 P 
ATOM     15  O   UNL     1       2.545 -10.147   3.797  0.00  0.00    -0.269 OA
ATOM     16  N   UNL     1       3.560  -7.817   4.301  0.00  0.00    -0.288 NA
ATOM     17  H   UNL     1       4.515  -7.669   4.385  0.00  0.00    +0.111 HD
ATOM     18  H   UNL     1       2.359  -7.322   2.830  0.00  0.00    -0.055 HD
ENDROOT
BRANCH  14  19
ATOM     19  C   UNL     1       3.860  -9.961   6.157  0.00  0.00    +0.091 A 
ATOM     20  C   UNL     1       4.757  -9.195   6.877  0.00  0.00    +0.018 A 
ATOM     21  C   UNL     1       5.551  -9.784   7.843  0.00  0.00    +0.001 A 
ATOM     22  C   UNL     1       5.451 -11.141   8.091  0.00  0.00    +0.004 A 
ATOM     23  C   UNL     1       4.556 -11.911   7.375  0.00  0.00    +0.046 A 
ATOM     24  C   UNL     1       3.753 -11.321   6.409  0.00  0.00    +0.131 A 
BRANCH  24  25
ATOM     25  O   UNL     1       2.867 -12.076   5.707  0.00  0.00    -0.506 OA
ATOM     26  H   UNL     1       3.231 -12.455   4.895  0.00  0.00    +0.292 HD
ENDBRANCH  24  25
ENDBRANCH  14  19
BRANCH   1  27
ATOM     27  S   UNL     1       4.038  -1.003   1.368  0.00  0.00    +0.152 S 
ATOM     28  O   UNL     1       5.394  -1.430   1.380  0.00  0.00    -0.131 OA
ATOM     29  O   UNL     1       3.584   0.113   2.122  0.00  0.00    -0.131 OA
BRANCH  27  30
ATOM     30  O   UNL     1       3.685  -0.719  -0.085  0.00  0.00    -0.342 OA
BRANCH  30  34
ATOM     31  C   UNL     1       5.305  -3.407  -2.763  0.00  0.00    +0.000 A 
ATOM     32  C   UNL     1       4.066  -3.655  -2.200  0.00  0.00    +0.004 A 
ATOM     33  C   UNL     1       3.522  -2.756  -1.303  0.00  0.00    +0.048 A 
ATOM     34  C   UNL     1       4.219  -1.605  -0.967  0.00  0.00    +0.157 A 
ATOM     35  C   UNL     1       5.461  -1.359  -1.532  0.00  0.00    +0.048 A 
ATOM     36  C   UNL     1       6.001  -2.261  -2.429  0.00  0.00    +0.004 A 
ENDBRANCH  30  34
ENDBRANCH  27  30
ENDBRANCH   1  27
TORSDOF 5
