REMARK  Name = ZINC31583802
REMARK  5 active torsions:
REMARK  status: ('A' for Active; 'I' for Inactive)
REMARK    1  A    between atoms: C_1  and  N_2
REMARK    2  A    between atoms: C_9  and  N_18
REMARK    3  A    between atoms: N_18  and  S_19
REMARK    4  A    between atoms: S_19  and  C_22
REMARK    5  A    between atoms: C_27  and  C_28
REMARK                            x       y       z     vdW  Elec       q    Type
REMARK                         _______ _______ _______ _____ _____    ______ ____
ROOT
ATOM      1  C   UNL     1      -2.894  -3.767   2.576  0.00  0.00    -0.096 C 
ATOM      2  N   UNL     1      -1.773  -3.531   1.657  0.00  0.00    +0.378 N 
ATOM      3  C   UNL     1      -1.122  -2.246   1.939  0.00  0.00    -0.075 C 
ATOM      4  C   UNL     1       0.125  -2.100   1.064  0.00  0.00    +0.029 C 
ATOM      5  C   UNL     1      -0.278  -2.181  -0.409  0.00  0.00    +0.109 C 
ATOM      6  C   UNL     1      -1.000  -3.505  -0.668  0.00  0.00    +0.029 C 
ATOM      7  C   UNL     1      -2.215  -3.607   0.258  0.00  0.00    -0.075 C 
ATOM      8  C   UNL     1       0.975  -2.102  -1.288  0.00  0.00    +0.073 C 
ATOM      9  C   UNL     1       1.733  -0.820  -0.935  0.00  0.00    +0.114 C 
ATOM     10  C   UNL     1       0.775   0.344  -0.910  0.00  0.00    +0.013 A 
ATOM     11  C   UNL     1       1.286   1.629  -0.990  0.00  0.00    +0.009 A 
ATOM     12  C   UNL     1       0.438   2.719  -0.967  0.00  0.00    +0.001 A 
ATOM     13  C   UNL     1      -0.928   2.530  -0.865  0.00  0.00    +0.004 A 
ATOM     14  C   UNL     1      -1.443   1.252  -0.787  0.00  0.00    +0.046 A 
ATOM     15  C   UNL     1      -0.592   0.152  -0.811  0.00  0.00    +0.126 A 
ATOM     16  O   UNL     1      -1.137  -1.090  -0.738  0.00  0.00    -0.485 OA
ATOM     17  H   UNL     1      -1.030  -4.326   1.817  0.00  0.00    -0.082 HD
ENDROOT
BRANCH   9  18
ATOM     18  N   UNL     1       2.772  -0.576  -1.938  0.00  0.00    -0.182 NA
ATOM     19  H   UNL     1       2.514  -0.572  -3.008  0.00  0.00    +0.149 HD
BRANCH  18  20
ATOM     20  S   UNL     1       4.366  -0.551  -1.490  0.00  0.00    +0.059 S 
ATOM     21  O   UNL     1       5.119  -0.350  -2.678  0.00  0.00    -0.153 OA
ATOM     22  O   UNL     1       4.460   0.321  -0.372  0.00  0.00    -0.153 OA
BRANCH  20  23
ATOM     23  C   UNL     1       4.768  -2.164  -0.905  0.00  0.00    +0.117 A 
ATOM     24  C   UNL     1       5.147  -2.347   0.411  0.00  0.00    +0.029 A 
ATOM     25  C   UNL     1       5.458  -3.613   0.871  0.00  0.00    +0.002 A 
ATOM     26  C   UNL     1       5.399  -4.694   0.011  0.00  0.00    +0.001 A 
ATOM     27  C   UNL     1       5.025  -4.510  -1.306  0.00  0.00    +0.014 A 
ATOM     28  C   UNL     1       4.709  -3.245  -1.765  0.00  0.00    +0.081 A 
BRANCH  28  29
ATOM     29  C   UNL     1       4.302  -3.044  -3.202  0.00  0.00    +0.419 C 
ATOM     30  F   UNL     1       4.181  -4.288  -3.830  0.00  0.00    -0.166 F 
ATOM     31  F   UNL     1       3.073  -2.376  -3.249  0.00  0.00    -0.166 F 
ATOM     32  F   UNL     1       5.272  -2.281  -3.860  0.00  0.00    -0.166 F 
ENDBRANCH  28  29
ENDBRANCH  20  23
ENDBRANCH  18  20
ENDBRANCH   9  18
TORSDOF 4
