REMARK  Name = ZINC39636568
REMARK  7 active torsions:
REMARK  status: ('A' for Active; 'I' for Inactive)
REMARK    1  A    between atoms: C_1  and  C_2
REMARK    2  A    between atoms: C_5  and  C_34
REMARK    3  A    between atoms: C_6  and  C_8
REMARK    4  A    between atoms: C_8  and  N_9
REMARK    5  A    between atoms: C_10  and  C_12
REMARK    6  A    between atoms: C_23  and  C_25
REMARK    7  A    between atoms: C_29  and  C_32
REMARK                            x       y       z     vdW  Elec       q    Type
REMARK                         _______ _______ _______ _____ _____    ______ ____
ROOT
ATOM      1  C   UNL     1       3.085  -4.431   4.205  0.00  0.00    +0.100 C 
ATOM      2  C   UNL     1       4.035  -3.214   4.273  0.00  0.00    +0.121 C 
ATOM      3  N   UNL     1       4.101  -2.871   5.713  0.00  0.00    -0.296 N 
ATOM      4  C   UNL     1       4.135  -4.183   6.403  0.00  0.00    +0.115 C 
ATOM      5  C   UNL     1       3.156  -5.066   5.604  0.00  0.00    -0.004 C 
ATOM      6  C   UNL     1       3.689  -6.493   5.510  0.00  0.00    -0.010 C 
ATOM      7  C   UNL     1       3.695  -7.123   6.906  0.00  0.00    -0.082 C 
ATOM      8  N   UNL     1       2.332  -7.123   7.451  0.00  0.00    +0.379 N 
ATOM      9  C   UNL     1       1.863  -5.743   7.625  0.00  0.00    -0.082 C 
ATOM     10  C   UNL     1       1.779  -5.054   6.260  0.00  0.00    -0.010 C 
ATOM     11  C   UNL     1       4.126  -1.644   6.269  0.00  0.00    +0.252 C 
ATOM     12  O   UNL     1       4.183  -1.525   7.478  0.00  0.00    -0.270 OA
ATOM     13  H   UNL     1       1.717  -7.609   6.816  0.00  0.00    -0.086 HD
ATOM     14  H   UNL     1       2.329  -7.593   8.344  0.00  0.00    -0.086 HD
ENDROOT
BRANCH  11  15
ATOM     15  C   UNL     1       4.085  -0.444   5.412  0.00  0.00    +0.107 A 
ATOM     16  C   UNL     1       2.858   0.131   5.064  0.00  0.00    +0.138 A 
ATOM     17  C   UNL     1       2.829   1.255   4.260  0.00  0.00    +0.039 A 
ATOM     18  C   UNL     1       4.009   1.812   3.800  0.00  0.00    +0.009 A 
ATOM     19  C   UNL     1       5.226   1.250   4.139  0.00  0.00    -0.014 A 
ATOM     20  C   UNL     1       5.274   0.129   4.947  0.00  0.00    +0.141 A 
ATOM     21  F   UNL     1       6.464  -0.415   5.281  0.00  0.00    -0.204 F 
ATOM     22  C   UNL     1       6.505   1.865   3.631  0.00  0.00    +0.047 C 
ATOM     23  F   UNL     1       1.705  -0.412   5.511  0.00  0.00    -0.205 F 
ENDBRANCH  11  15
BRANCH   1  25
ATOM     24  N   UNL     1       0.835  -4.806   3.249  0.00  0.00    -0.311 N 
ATOM     25  C   UNL     1       1.679  -3.983   3.903  0.00  0.00    +0.218 C 
ATOM     26  O   UNL     1       1.306  -2.881   4.248  0.00  0.00    -0.275 OA
ATOM     27  H   UNL     1       1.133  -5.687   2.974  0.00  0.00    +0.149 HD
BRANCH  24  28
ATOM     28  C   UNL     1      -0.533  -4.370   2.956  0.00  0.00    +0.139 C 
BRANCH  28  34
ATOM     29  C   UNL     1      -2.233  -6.341  -1.318  0.00  0.00    +0.044 C 
ATOM     30  C   UNL     1      -2.077  -6.409   0.179  0.00  0.00    -0.050 A 
ATOM     31  C   UNL     1      -2.604  -7.477   0.881  0.00  0.00    +0.003 A 
ATOM     32  C   UNL     1      -2.462  -7.539   2.255  0.00  0.00    +0.004 A 
ATOM     33  C   UNL     1      -1.791  -6.533   2.926  0.00  0.00    -0.046 A 
ATOM     34  C   UNL     1      -1.263  -5.466   2.224  0.00  0.00    -0.027 A 
ATOM     35  C   UNL     1      -1.403  -5.406   0.850  0.00  0.00    +0.008 A 
ATOM     36  C   UNL     1      -1.636  -6.601   4.424  0.00  0.00    +0.044 C 
ENDBRANCH  28  34
ENDBRANCH  24  28
ENDBRANCH   1  25
TORSDOF 4
