REMARK  Name = ZINC12717111
REMARK  7 active torsions:
REMARK  status: ('A' for Active; 'I' for Inactive)
REMARK    1  A    between atoms: C_1  and  C_2
REMARK    2  A    between atoms: C_7  and  C_15
REMARK    3  A    between atoms: C_13  and  C_14
REMARK    4  A    between atoms: C_15  and  C_17
REMARK    5  A    between atoms: C_15  and  N_66
REMARK    6  A    between atoms: N_21  and  C_22
REMARK    7  A    between atoms: C_31  and  C_34
REMARK                            x       y       z     vdW  Elec       q    Type
REMARK                         _______ _______ _______ _____ _____    ______ ____
ROOT
ATOM      1  C   UNL     1       4.873   4.287  -0.022  0.00  0.00    +0.039 C 
ENDROOT
BRANCH   1   8
ATOM      2  C   UNL     1      -1.297  -0.767   0.010  0.00  0.00    +0.044 C 
ATOM      3  C   UNL     1       0.002  -0.004   0.002  0.00  0.00    -0.046 A 
ATOM      4  C   UNL     1       1.205  -0.697  -0.013  0.00  0.00    +0.004 A 
ATOM      5  C   UNL     1       2.394  -0.024  -0.020  0.00  0.00    +0.010 A 
ATOM      6  C   UNL     1       2.400   1.375  -0.013  0.00  0.00    -0.001 A 
ATOM      7  C   UNL     1       3.656   2.127  -0.022  0.00  0.00    +0.017 A 
ATOM      8  C   UNL     1       3.599   3.482  -0.014  0.00  0.00    +0.011 A 
ATOM      9  C   UNL     1       2.351   4.141   0.001  0.00  0.00    +0.251 A 
ATOM     10  O   UNL     1       2.323   5.360   0.009  0.00  0.00    -0.268 OA
ATOM     11  N   UNL     1       1.193   3.459   0.009  0.00  0.00    -0.322 N 
ATOM     12  H   UNL     1       0.353   3.944   0.019  0.00  0.00    +0.169 HD
ATOM     13  C   UNL     1       1.182   2.080   0.002  0.00  0.00    +0.052 A 
ATOM     14  C   UNL     1      -0.017   1.374   0.010  0.00  0.00    -0.024 A 
ATOM     15  C   UNL     1      -1.330   2.112   0.020  0.00  0.00    +0.046 C 
ENDBRANCH   1   8
BRANCH   1  22
ATOM     16  C   UNL     1       4.691   4.492   2.383  0.00  0.00    -0.077 C 
ATOM     17  C   UNL     1       4.551   5.497   3.529  0.00  0.00    -0.018 C 
ATOM     18  C   UNL     1       5.809   6.368   3.594  0.00  0.00    -0.001 C 
ATOM     19  C   UNL     1       6.003   7.071   2.248  0.00  0.00    -0.031 C 
ATOM     20  C   UNL     1       6.101   6.021   1.139  0.00  0.00    -0.074 C 
ATOM     21  C   UNL     1       7.290   7.897   2.284  0.00  0.00    +0.005 C 
ATOM     22  N   UNL     1       4.851   5.232   1.113  0.00  0.00    +0.389 N 
ATOM     23  H   UNL     1       4.056   5.872   0.999  0.00  0.00    -0.080 HD
ENDBRANCH   1  22
BRANCH   1  24
ATOM     24  C   UNL     1       4.965   5.070  -1.306  0.00  0.00    +0.143 A 
ATOM     25  N   UNL     1       4.288   6.148  -1.616  0.00  0.00    -0.115 NA
ATOM     26  N   UNL     1       4.647   6.519  -2.796  0.00  0.00    -0.023 NA
ATOM     27  N   UNL     1       5.536   5.705  -3.248  0.00  0.00    -0.044 NA
ATOM     28  N   UNL     1       5.763   4.800  -2.356  0.00  0.00    -0.227 N 
BRANCH  28  29
ATOM     29  C   UNL     1       6.709   3.687  -2.467  0.00  0.00    +0.111 C 
ATOM     30  C   UNL     1       8.123   4.237  -2.666  0.00  0.00    +0.027 C 
ATOM     31  C   UNL     1       9.111   3.075  -2.782  0.00  0.00    +0.002 C 
ATOM     32  C   UNL     1       8.731   2.200  -3.978  0.00  0.00    +0.000 C 
ATOM     33  C   UNL     1       7.317   1.650  -3.780  0.00  0.00    +0.002 C 
ATOM     34  C   UNL     1       6.329   2.812  -3.664  0.00  0.00    +0.027 C 
ENDBRANCH  28  29
ENDBRANCH   1  24
TORSDOF 4
