REMARK  Name = ZINC06283097
REMARK  12 active torsions:
REMARK  status: ('A' for Active; 'I' for Inactive)
REMARK    1  A    between atoms: C_1  and  C_2
REMARK    2  A    between atoms: C_2  and  C_4
REMARK    3  A    between atoms: C_2  and  N_10
REMARK    4  A    between atoms: N_10  and  C_11
REMARK    5  A    between atoms: C_11  and  N_13
REMARK    6  A    between atoms: N_13  and  C_14
REMARK    7  A    between atoms: N_13  and  C_18
REMARK    8  A    between atoms: C_14  and  C_15
REMARK    9  A    between atoms: C_15  and  N_63
REMARK   10  A    between atoms: C_16  and  N_63
REMARK   11  A    between atoms: C_17  and  N_63
REMARK   12  A    between atoms: C_18  and  C_19
REMARK                            x       y       z     vdW  Elec       q    Type
REMARK                         _______ _______ _______ _____ _____    ______ ____
ROOT
ATOM      1  N   UNL     1       1.077   2.276  -0.004  0.00  0.00    -0.310 N 
ENDROOT
BRANCH   1   2
ATOM      2  C   UNL     1       0.011   1.490  -0.255  0.00  0.00    +0.134 C 
ATOM      3  S   UNL     1       0.234  -0.174  -0.587  0.00  0.00    -0.019 S 
BRANCH   2   4
ATOM      4  N   UNL     1      -1.230   2.017  -0.251  0.00  0.00    -0.320 N 
ATOM      5  H   UNL     1      -1.356   2.960  -0.063  0.00  0.00    +0.148 HD
BRANCH   4   7
ATOM      6  C   UNL     1      -2.835   0.473   0.759  0.00  0.00    +0.033 C 
ATOM      7  C   UNL     1      -2.388   1.164  -0.530  0.00  0.00    +0.099 C 
BRANCH   7   8
ATOM      8  C   UNL     1      -3.516   2.008  -1.065  0.00  0.00    -0.028 A 
ATOM      9  C   UNL     1      -3.766   3.253  -0.519  0.00  0.00    +0.005 A 
ATOM     10  C   UNL     1      -4.798   4.029  -1.012  0.00  0.00    +0.000 A 
ATOM     11  C   UNL     1      -5.586   3.557  -2.046  0.00  0.00    +0.000 A 
ATOM     12  C   UNL     1      -5.338   2.310  -2.588  0.00  0.00    +0.000 A 
ATOM     13  C   UNL     1      -4.304   1.535  -2.098  0.00  0.00    +0.005 A 
ENDBRANCH   7   8
ENDBRANCH   4   7
ENDBRANCH   2   4
ENDBRANCH   1   2
BRANCH   1  14
ATOM     14  C   UNL     1       0.898   3.720   0.168  0.00  0.00    +0.088 C 
BRANCH  14  15
ATOM     15  C   UNL     1       0.643   4.031   1.644  0.00  0.00    -0.060 C 
BRANCH  15  18
ATOM     16  C   UNL     1      -0.758   5.942   1.144  0.00  0.00    -0.097 C 
ATOM     17  C   UNL     1       0.454   5.843   3.238  0.00  0.00    -0.097 C 
ATOM     18  N   UNL     1       0.487   5.492   1.803  0.00  0.00    +0.377 N 
ATOM     19  H   UNL     1       1.286   5.963   1.363  0.00  0.00    -0.083 HD
ENDBRANCH  15  18
ENDBRANCH  14  15
ENDBRANCH   1  14
BRANCH   1  20
ATOM     20  C   UNL     1       2.414   1.686   0.099  0.00  0.00    +0.147 C 
BRANCH  20  21
ATOM     21  C   UNL     1       2.741   1.432   1.548  0.00  0.00    +0.035 A 
ATOM     22  C   UNL     1       2.496   0.214   2.093  0.00  0.00    +0.020 A 
ATOM     23  C   UNL     1       2.830  -0.002   3.500  0.00  0.00    +0.003 A 
ATOM     24  C   UNL     1       2.603  -1.240   4.115  0.00  0.00    +0.059 A 
ATOM     25  C   UNL     1       2.923  -1.413   5.445  0.00  0.00    +0.163 A 
ATOM     26  C   UNL     1       3.474  -0.358   6.179  0.00  0.00    +0.164 A 
ATOM     27  C   UNL     1       3.701   0.869   5.580  0.00  0.00    +0.075 A 
ATOM     28  C   UNL     1       3.383   1.060   4.242  0.00  0.00    +0.053 A 
ATOM     29  N   UNL     1       3.603   2.276   3.628  0.00  0.00    -0.322 N 
ATOM     30  H   UNL     1       3.983   3.008   4.139  0.00  0.00    +0.169 HD
ATOM     31  C   UNL     1       3.297   2.463   2.333  0.00  0.00    +0.254 A 
ATOM     32  O   UNL     1       3.504   3.551   1.824  0.00  0.00    -0.268 OA
ATOM     33  O   UNL     1       3.797  -0.522   7.491  0.00  0.00    -0.485 OA
ATOM     34  C   UNL     1       3.213  -1.643   8.163  0.00  0.00    +0.270 C 
ATOM     35  C   UNL     1       3.369  -2.877   7.265  0.00  0.00    +0.270 C 
ATOM     36  O   UNL     1       2.693  -2.621   6.030  0.00  0.00    -0.485 OA
ENDBRANCH  20  21
ENDBRANCH   1  20
TORSDOF 9
