REMARK  Name = ZINC12635557
REMARK  12 active torsions:
REMARK  status: ('A' for Active; 'I' for Inactive)
REMARK    1  A    between atoms: C_1  and  C_2
REMARK    2  A    between atoms: C_2  and  N_67
REMARK    3  A    between atoms: C_6  and  C_8
REMARK    4  A    between atoms: C_8  and  N_9
REMARK    5  A    between atoms: N_9  and  C_10
REMARK    6  A    between atoms: N_9  and  C_25
REMARK    7  A    between atoms: C_10  and  C_11
REMARK    8  A    between atoms: C_16  and  C_24
REMARK    9  A    between atoms: C_17  and  C_23
REMARK   10  A    between atoms: C_25  and  N_27
REMARK   11  A    between atoms: N_27  and  C_28
REMARK   12  A    between atoms: C_32  and  C_34
REMARK                            x       y       z     vdW  Elec       q    Type
REMARK                         _______ _______ _______ _____ _____    ______ ____
ROOT
ATOM      1  N   UNL     1      -3.026   3.760  -1.200  0.00  0.00    -0.309 N 
ENDROOT
BRANCH   1   2
ATOM      2  C   UNL     1      -3.759   2.688  -1.561  0.00  0.00    +0.137 C 
ATOM      3  S   UNL     1      -3.899   1.350  -0.502  0.00  0.00    -0.018 S 
BRANCH   2   4
ATOM      4  N   UNL     1      -4.381   2.668  -2.757  0.00  0.00    -0.297 N 
ATOM      5  H   UNL     1      -4.253   3.399  -3.382  0.00  0.00    +0.154 HD
BRANCH   4   6
ATOM      6  C   UNL     1      -5.210   1.594  -3.097  0.00  0.00    +0.033 A 
ATOM      7  C   UNL     1      -6.442   1.828  -3.695  0.00  0.00    +0.023 A 
ATOM      8  C   UNL     1      -7.258   0.766  -4.030  0.00  0.00    +0.002 A 
ATOM      9  C   UNL     1      -6.850  -0.530  -3.770  0.00  0.00    +0.003 A 
ATOM     10  C   UNL     1      -5.625  -0.766  -3.175  0.00  0.00    -0.049 A 
ATOM     11  C   UNL     1      -4.801   0.292  -2.842  0.00  0.00    +0.026 A 
ATOM     12  C   UNL     1      -5.185  -2.180  -2.894  0.00  0.00    +0.044 C 
ENDBRANCH   4   6
ENDBRANCH   2   4
ENDBRANCH   1   2
BRANCH   1  13
ATOM     13  C   UNL     1      -2.991   4.946  -2.059  0.00  0.00    +0.092 C 
BRANCH  13  17
ATOM     14  C   UNL     1       0.353   5.232  -3.469  0.00  0.00    -0.078 C 
ATOM     15  C   UNL     1      -0.409   6.503  -3.920  0.00  0.00    -0.020 C 
ATOM     16  C   UNL     1      -1.868   6.007  -4.042  0.00  0.00    -0.016 C 
ATOM     17  C   UNL     1      -1.940   4.750  -3.154  0.00  0.00    -0.051 C 
ATOM     18  N   UNL     1      -0.613   4.591  -2.561  0.00  0.00    +0.382 N 
ATOM     19  H   UNL     1      -0.586   5.052  -1.644  0.00  0.00    -0.081 HD
BRANCH  18  21
ATOM     20  C   UNL     1       1.137   2.989  -1.855  0.00  0.00    -0.017 C 
ATOM     21  C   UNL     1      -0.289   3.141  -2.389  0.00  0.00    -0.082 C 
ENDBRANCH  18  21
ENDBRANCH  13  17
ENDBRANCH   1  13
BRANCH   1  22
ATOM     22  C   UNL     1      -2.266   3.739   0.052  0.00  0.00    +0.147 C 
BRANCH  22  23
ATOM     23  C   UNL     1      -3.134   4.246   1.175  0.00  0.00    +0.035 A 
ATOM     24  C   UNL     1      -3.787   3.367   1.974  0.00  0.00    +0.020 A 
ATOM     25  C   UNL     1      -4.622   3.893   3.057  0.00  0.00    -0.001 A 
ATOM     26  C   UNL     1      -5.321   3.035   3.913  0.00  0.00    +0.010 A 
ATOM     27  C   UNL     1      -6.091   3.557   4.913  0.00  0.00    +0.004 A 
ATOM     28  C   UNL     1      -6.186   4.931   5.087  0.00  0.00    -0.046 A 
ATOM     29  C   UNL     1      -5.507   5.795   4.255  0.00  0.00    -0.024 A 
ATOM     30  C   UNL     1      -4.717   5.286   3.230  0.00  0.00    +0.052 A 
ATOM     31  N   UNL     1      -4.027   6.127   2.382  0.00  0.00    -0.322 N 
ATOM     32  H   UNL     1      -4.094   7.087   2.503  0.00  0.00    +0.169 HD
ATOM     33  C   UNL     1      -3.268   5.635   1.387  0.00  0.00    +0.254 A 
ATOM     34  O   UNL     1      -2.676   6.408   0.654  0.00  0.00    -0.268 OA
ATOM     35  C   UNL     1      -5.620   7.284   4.456  0.00  0.00    +0.046 C 
ATOM     36  C   UNL     1      -7.042   5.484   6.198  0.00  0.00    +0.044 C 
ENDBRANCH  22  23
ENDBRANCH   1  22
TORSDOF 8
