REMARK  Name = ZINC48456775
REMARK  7 active torsions:
REMARK  status: ('A' for Active; 'I' for Inactive)
REMARK    1  A    between atoms: C_1  and  C_2
REMARK    2  A    between atoms: C_5  and  N_12
REMARK    3  A    between atoms: C_8  and  C_10
REMARK    4  A    between atoms: C_8  and  C_11
REMARK    5  A    between atoms: C_13  and  C_15
REMARK    6  A    between atoms: C_15  and  S_16
REMARK    7  A    between atoms: S_16  and  C_17
REMARK                            x       y       z     vdW  Elec       q    Type
REMARK                         _______ _______ _______ _____ _____    ______ ____
ROOT
ATOM      1  N   UNL     1       1.425  -2.500  -2.470  0.00  0.00    -0.312 N 
ATOM      2  C   UNL     1       0.743  -2.631  -3.626  0.00  0.00    +0.224 C 
ATOM      3  O   UNL     1      -0.438  -2.359  -3.667  0.00  0.00    -0.275 OA
ATOM      4  H   UNL     1       2.369  -2.718  -2.437  0.00  0.00    +0.149 HD
ENDROOT
BRANCH   1   8
ATOM      5  C   UNL     1      -0.019   1.526   0.010  0.00  0.00    +0.007 C 
ATOM      6  C   UNL     1       0.002  -0.004   0.002  0.00  0.00    -0.012 C 
ATOM      7  C   UNL     1       0.718  -0.497  -1.257  0.00  0.00    +0.025 C 
ATOM      8  C   UNL     1       0.739  -2.027  -1.265  0.00  0.00    +0.074 C 
ATOM      9  C   UNL     1       1.479  -2.534  -0.026  0.00  0.00    +0.028 C 
ATOM     10  C   UNL     1       0.763  -2.041   1.233  0.00  0.00    -0.033 C 
ATOM     11  C   UNL     1       0.742  -0.511   1.242  0.00  0.00    +0.009 C 
ATOM     12  C   UNL     1       1.503  -2.548   2.473  0.00  0.00    +0.011 C 
ATOM     13  C   UNL     1      -0.673  -2.570   1.244  0.00  0.00    +0.011 C 
ENDBRANCH   1   8
BRANCH   2  14
ATOM     14  C   UNL     1       1.448  -3.117  -4.866  0.00  0.00    +0.173 C 
BRANCH  14  15
ATOM     15  S   UNL     1       0.271  -3.187  -6.244  0.00  0.00    -0.075 S 
BRANCH  15  16
ATOM     16  C   UNL     1       1.235  -3.765  -7.600  0.00  0.00    +0.210 A 
ATOM     17  N   UNL     1       0.783  -3.974  -8.842  0.00  0.00    -0.188 NA
ATOM     18  H   UNL     1       3.761  -4.762  -9.134  0.00  0.00    +0.192 HD
ATOM     19  C   UNL     1       1.767  -4.404  -9.604  0.00  0.00    +0.209 A 
ATOM     20  N   UNL     1       2.880  -4.477  -8.846  0.00  0.00    -0.246 N 
ATOM     21  N   UNL     1       2.513  -4.055  -7.558  0.00  0.00    -0.144 NA
ATOM     22  N   UNL     1       1.674  -4.725 -10.946  0.00  0.00    -0.328 N 
ATOM     23  H   UNL     1       0.826  -4.640 -11.408  0.00  0.00    +0.145 HD
ATOM     24  H   UNL     1       2.458  -5.036 -11.425  0.00  0.00    +0.145 HD
ENDBRANCH  15  16
ENDBRANCH  14  15
ENDBRANCH   2  14
TORSDOF 4
