REMARK  Name = ZINC34749952
REMARK  9 active torsions:
REMARK  status: ('A' for Active; 'I' for Inactive)
REMARK    1  A    between atoms: C_1  and  C_2
REMARK    2  A    between atoms: C_2  and  S_3
REMARK    3  A    between atoms: S_3  and  C_4
REMARK    4  A    between atoms: C_15  and  C_17
REMARK    5  A    between atoms: C_15  and  C_18
REMARK    6  A    between atoms: N_22  and  C_25
REMARK    7  A    between atoms: C_25  and  C_26
REMARK    8  A    between atoms: N_28  and  C_29
REMARK    9  A    between atoms: C_29  and  C_30
REMARK                            x       y       z     vdW  Elec       q    Type
REMARK                         _______ _______ _______ _____ _____    ______ ____
ROOT
ATOM      1  C   UNL     1      -0.537  -3.345  -1.389  0.00  0.00    +0.191 A 
ATOM      2  N   UNL     1       0.060  -4.057  -2.338  0.00  0.00    -0.206 NA
ATOM      3  C   UNL     1       1.330  -4.412  -2.256  0.00  0.00    +0.134 A 
ATOM      4  C   UNL     1       2.090  -4.024  -1.117  0.00  0.00    +0.051 A 
ATOM      5  C   UNL     1       3.493  -4.301  -0.812  0.00  0.00    -0.020 A 
ATOM      6  C   UNL     1       3.977  -3.813   0.350  0.00  0.00    +0.021 A 
ATOM      7  S   UNL     1       2.615  -2.967   1.099  0.00  0.00    -0.071 S 
ATOM      8  C   UNL     1       1.392  -3.271  -0.151  0.00  0.00    +0.115 A 
ATOM      9  N   UNL     1       0.122  -2.951  -0.308  0.00  0.00    -0.215 NA
ATOM     10  C   UNL     1       5.374  -3.975   0.864  0.00  0.00    +0.203 C 
ATOM     11  O   UNL     1       6.018  -4.993   0.082  0.00  0.00    -0.368 OA
ATOM     12  C   UNL     1       5.859  -4.815  -1.328  0.00  0.00    +0.068 C 
ATOM     13  C   UNL     1       4.410  -5.101  -1.734  0.00  0.00    +0.071 C 
ATOM     14  C   UNL     1       6.215  -3.374  -1.700  0.00  0.00    +0.041 C 
ATOM     15  C   UNL     1       6.792  -5.773  -2.070  0.00  0.00    +0.041 C 
ATOM     16  N   UNL     1       1.915  -5.154  -3.266  0.00  0.00    -0.318 N 
ATOM     17  C   UNL     1       1.999  -6.620  -3.177  0.00  0.00    +0.088 C 
ATOM     18  C   UNL     1       1.458  -7.218  -4.479  0.00  0.00    -0.059 C 
ATOM     19  N   UNL     1       2.179  -6.638  -5.620  0.00  0.00    +0.387 N 
ATOM     20  C   UNL     1       1.906  -5.198  -5.703  0.00  0.00    -0.059 C 
ATOM     21  C   UNL     1       2.465  -4.500  -4.464  0.00  0.00    +0.088 C 
ATOM     22  H   UNL     1       3.170  -6.786  -5.500  0.00  0.00    -0.081 HD
ENDROOT
BRANCH   1  23
ATOM     23  S   UNL     1      -2.235  -2.910  -1.572  0.00  0.00    -0.086 S 
BRANCH  23  25
ATOM     24  C   UNL     1      -4.071  -1.511  -0.105  0.00  0.00    +0.016 C 
ATOM     25  C   UNL     1      -2.608  -1.957  -0.075  0.00  0.00    +0.074 C 
ENDBRANCH  23  25
ENDBRANCH   1  23
BRANCH  19  26
ATOM     26  C   UNL     1       1.737  -7.291  -6.859  0.00  0.00    +0.019 C 
BRANCH  26  27
ATOM     27  C   UNL     1       2.561  -6.785  -8.015  0.00  0.00    +0.197 C 
ATOM     28  O   UNL     1       3.431  -5.962  -7.825  0.00  0.00    -0.278 OA
ATOM     29  N   UNL     1       2.332  -7.248  -9.260  0.00  0.00    -0.313 N 
ATOM     30  H   UNL     1       1.636  -7.906  -9.412  0.00  0.00    +0.149 HD
BRANCH  29  31
ATOM     31  C   UNL     1       3.134  -6.756 -10.383  0.00  0.00    +0.139 C 
BRANCH  31  32
ATOM     32  C   UNL     1       2.680  -7.426 -11.655  0.00  0.00    -0.030 A 
ATOM     33  C   UNL     1       3.261  -8.615 -12.055  0.00  0.00    +0.005 A 
ATOM     34  C   UNL     1       2.845  -9.229 -13.221  0.00  0.00    +0.000 A 
ATOM     35  C   UNL     1       1.848  -8.655 -13.988  0.00  0.00    +0.000 A 
ATOM     36  C   UNL     1       1.267  -7.466 -13.587  0.00  0.00    +0.000 A 
ATOM     37  C   UNL     1       1.680  -6.854 -12.419  0.00  0.00    +0.005 A 
ENDBRANCH  31  32
ENDBRANCH  29  31
ENDBRANCH  26  27
ENDBRANCH  19  26
TORSDOF 6
