REMARK  Name = ZINC35646549
REMARK  13 active torsions:
REMARK  status: ('A' for Active; 'I' for Inactive)
REMARK    1  A    between atoms: C_1  and  C_2
REMARK    2  A    between atoms: C_2  and  N_3
REMARK    3  A    between atoms: C_4  and  C_24
REMARK    4  A    between atoms: C_5  and  C_19
REMARK    5  A    between atoms: C_6  and  C_11
REMARK    6  A    between atoms: C_14  and  O_17
REMARK    7  A    between atoms: O_17  and  C_18
REMARK    8  A    between atoms: C_19  and  O_21
REMARK    9  A    between atoms: O_21  and  C_22
REMARK   10  A    between atoms: C_22  and  C_23
REMARK   11  A    between atoms: C_24  and  N_25
REMARK   12  A    between atoms: C_32  and  C_34
REMARK   13  A    between atoms: C_37  and  C_40
REMARK                            x       y       z     vdW  Elec       q    Type
REMARK                         _______ _______ _______ _____ _____    ______ ____
ROOT
ATOM      1  N   UNL     1       1.099  -0.319  -1.608  0.00  0.00    -0.261 N 
ATOM      2  C   UNL     1       0.245  -0.771  -2.573  0.00  0.00    +0.010 C 
ATOM      3  C   UNL     1       0.705  -1.442  -3.651  0.00  0.00    +0.076 C 
ATOM      4  C   UNL     1       2.198  -1.675  -3.753  0.00  0.00    +0.143 C 
ATOM      5  N   UNL     1       3.032  -1.147  -2.660  0.00  0.00    -0.288 N 
ATOM      6  C   UNL     1       2.426  -0.492  -1.650  0.00  0.00    +0.307 C 
ATOM      7  O   UNL     1       3.106  -0.049  -0.745  0.00  0.00    -0.252 OA
ATOM      8  H   UNL     1       3.995  -1.264  -2.669  0.00  0.00    +0.151 HD
ENDROOT
BRANCH   4   9
ATOM      9  C   UNL     1       2.432  -3.161  -3.838  0.00  0.00    -0.022 A 
ATOM     10  C   UNL     1       2.400  -3.932  -2.691  0.00  0.00    +0.009 A 
ATOM     11  C   UNL     1       2.614  -5.294  -2.766  0.00  0.00    +0.046 A 
ATOM     12  C   UNL     1       2.861  -5.889  -3.995  0.00  0.00    +0.120 A 
ATOM     13  C   UNL     1       2.893  -5.114  -5.145  0.00  0.00    +0.046 A 
ATOM     14  C   UNL     1       2.673  -3.753  -5.065  0.00  0.00    +0.009 A 
BRANCH  12  15
ATOM     15  O   UNL     1       3.073  -7.230  -4.071  0.00  0.00    -0.495 OA
ATOM     16  C   UNL     1       3.322  -7.774  -5.369  0.00  0.00    +0.277 C 
ENDBRANCH  12  15
ENDBRANCH   4   9
BRANCH   1  18
ATOM     17  C   UNL     1       0.588   1.907  -0.732  0.00  0.00    +0.025 C 
ATOM     18  C   UNL     1       0.531   0.401  -0.465  0.00  0.00    +0.111 C 
ENDBRANCH   1  18
BRANCH   3  19
ATOM     19  C   UNL     1      -0.179  -1.911  -4.652  0.00  0.00    +0.339 C 
ATOM     20  O   UNL     1      -1.365  -1.651  -4.587  0.00  0.00    -0.245 OA
BRANCH  19  21
ATOM     21  O   UNL     1       0.295  -2.648  -5.678  0.00  0.00    -0.462 OA
BRANCH  21  22
ATOM     22  C   UNL     1      -0.653  -3.089  -6.652  0.00  0.00    +0.229 C 
ATOM     23  C   UNL     1       0.064  -3.904  -7.730  0.00  0.00    +0.048 C 
ENDBRANCH  21  22
ENDBRANCH  19  21
ENDBRANCH   3  19
BRANCH   2  24
ATOM     24  C   UNL     1      -1.234  -0.518  -2.433  0.00  0.00    -0.026 C 
BRANCH  24  25
ATOM     25  N   UNL     1      -1.889  -1.722  -1.903  0.00  0.00    +0.384 N 
ATOM     26  C   UNL     1      -3.335  -1.535  -1.990  0.00  0.00    -0.077 C 
ATOM     27  C   UNL     1      -4.003  -2.882  -2.162  0.00  0.00    +0.000 C 
ATOM     28  C   UNL     1      -4.411  -3.431  -0.783  0.00  0.00    +0.106 C 
ATOM     29  N   UNL     1      -3.371  -3.152   0.229  0.00  0.00    -0.299 N 
ATOM     30  C   UNL     1      -1.958  -3.293  -0.054  0.00  0.00    +0.089 C 
ATOM     31  C   UNL     1      -1.396  -1.961  -0.601  0.00  0.00    -0.059 C 
ATOM     32  C   UNL     1      -3.751  -2.752   1.458  0.00  0.00    +0.247 C 
ATOM     33  O   UNL     1      -2.915  -2.415   2.273  0.00  0.00    -0.270 OA
ATOM     34  H   UNL     1      -1.635  -2.503  -2.488  0.00  0.00    -0.081 HD
BRANCH  32  35
ATOM     35  C   UNL     1      -5.186  -2.724   1.816  0.00  0.00    +0.037 A 
ATOM     36  C   UNL     1      -6.050  -3.704   1.325  0.00  0.00    +0.013 A 
ATOM     37  C   UNL     1      -7.387  -3.672   1.663  0.00  0.00    +0.004 A 
ATOM     38  C   UNL     1      -7.872  -2.672   2.486  0.00  0.00    -0.050 A 
ATOM     39  C   UNL     1      -7.021  -1.697   2.976  0.00  0.00    +0.004 A 
ATOM     40  C   UNL     1      -5.680  -1.721   2.651  0.00  0.00    +0.013 A 
ATOM     41  C   UNL     1      -9.334  -2.643   2.851  0.00  0.00    +0.044 C 
ENDBRANCH  32  35
ENDBRANCH  24  25
ENDBRANCH   2  24
TORSDOF 9
