REMARK  Name = ZINC38574043
REMARK  11 active torsions:
REMARK  status: ('A' for Active; 'I' for Inactive)
REMARK    1  A    between atoms: C_1  and  C_2
REMARK    2  A    between atoms: C_2  and  C_3
REMARK    3  A    between atoms: C_2  and  C_4
REMARK    4  A    between atoms: C_4  and  C_5
REMARK    5  A    between atoms: C_5  and  N_6
REMARK    6  A    between atoms: C_13  and  O_38
REMARK    7  A    between atoms: C_15  and  C_19
REMARK    8  A    between atoms: N_21  and  N_22
REMARK    9  A    between atoms: C_23  and  C_24
REMARK   10  A    between atoms: C_23  and  C_25
REMARK   11  A    between atoms: C_27  and  O_37
REMARK                            x       y       z     vdW  Elec       q    Type
REMARK                         _______ _______ _______ _____ _____    ______ ____
ROOT
ATOM      1  C   UNL     1       2.820   0.867   6.332  0.00  0.00    +0.247 C 
ATOM      2  O   UNL     1       2.376   1.051   7.446  0.00  0.00    -0.273 OA
ATOM      3  N   UNL     1       3.709   1.734   5.809  0.00  0.00    -0.206 N 
ATOM      4  H   UNL     1       4.010   1.627   4.893  0.00  0.00    +0.177 HD
ENDROOT
BRANCH   1  13
ATOM      5  N   UNL     1       0.708  -0.672   3.731  0.00  0.00    -0.270 N 
ATOM      6  C   UNL     1       0.455  -1.950   4.239  0.00  0.00    +0.042 A 
ATOM      7  C   UNL     1      -0.160  -2.908   3.444  0.00  0.00    +0.024 A 
ATOM      8  C   UNL     1      -0.406  -4.168   3.952  0.00  0.00    +0.002 A 
ATOM      9  C   UNL     1      -0.040  -4.476   5.250  0.00  0.00    +0.000 A 
ATOM     10  C   UNL     1       0.573  -3.524   6.044  0.00  0.00    +0.008 A 
ATOM     11  C   UNL     1       0.821  -2.262   5.541  0.00  0.00    +0.003 A 
ATOM     12  C   UNL     1       1.489  -1.222   6.402  0.00  0.00    +0.167 C 
ATOM     13  C   UNL     1       2.377  -0.331   5.532  0.00  0.00    +0.195 C 
ATOM     14  C   UNL     1       1.613   0.130   4.320  0.00  0.00    +0.235 C 
ATOM     15  O   UNL     1       1.813   1.239   3.873  0.00  0.00    -0.274 OA
BRANCH  12  16
ATOM     16  O   UNL     1       0.492  -0.422   7.042  0.00  0.00    -0.386 OA
ATOM     17  H   UNL     1      -0.107  -0.922   7.612  0.00  0.00    +0.210 HD
ENDBRANCH  12  16
BRANCH   5  18
ATOM     18  C   UNL     1      -0.014  -0.205   2.544  0.00  0.00    +0.114 C 
BRANCH  18  19
ATOM     19  C   UNL     1       0.769  -0.589   1.287  0.00  0.00    +0.022 C 
BRANCH  19  21
ATOM     20  C   UNL     1      -0.029   1.428   0.047  0.00  0.00    +0.007 C 
ATOM     21  C   UNL     1       0.015  -0.101   0.048  0.00  0.00    -0.016 C 
ATOM     22  C   UNL     1       0.731  -0.592  -1.211  0.00  0.00    +0.007 C 
ENDBRANCH  19  21
ENDBRANCH  18  19
ENDBRANCH   5  18
ENDBRANCH   1  13
BRANCH   3  23
ATOM     23  N   UNL     1       4.199   2.791   6.588  0.00  0.00    -0.188 NA
ATOM     24  C   UNL     1       4.958   3.676   6.061  0.00  0.00    +0.053 C 
ATOM     25  C   UNL     1       5.399   4.869   6.871  0.00  0.00    +0.063 C 
BRANCH  24  26
ATOM     26  C   UNL     1       5.411   3.527   4.632  0.00  0.00    +0.186 C 
ATOM     27  C   UNL     1       6.875   3.133   4.647  0.00  0.00    +0.120 C 
ATOM     28  C   UNL     1       7.765   3.973   3.974  0.00  0.00    +0.035 A 
ATOM     29  C   UNL     1       9.144   3.680   3.938  0.00  0.00    +0.013 A 
ATOM     30  C   UNL     1       9.990   4.515   3.275  0.00  0.00    +0.001 A 
ATOM     31  C   UNL     1       9.522   5.656   2.631  0.00  0.00    +0.002 A 
ATOM     32  C   UNL     1       8.201   5.991   2.631  0.00  0.00    +0.024 A 
ATOM     33  C   UNL     1       7.271   5.174   3.296  0.00  0.00    +0.044 A 
ATOM     34  N   UNL     1       5.973   5.505   3.294  0.00  0.00    -0.284 N 
ATOM     35  C   UNL     1       5.041   4.793   3.893  0.00  0.00    +0.233 C 
ATOM     36  O   UNL     1       3.879   5.155   3.851  0.00  0.00    -0.274 OA
ATOM     37  H   UNL     1       5.706   6.312   2.828  0.00  0.00    +0.155 HD
BRANCH  27  38
ATOM     38  O   UNL     1       7.295   2.030   5.276  0.00  0.00    -0.509 OA
ATOM     39  H   UNL     1       8.257   1.924   5.284  0.00  0.00    +0.292 HD
ENDBRANCH  27  38
ENDBRANCH  24  26
ENDBRANCH   3  23
TORSDOF 8
