REMARK  Name = ZINC37289607
REMARK  7 active torsions:
REMARK  status: ('A' for Active; 'I' for Inactive)
REMARK    1  A    between atoms: C_1  and  C_2
REMARK    2  A    between atoms: C_2  and  C_4
REMARK    3  A    between atoms: C_2  and  O_10
REMARK    4  A    between atoms: N_6  and  C_7
REMARK    5  A    between atoms: O_10  and  C_11
REMARK    6  A    between atoms: C_14  and  N_20
REMARK    7  A    between atoms: C_16  and  C_17
REMARK                            x       y       z     vdW  Elec       q    Type
REMARK                         _______ _______ _______ _____ _____    ______ ____
ROOT
ATOM      1  C   UNL     1      -1.869  -0.817   1.220  0.00  0.00    +0.136 A 
ATOM      2  C   UNL     1      -1.155  -0.561   2.382  0.00  0.00    +0.048 A 
ATOM      3  C   UNL     1      -1.692  -0.884   3.611  0.00  0.00    +0.026 A 
ATOM      4  C   UNL     1      -2.952  -1.469   3.696  0.00  0.00    +0.026 A 
ATOM      5  C   UNL     1      -3.677  -1.731   2.547  0.00  0.00    +0.041 A 
ATOM      6  C   UNL     1      -3.142  -1.401   1.298  0.00  0.00    +0.106 A 
ENDROOT
BRANCH   6   7
ATOM      7  C   UNL     1      -3.908  -1.670   0.070  0.00  0.00    +0.390 C 
ATOM      8  O   UNL     1      -5.018  -2.179   0.141  0.00  0.00    -0.240 OA
ATOM      9  O   UNL     1      -3.435  -1.384  -1.021  0.00  0.00    -0.240 OA
ENDBRANCH   6   7
BRANCH   4  10
ATOM     10  N   UNL     1      -3.488  -1.794   4.948  0.00  0.00    -0.358 N 
ATOM     11  H   UNL     1      -2.981  -1.611   5.755  0.00  0.00    +0.142 HD
ATOM     12  H   UNL     1      -4.366  -2.201   5.009  0.00  0.00    +0.142 HD
ENDBRANCH   4  10
BRANCH   1  13
ATOM     13  O   UNL     1      -1.339  -0.499   0.012  0.00  0.00    -0.479 OA
BRANCH  13  15
ATOM     14  C   UNL     1       0.005   1.494   0.269  0.00  0.00    +0.062 C 
ATOM     15  C   UNL     1       0.005  -0.013   0.001  0.00  0.00    +0.255 C 
BRANCH  15  16
ATOM     16  C   UNL     1       0.626  -0.283  -1.345  0.00  0.00    +0.254 C 
ATOM     17  O   UNL     1      -0.044  -0.755  -2.239  0.00  0.00    -0.272 OA
ATOM     18  N   UNL     1       1.927  -0.001  -1.556  0.00  0.00    -0.309 N 
ATOM     19  H   UNL     1       2.464   0.376  -0.841  0.00  0.00    +0.149 HD
BRANCH  18  20
ATOM     20  C   UNL     1       2.531  -0.265  -2.864  0.00  0.00    +0.073 C 
ATOM     21  C   UNL     1       3.916  -0.915  -2.885  0.00  0.00    +0.024 C 
ATOM     22  C   UNL     1       3.758   0.561  -3.255  0.00  0.00    +0.024 C 
ENDBRANCH  18  20
ENDBRANCH  15  16
ENDBRANCH  13  15
ENDBRANCH   1  13
TORSDOF 6
