REMARK  Name = ZINC16435584
REMARK  14 active torsions:
REMARK  status: ('A' for Active; 'I' for Inactive)
REMARK    1  A    between atoms: C_1  and  C_2
REMARK    2  A    between atoms: C_2  and  C_3
REMARK    3  A    between atoms: C_3  and  C_4
REMARK    4  A    between atoms: C_4  and  N_5
REMARK    5  A    between atoms: N_8  and  C_9
REMARK    6  A    between atoms: N_8  and  C_16
REMARK    7  A    between atoms: C_9  and  C_10
REMARK    8  A    between atoms: C_16  and  C_17
REMARK    9  A    between atoms: N_19  and  C_20
REMARK   10  A    between atoms: C_22  and  C_33
REMARK   11  A    between atoms: N_24  and  C_25
REMARK   12  A    between atoms: C_33  and  C_34
REMARK   13  A    between atoms: C_33  and  C_35
REMARK   14  A    between atoms: C_33  and  C_36
REMARK                            x       y       z     vdW  Elec       q    Type
REMARK                         _______ _______ _______ _____ _____    ______ ____
ROOT
ATOM      1  C   UNL     1       1.725   0.527   2.771  0.00  0.00    +0.236 C 
ATOM      2  O   UNL     1       1.028   1.519   2.719  0.00  0.00    -0.274 OA
ATOM      3  N   UNL     1       2.879   0.551   3.467  0.00  0.00    -0.269 N 
ATOM      4  H   UNL     1       3.436  -0.242   3.509  0.00  0.00    +0.156 HD
ENDROOT
BRANCH   3   5
ATOM      5  C   UNL     1       3.272   1.714   4.127  0.00  0.00    +0.129 A 
ATOM      6  C   UNL     1       2.596   2.896   4.148  0.00  0.00    +0.069 A 
ATOM      7  C   UNL     1       3.332   3.797   4.922  0.00  0.00    +0.071 A 
ATOM      8  N   UNL     1       4.413   3.194   5.346  0.00  0.00    -0.169 NA
ATOM      9  N   UNL     1       4.405   1.880   4.862  0.00  0.00    -0.218 N 
BRANCH   9  10
ATOM     10  C   UNL     1       5.389   0.908   5.093  0.00  0.00    +0.069 A 
ATOM     11  C   UNL     1       6.724   1.279   5.183  0.00  0.00    +0.029 A 
ATOM     12  C   UNL     1       7.692   0.321   5.411  0.00  0.00    +0.023 A 
ATOM     13  C   UNL     1       7.333  -1.009   5.550  0.00  0.00    +0.059 A 
ATOM     14  C   UNL     1       6.002  -1.381   5.461  0.00  0.00    +0.061 A 
ATOM     15  C   UNL     1       5.029  -0.424   5.238  0.00  0.00    +0.049 A 
ATOM     16 CL   UNL     1       5.555  -3.049   5.636  0.00  0.00    -0.082 Cl
ATOM     17 CL   UNL     1       8.552  -2.211   5.836  0.00  0.00    -0.082 Cl
ENDBRANCH   9  10
BRANCH   7  18
ATOM     18  C   UNL     1       2.947   5.225   5.215  0.00  0.00    +0.006 C 
ATOM     19  C   UNL     1       1.825   5.248   6.254  0.00  0.00    +0.017 C 
ATOM     20  C   UNL     1       4.162   5.979   5.759  0.00  0.00    +0.017 C 
ATOM     21  C   UNL     1       2.465   5.897   3.928  0.00  0.00    +0.017 C 
ENDBRANCH   7  18
ENDBRANCH   3   5
BRANCH   1  22
ATOM     22  C   UNL     1       1.300  -0.730   2.058  0.00  0.00    +0.205 C 
BRANCH  22  26
ATOM     23  N   UNL     1      -2.312  -0.531   1.403  0.00  0.00    -0.299 N 
ATOM     24  C   UNL     1      -1.136  -0.744   2.026  0.00  0.00    +0.303 C 
ATOM     25  O   UNL     1      -1.120  -1.155   3.170  0.00  0.00    -0.253 OA
ATOM     26  N   UNL     1       0.022  -0.500   1.381  0.00  0.00    -0.273 N 
ATOM     27  H   UNL     1      -2.325  -0.203   0.490  0.00  0.00    +0.150 HD
BRANCH  23  28
ATOM     28  C   UNL     1      -3.571  -0.797   2.104  0.00  0.00    +0.106 C 
BRANCH  28  29
ATOM     29  C   UNL     1      -4.747  -0.476   1.179  0.00  0.00    +0.018 C 
BRANCH  29  31
ATOM     30  C   UNL     1      -7.238  -0.432   0.987  0.00  0.00    +0.004 C 
ATOM     31  C   UNL     1      -6.061  -0.753   1.912  0.00  0.00    -0.002 C 
ENDBRANCH  29  31
ENDBRANCH  28  29
ENDBRANCH  23  28
BRANCH  26  32
ATOM     32  C   UNL     1       0.002  -0.004   0.002  0.00  0.00    +0.145 C 
BRANCH  32  33
ATOM     33  C   UNL     1      -0.018   1.503   0.010  0.00  0.00    -0.030 A 
ATOM     34  C   UNL     1      -1.225   2.178   0.020  0.00  0.00    +0.005 A 
ATOM     35  C   UNL     1      -1.244   3.560   0.032  0.00  0.00    +0.000 A 
ATOM     36  C   UNL     1      -0.056   4.267   0.025  0.00  0.00    +0.000 A 
ATOM     37  C   UNL     1       1.151   3.592   0.010  0.00  0.00    +0.000 A 
ATOM     38  C   UNL     1       1.169   2.210   0.003  0.00  0.00    +0.005 A 
ENDBRANCH  32  33
ENDBRANCH  26  32
ENDBRANCH  22  26
ENDBRANCH   1  22
TORSDOF 10
