REMARK  Name = ZINC01876972
REMARK  13 active torsions:
REMARK  status: ('A' for Active; 'I' for Inactive)
REMARK    1  A    between atoms: C_1  and  C_2
REMARK    2  A    between atoms: C_2  and  O_3
REMARK    3  A    between atoms: O_3  and  C_4
REMARK    4  A    between atoms: C_4  and  C_6
REMARK    5  A    between atoms: C_7  and  C_40
REMARK    6  A    between atoms: C_8  and  C_35
REMARK    7  A    between atoms: C_10  and  N_11
REMARK    8  A    between atoms: C_12  and  C_14
REMARK    9  A    between atoms: C_19  and  C_30
REMARK   10  A    between atoms: C_22  and  C_25
REMARK   11  A    between atoms: C_35  and  O_37
REMARK   12  A    between atoms: O_37  and  C_38
REMARK   13  A    between atoms: C_38  and  C_39
REMARK                            x       y       z     vdW  Elec       q    Type
REMARK                         _______ _______ _______ _____ _____    ______ ____
ROOT
ATOM      1  N   UNL     1      -0.606  -2.456  -3.930  0.00  0.00    -0.274 N 
ATOM      2  C   UNL     1      -1.122  -2.783  -5.131  0.00  0.00    +0.270 C 
ATOM      3  O   UNL     1      -0.400  -3.227  -6.003  0.00  0.00    -0.268 OA
ATOM      4  H   UNL     1      -1.182  -2.103  -3.234  0.00  0.00    +0.156 HD
ENDROOT
BRANCH   2   5
ATOM      5  C   UNL     1      -2.565  -2.603  -5.388  0.00  0.00    +0.168 A 
ATOM      6  C   UNL     1      -3.237  -2.908  -6.594  0.00  0.00    +0.112 A 
ATOM      7  C   UNL     1      -4.538  -2.600  -6.423  0.00  0.00    +0.137 A 
ATOM      8  N   UNL     1      -4.699  -2.117  -5.155  0.00  0.00    -0.237 N 
ATOM      9  N   UNL     1      -3.453  -2.133  -4.529  0.00  0.00    -0.163 NA
ATOM     10  C   UNL     1      -5.987  -1.682  -4.608  0.00  0.00    +0.215 C 
ATOM     11  C   UNL     1      -7.115  -2.291  -5.449  0.00  0.00    +0.066 C 
ATOM     12  C   UNL     1      -6.854  -2.032  -6.937  0.00  0.00    +0.140 C 
ATOM     13  N   UNL     1      -5.604  -2.717  -7.321  0.00  0.00    -0.318 N 
ATOM     14 CL   UNL     1      -2.518  -3.560  -8.033  0.00  0.00    -0.078 Cl
ATOM     15  H   UNL     1      -5.527  -3.219  -8.148  0.00  0.00    +0.148 HD
BRANCH  12  16
ATOM     16  C   UNL     1      -6.718  -0.550  -7.176  0.00  0.00    +0.125 A 
ATOM     17  C   UNL     1      -7.678   0.261  -7.654  0.00  0.00    +0.046 A 
ATOM     18  C   UNL     1      -7.123   1.560  -7.718  0.00  0.00    +0.041 A 
ATOM     19  C   UNL     1      -5.856   1.464  -7.276  0.00  0.00    +0.195 A 
ATOM     20  O   UNL     1      -5.618   0.185  -6.944  0.00  0.00    -0.466 OA
ENDBRANCH  12  16
BRANCH  10  21
ATOM     21  C   UNL     1      -6.114  -2.155  -3.158  0.00  0.00    +0.412 C 
ATOM     22  F   UNL     1      -5.076  -1.607  -2.397  0.00  0.00    -0.168 F 
ATOM     23  F   UNL     1      -7.344  -1.739  -2.638  0.00  0.00    -0.168 F 
ATOM     24  F   UNL     1      -6.037  -3.551  -3.114  0.00  0.00    -0.168 F 
ENDBRANCH  10  21
ENDBRANCH   2   5
BRANCH   1  29
ATOM     25  C   UNL     1       1.450  -2.345  -2.518  0.00  0.00    +0.091 A 
ATOM     26  C   UNL     1       2.813  -2.606  -2.513  0.00  0.00    -0.014 A 
ATOM     27  C   UNL     1       3.339  -3.114  -3.671  0.00  0.00    +0.102 A 
ATOM     28  S   UNL     1       1.915  -3.213  -4.738  0.00  0.00    -0.066 S 
ATOM     29  C   UNL     1       0.742  -2.625  -3.690  0.00  0.00    +0.087 A 
ATOM     30  C   UNL     1       3.668  -2.345  -1.299  0.00  0.00    +0.046 C 
BRANCH  25  31
ATOM     31  C   UNL     1       0.776  -1.800  -1.335  0.00  0.00    +0.342 C 
ATOM     32  O   UNL     1       0.312  -2.551  -0.499  0.00  0.00    -0.245 OA
BRANCH  31  33
ATOM     33  O   UNL     1       0.671  -0.465  -1.174  0.00  0.00    -0.461 OA
BRANCH  33  35
ATOM     34  C   UNL     1      -0.019   1.526   0.010  0.00  0.00    +0.048 C 
ATOM     35  C   UNL     1       0.002  -0.004   0.002  0.00  0.00    +0.229 C 
ENDBRANCH  33  35
ENDBRANCH  31  33
ENDBRANCH  25  31
BRANCH  27  36
ATOM     36  C   UNL     1       4.724  -3.482  -3.961  0.00  0.00    +0.346 C 
ATOM     37  O   UNL     1       5.580  -3.348  -3.107  0.00  0.00    -0.244 OA
BRANCH  36  38
ATOM     38  O   UNL     1       5.052  -3.971  -5.175  0.00  0.00    -0.461 OA
BRANCH  38  39
ATOM     39  C   UNL     1       6.424  -4.310  -5.388  0.00  0.00    +0.229 C 
ATOM     40  C   UNL     1       6.602  -4.844  -6.811  0.00  0.00    +0.048 C 
ENDBRANCH  38  39
ENDBRANCH  36  38
ENDBRANCH  27  36
ENDBRANCH   1  29
TORSDOF 10
