REMARK  Name = ZINC20504121
REMARK  9 active torsions:
REMARK  status: ('A' for Active; 'I' for Inactive)
REMARK    1  A    between atoms: C_1  and  N_2
REMARK    2  A    between atoms: N_2  and  C_3
REMARK    3  A    between atoms: N_2  and  C_4
REMARK    4  A    between atoms: C_4  and  C_5
REMARK    5  A    between atoms: C_5  and  N_6
REMARK    6  A    between atoms: C_7  and  C_9
REMARK    7  A    between atoms: C_12  and  O_35
REMARK    8  A    between atoms: C_14  and  O_34
REMARK    9  A    between atoms: N_23  and  C_24
REMARK                            x       y       z     vdW  Elec       q    Type
REMARK                         _______ _______ _______ _____ _____    ______ ____
ROOT
ATOM      1  C   UNL     1      -4.226  -5.208  -0.713  0.00  0.00    +0.093 C 
ATOM      2  C   UNL     1      -4.939  -4.882  -2.019  0.00  0.00    +0.048 C 
ATOM      3  C   UNL     1      -6.376  -5.406  -1.939  0.00  0.00    +0.146 C 
ATOM      4  C   UNL     1      -6.330  -6.928  -1.857  0.00  0.00    +0.164 C 
ATOM      5  C   UNL     1      -5.504  -7.419  -0.704  0.00  0.00    +0.117 C 
ATOM      6  C   UNL     1      -4.194  -6.698  -0.435  0.00  0.00    +0.089 C 
ATOM      7  S   UNL     1      -4.081  -6.933   1.394  0.00  0.00    -0.085 S 
ATOM      8  C   UNL     1      -5.798  -7.327   1.697  0.00  0.00    +0.155 C 
ATOM      9  N   UNL     1      -6.262  -7.761   0.476  0.00  0.00    -0.317 N 
ATOM     10  N   UNL     1      -6.466  -7.226   2.826  0.00  0.00    -0.226 NA
ATOM     11  H   UNL     1      -7.076  -8.285   0.410  0.00  0.00    +0.148 HD
ENDROOT
BRANCH  10  12
ATOM     12  C   UNL     1      -7.806  -7.481   2.851  0.00  0.00    +0.074 A 
ATOM     13  C   UNL     1      -8.659  -6.889   1.927  0.00  0.00    +0.028 A 
ATOM     14  C   UNL     1     -10.022  -7.150   1.955  0.00  0.00    +0.003 A 
ATOM     15  C   UNL     1     -10.574  -7.985   2.878  0.00  0.00    +0.008 A 
ATOM     16  C   UNL     1      -9.773  -8.617   3.843  0.00  0.00    -0.016 A 
ATOM     17  C   UNL     1      -8.375  -8.386   3.848  0.00  0.00    +0.008 A 
ATOM     18  C   UNL     1      -7.572  -9.019   4.804  0.00  0.00    +0.010 A 
ATOM     19  C   UNL     1      -8.143  -9.855   5.716  0.00  0.00    +0.001 A 
ATOM     20  C   UNL     1      -9.516 -10.091   5.710  0.00  0.00    +0.001 A 
ATOM     21  C   UNL     1     -10.328  -9.481   4.802  0.00  0.00    +0.008 A 
ENDBRANCH  10  12
BRANCH   1  23
ATOM     22  N   UNL     1      -2.582  -3.382  -0.999  0.00  0.00    -0.317 N 
ATOM     23  C   UNL     1      -2.812  -4.693  -0.786  0.00  0.00    +0.217 C 
ATOM     24  O   UNL     1      -1.881  -5.458  -0.653  0.00  0.00    -0.275 OA
ATOM     25  H   UNL     1      -3.327  -2.770  -1.105  0.00  0.00    +0.149 HD
BRANCH  22  26
ATOM     26  C   UNL     1      -1.207  -2.882  -1.070  0.00  0.00    +0.085 C 
BRANCH  26  27
ATOM     27  C   UNL     1      -1.226  -1.372  -1.317  0.00  0.00    -0.061 C 
BRANCH  27  29
ATOM     28  C   UNL     1       0.138   0.555  -1.744  0.00  0.00    -0.097 C 
ATOM     29  N   UNL     1       0.153  -0.870  -1.388  0.00  0.00    +0.377 N 
ATOM     30  C   UNL     1       0.804  -1.042  -0.083  0.00  0.00    -0.097 C 
ATOM     31  H   UNL     1       0.663  -1.386  -2.089  0.00  0.00    -0.083 HD
ENDBRANCH  27  29
ENDBRANCH  26  27
ENDBRANCH  22  26
ENDBRANCH   1  23
BRANCH   4  32
ATOM     32  O   UNL     1      -7.662  -7.424  -1.713  0.00  0.00    -0.387 OA
ATOM     33  H   UNL     1      -8.250  -7.190  -2.444  0.00  0.00    +0.210 HD
ENDBRANCH   4  32
BRANCH   3  34
ATOM     34  O   UNL     1      -7.099  -5.008  -3.106  0.00  0.00    -0.389 OA
ATOM     35  H   UNL     1      -7.153  -4.050  -3.227  0.00  0.00    +0.210 HD
ENDBRANCH   3  34
TORSDOF 7
