REMARK  Name = ZINC16612422
REMARK  11 active torsions:
REMARK  status: ('A' for Active; 'I' for Inactive)
REMARK    1  A    between atoms: C_1  and  C_2
REMARK    2  A    between atoms: C_2  and  N_3
REMARK    3  A    between atoms: C_4  and  C_33
REMARK    4  A    between atoms: C_5  and  C_29
REMARK    5  A    between atoms: C_6  and  C_11
REMARK    6  A    between atoms: C_14  and  N_17
REMARK    7  A    between atoms: N_20  and  C_21
REMARK    8  A    between atoms: C_24  and  C_28
REMARK    9  A    between atoms: C_26  and  C_27
REMARK   10  A    between atoms: C_29  and  O_31
REMARK   11  A    between atoms: O_31  and  C_32
REMARK                            x       y       z     vdW  Elec       q    Type
REMARK                         _______ _______ _______ _____ _____    ______ ____
ROOT
ATOM      1  C   UNL     1      -4.480  -0.474   0.321  0.00  0.00    -0.022 A 
ATOM      2  C   UNL     1      -4.302   0.750  -0.295  0.00  0.00    +0.007 A 
ATOM      3  C   UNL     1      -3.029   1.246  -0.495  0.00  0.00    +0.024 A 
ATOM      4  C   UNL     1      -1.926   0.513  -0.076  0.00  0.00    +0.035 A 
ATOM      5  C   UNL     1      -2.108  -0.719   0.538  0.00  0.00    +0.024 A 
ATOM      6  C   UNL     1      -3.385  -1.207   0.740  0.00  0.00    +0.007 A 
ENDROOT
BRANCH   1  10
ATOM      7  N   UNL     1      -6.531  -3.628   1.147  0.00  0.00    -0.286 N 
ATOM      8  C   UNL     1      -6.470  -3.285  -0.172  0.00  0.00    +0.021 C 
ATOM      9  C   UNL     1      -6.154  -2.027  -0.551  0.00  0.00    +0.078 C 
ATOM     10  C   UNL     1      -5.871  -1.012   0.537  0.00  0.00    +0.141 C 
ATOM     11  N   UNL     1      -5.964  -1.484   1.929  0.00  0.00    -0.315 N 
ATOM     12  C   UNL     1      -6.291  -2.773   2.149  0.00  0.00    +0.138 C 
ATOM     13  S   UNL     1      -6.403  -3.335   3.762  0.00  0.00    -0.018 S 
ATOM     14  C   UNL     1      -6.758  -4.326  -1.223  0.00  0.00    +0.061 C 
ATOM     15  H   UNL     1      -5.794  -0.882   2.670  0.00  0.00    +0.149 HD
BRANCH   7  17
ATOM     16  C   UNL     1      -5.625  -5.883   1.419  0.00  0.00    +0.025 C 
ATOM     17  C   UNL     1      -6.879  -5.010   1.486  0.00  0.00    +0.109 C 
ENDBRANCH   7  17
BRANCH   9  18
ATOM     18  C   UNL     1      -6.090  -1.670  -1.918  0.00  0.00    +0.339 C 
ATOM     19  O   UNL     1      -6.389  -2.482  -2.774  0.00  0.00    -0.245 OA
BRANCH  18  20
ATOM     20  O   UNL     1      -5.697  -0.429  -2.274  0.00  0.00    -0.465 OA
ATOM     21  C   UNL     1      -5.655  -0.138  -3.672  0.00  0.00    +0.280 C 
ENDBRANCH  18  20
ENDBRANCH   9  18
ENDBRANCH   1  10
BRANCH   4  22
ATOM     22  N   UNL     1      -0.635   1.012  -0.277  0.00  0.00    -0.269 N 
ATOM     23  C   UNL     1       0.327   0.783   0.639  0.00  0.00    +0.308 C 
ATOM     24  O   UNL     1       0.094   0.077   1.601  0.00  0.00    -0.252 OA
ATOM     25  N   UNL     1       1.548   1.331   0.485  0.00  0.00    -0.269 N 
ATOM     26  H   UNL     1      -0.431   1.524  -1.076  0.00  0.00    +0.156 HD
ATOM     27  H   UNL     1       1.760   1.826  -0.322  0.00  0.00    +0.156 HD
BRANCH  25  28
ATOM     28  C   UNL     1       2.511   1.187   1.490  0.00  0.00    +0.038 A 
ATOM     29  C   UNL     1       2.120   0.915   2.795  0.00  0.00    +0.024 A 
ATOM     30  C   UNL     1       3.073   0.773   3.784  0.00  0.00    +0.005 A 
ATOM     31  C   UNL     1       4.415   0.901   3.477  0.00  0.00    -0.050 A 
ATOM     32  C   UNL     1       4.808   1.171   2.179  0.00  0.00    +0.008 A 
ATOM     33  C   UNL     1       3.860   1.309   1.184  0.00  0.00    -0.029 A 
ATOM     34  C   UNL     1       4.289   1.599  -0.231  0.00  0.00    +0.045 C 
ATOM     35  C   UNL     1       5.453   0.745   4.560  0.00  0.00    +0.044 C 
ENDBRANCH  25  28
ENDBRANCH   4  22
TORSDOF 6
