REMARK  Name = ZINC39693392
REMARK  11 active torsions:
REMARK  status: ('A' for Active; 'I' for Inactive)
REMARK    1  A    between atoms: C_1  and  C_2
REMARK    2  A    between atoms: C_2  and  C_3
REMARK    3  A    between atoms: C_2  and  C_4
REMARK    4  A    between atoms: C_2  and  O_5
REMARK    5  A    between atoms: O_5  and  C_6
REMARK    6  A    between atoms: N_8  and  C_9
REMARK    7  A    between atoms: C_9  and  C_10
REMARK    8  A    between atoms: C_10  and  N_11
REMARK    9  A    between atoms: C_12  and  C_14
REMARK   10  A    between atoms: C_25  and  C_27
REMARK   11  A    between atoms: C_32  and  C_33
REMARK                            x       y       z     vdW  Elec       q    Type
REMARK                         _______ _______ _______ _____ _____    ______ ____
ROOT
ATOM      1  C   UNL     1       8.707  -0.502  -5.130  0.00  0.00    +0.100 C 
ATOM      2  C   UNL     1       8.524   1.013  -5.372  0.00  0.00    +0.121 C 
ATOM      3  N   UNL     1       9.434   1.325  -6.499  0.00  0.00    -0.296 N 
ATOM      4  C   UNL     1       9.306   0.163  -7.410  0.00  0.00    +0.115 C 
ATOM      5  C   UNL     1       9.220  -1.057  -6.470  0.00  0.00    -0.004 C 
ATOM      6  C   UNL     1       8.238  -2.083  -7.027  0.00  0.00    -0.010 C 
ATOM      7  C   UNL     1       8.796  -2.663  -8.330  0.00  0.00    -0.082 C 
ATOM      8  N   UNL     1      10.097  -3.291  -8.069  0.00  0.00    +0.379 N 
ATOM      9  C   UNL     1      11.062  -2.279  -7.622  0.00  0.00    -0.082 C 
ATOM     10  C   UNL     1      10.599  -1.683  -6.290  0.00  0.00    -0.010 C 
ATOM     11  C   UNL     1      10.206   2.419  -6.660  0.00  0.00    +0.247 C 
ATOM     12  O   UNL     1      10.826   2.579  -7.692  0.00  0.00    -0.270 OA
ATOM     13  H   UNL     1       9.992  -3.994  -7.353  0.00  0.00    -0.086 HD
ATOM     14  H   UNL     1      10.435  -3.726  -8.915  0.00  0.00    -0.086 HD
ENDROOT
BRANCH  11  15
ATOM     15  C   UNL     1      10.297   3.424  -5.580  0.00  0.00    +0.049 A 
ATOM     16  C   UNL     1       9.173   3.731  -4.810  0.00  0.00    +0.013 A 
ATOM     17  C   UNL     1       9.264   4.669  -3.804  0.00  0.00    +0.001 A 
ATOM     18  C   UNL     1      10.467   5.307  -3.556  0.00  0.00    +0.001 A 
ATOM     19  C   UNL     1      11.585   5.008  -4.314  0.00  0.00    +0.013 A 
ATOM     20  C   UNL     1      11.508   4.067  -5.321  0.00  0.00    +0.067 A 
BRANCH  20  21
ATOM     21  C   UNL     1      12.728   3.738  -6.142  0.00  0.00    +0.418 C 
ATOM     22  F   UNL     1      13.810   4.505  -5.697  0.00  0.00    -0.166 F 
ATOM     23  F   UNL     1      13.031   2.380  -6.004  0.00  0.00    -0.166 F 
ATOM     24  F   UNL     1      12.475   4.025  -7.488  0.00  0.00    -0.166 F 
ENDBRANCH  20  21
ENDBRANCH  11  15
BRANCH   1  26
ATOM     25  N   UNL     1       7.364  -2.228  -3.976  0.00  0.00    -0.314 N 
ATOM     26  C   UNL     1       7.390  -1.138  -4.768  0.00  0.00    +0.218 C 
ATOM     27  O   UNL     1       6.354  -0.670  -5.189  0.00  0.00    -0.275 OA
ATOM     28  H   UNL     1       8.193  -2.603  -3.639  0.00  0.00    +0.149 HD
BRANCH  25  29
ATOM     29  C   UNL     1       6.084  -2.847  -3.624  0.00  0.00    +0.123 C 
BRANCH  29  30
ATOM     30  C   UNL     1       6.333  -4.058  -2.722  0.00  0.00    +0.126 C 
BRANCH  30  33
ATOM     31  C   UNL     1       5.027  -5.767  -1.578  0.00  0.00    +0.401 C 
ATOM     32  O   UNL     1       6.065  -6.237  -1.156  0.00  0.00    -0.226 OA
ATOM     33  N   UNL     1       5.053  -4.677  -2.370  0.00  0.00    -0.280 N 
ATOM     34  H   UNL     1       4.224  -4.302  -2.707  0.00  0.00    +0.152 HD
BRANCH  31  35
ATOM     35  O   UNL     1       3.850  -6.336  -1.254  0.00  0.00    -0.445 OA
BRANCH  35  37
ATOM     36  C   UNL     1       4.556  -7.120   0.920  0.00  0.00    +0.055 C 
ATOM     37  C   UNL     1       3.897  -7.489  -0.411  0.00  0.00    +0.107 C 
ATOM     38  C   UNL     1       4.711  -8.589  -1.096  0.00  0.00    +0.055 C 
ATOM     39  C   UNL     1       2.475  -7.991  -0.154  0.00  0.00    +0.055 C 
ENDBRANCH  35  37
ENDBRANCH  31  35
ENDBRANCH  30  33
ENDBRANCH  29  30
ENDBRANCH  25  29
ENDBRANCH   1  26
TORSDOF 8
