REMARK  Name = ZINC35894714
REMARK  5 active torsions:
REMARK  status: ('A' for Active; 'I' for Inactive)
REMARK    1  A    between atoms: C_6  and  C_7
REMARK    2  A    between atoms: C_7  and  N_8
REMARK    3  A    between atoms: C_15  and  N_34
REMARK    4  A    between atoms: C_19  and  C_24
REMARK    5  A    between atoms: N_26  and  C_27
REMARK                            x       y       z     vdW  Elec       q    Type
REMARK                         _______ _______ _______ _____ _____    ______ ____
ROOT
ATOM      1  N   UNL     1      -1.726  -1.030  -1.365  0.00  0.00    +0.385 N 
ATOM      2  C   UNL     1      -2.054   0.255  -2.001  0.00  0.00    -0.059 C 
ATOM      3  C   UNL     1      -2.285   0.012  -3.490  0.00  0.00    +0.087 C 
ATOM      4  N   UNL     1      -3.269  -1.056  -3.691  0.00  0.00    -0.329 N 
ATOM      5  C   UNL     1      -4.085  -0.976  -4.830  0.00  0.00    +0.033 A 
ATOM      6  C   UNL     1      -3.887   0.074  -5.721  0.00  0.00    +0.025 A 
ATOM      7  C   UNL     1      -4.671   0.176  -6.852  0.00  0.00    +0.034 A 
ATOM      8  C   UNL     1      -5.654  -0.765  -7.100  0.00  0.00    +0.127 A 
ATOM      9  C   UNL     1      -5.855  -1.807  -6.215  0.00  0.00    +0.038 A 
ATOM     10  C   UNL     1      -5.073  -1.914  -5.078  0.00  0.00    -0.023 A 
ATOM     11  C   UNL     1      -5.316  -3.051  -4.121  0.00  0.00    +0.051 C 
ATOM     12  C   UNL     1      -4.854  -2.647  -2.722  0.00  0.00    +0.098 C 
ATOM     13  C   UNL     1      -3.394  -2.183  -2.780  0.00  0.00    +0.069 C 
ATOM     14  C   UNL     1      -2.918  -1.877  -1.369  0.00  0.00    -0.055 C 
ATOM     15  H   UNL     1      -0.987  -1.485  -1.880  0.00  0.00    -0.081 HD
ENDROOT
BRANCH  12  16
ATOM     16  C   UNL     1      -5.719  -1.522  -2.213  0.00  0.00    +0.222 C 
ATOM     17  O   UNL     1      -5.219  -0.455  -1.925  0.00  0.00    -0.275 OA
ATOM     18  N   UNL     1      -7.048  -1.702  -2.078  0.00  0.00    -0.285 N 
ATOM     19  H   UNL     1      -7.457  -2.531  -2.371  0.00  0.00    +0.155 HD
BRANCH  18  20
ATOM     20  C   UNL     1      -7.838  -0.692  -1.515  0.00  0.00    +0.034 A 
ATOM     21  C   UNL     1      -8.925  -1.023  -0.718  0.00  0.00    +0.026 A 
ATOM     22  C   UNL     1      -9.703  -0.025  -0.163  0.00  0.00    +0.040 A 
ATOM     23  C   UNL     1      -9.398   1.305  -0.402  0.00  0.00    +0.124 A 
ATOM     24  C   UNL     1      -8.314   1.637  -1.197  0.00  0.00    +0.040 A 
ATOM     25  C   UNL     1      -7.530   0.642  -1.748  0.00  0.00    +0.026 A 
ATOM     26  F   UNL     1     -10.161   2.279   0.140  0.00  0.00    -0.205 F 
ENDBRANCH  18  20
ENDBRANCH  12  16
BRANCH   8  27
ATOM     27  N   UNL     1      -6.492  -0.655  -8.315  0.00  0.00    +0.056 N 
ATOM     28  O   UNL     1      -6.318   0.256  -9.090  0.00  0.00    -0.126 OA
ATOM     29  O   UNL     1      -7.352  -1.477  -8.532  0.00  0.00    -0.126 OA
ENDBRANCH   8  27
BRANCH   1  30
ATOM     30  C   UNL     1      -1.292  -0.798   0.019  0.00  0.00    -0.043 C 
BRANCH  30  36
ATOM     31  C   UNL     1      -0.013   1.353   0.034  0.00  0.00    +0.003 A 
ATOM     32  C   UNL     1       1.175   2.059   0.032  0.00  0.00    +0.020 A 
ATOM     33  C   UNL     1       2.382   1.383   0.012  0.00  0.00    +0.041 A 
ATOM     34  C   UNL     1       2.398  -0.001  -0.006  0.00  0.00    +0.020 A 
ATOM     35  C   UNL     1       1.209  -0.706  -0.004  0.00  0.00    +0.003 A 
ATOM     36  C   UNL     1       0.004  -0.029   0.016  0.00  0.00    -0.064 A 
ATOM     37 CL   UNL     1       3.874   2.269   0.009  0.00  0.00    -0.084 Cl
ENDBRANCH  30  36
ENDBRANCH   1  30
TORSDOF 5
