REMARK  Name = ZINC09115554
REMARK  14 active torsions:
REMARK  status: ('A' for Active; 'I' for Inactive)
REMARK    1  A    between atoms: C_1  and  C_2
REMARK    2  A    between atoms: C_2  and  C_3
REMARK    3  A    between atoms: C_3  and  C_4
REMARK    4  A    between atoms: C_4  and  N_64
REMARK    5  A    between atoms: C_5  and  C_6
REMARK    6  A    between atoms: C_5  and  N_64
REMARK    7  A    between atoms: C_6  and  C_7
REMARK    8  A    between atoms: C_7  and  N_8
REMARK    9  A    between atoms: C_9  and  C_11
REMARK   10  A    between atoms: C_14  and  C_16
REMARK   11  A    between atoms: C_16  and  S_17
REMARK   12  A    between atoms: S_17  and  C_19
REMARK   13  A    between atoms: C_26  and  C_27
REMARK   14  A    between atoms: C_26  and  N_64
REMARK                            x       y       z     vdW  Elec       q    Type
REMARK                         _______ _______ _______ _____ _____    ______ ____
ROOT
ATOM      1  N   UNL     1      -2.446   0.921   0.355  0.00  0.00    -0.309 N 
ATOM      2  C   UNL     1      -1.124   0.668   0.421  0.00  0.00    +0.279 C 
ATOM      3  O   UNL     1      -0.726  -0.480   0.477  0.00  0.00    -0.267 OA
ATOM      4  H   UNL     1      -2.763   1.837   0.310  0.00  0.00    +0.149 HD
ENDROOT
BRANCH   2   5
ATOM      5  C   UNL     1      -0.165   1.778   0.427  0.00  0.00    +0.189 A 
ATOM      6  C   UNL     1       1.194   1.663   0.491  0.00  0.00    +0.055 A 
ATOM      7  C   UNL     1       1.711   2.968   0.471  0.00  0.00    +0.046 A 
ATOM      8  C   UNL     1       0.658   3.811   0.397  0.00  0.00    +0.118 A 
ATOM      9  O   UNL     1      -0.471   3.091   0.370  0.00  0.00    -0.454 OA
BRANCH   8  10
ATOM     10  C   UNL     1       0.740   5.315   0.350  0.00  0.00    +0.183 C 
BRANCH  10  11
ATOM     11  S   UNL     1       0.848   5.862  -1.376  0.00  0.00    +0.063 S 
ATOM     12  O   UNL     1       2.109   5.489  -1.913  0.00  0.00    -0.252 OA
BRANCH  11  13
ATOM     13  C   UNL     1       0.936   7.618  -1.262  0.00  0.00    +0.058 A 
ATOM     14  C   UNL     1       2.165   8.251  -1.267  0.00  0.00    +0.018 A 
ATOM     15  C   UNL     1       2.234   9.628  -1.177  0.00  0.00    +0.001 A 
ATOM     16  C   UNL     1       1.074  10.375  -1.083  0.00  0.00    +0.001 A 
ATOM     17  C   UNL     1      -0.155   9.744  -1.079  0.00  0.00    +0.021 A 
ATOM     18  C   UNL     1      -0.226   8.365  -1.173  0.00  0.00    +0.057 A 
ATOM     19 CL   UNL     1      -1.770   7.572  -1.175  0.00  0.00    -0.082 Cl
ENDBRANCH  11  13
ENDBRANCH  10  11
ENDBRANCH   8  10
ENDBRANCH   2   5
BRANCH   1  20
ATOM     20  C   UNL     1      -3.405  -0.187   0.349  0.00  0.00    +0.103 C 
BRANCH  20  21
ATOM     21  C   UNL     1      -4.827   0.369   0.268  0.00  0.00    +0.000 C 
BRANCH  21  22
ATOM     22  C   UNL     1      -5.828  -0.788   0.263  0.00  0.00    -0.077 C 
BRANCH  22  23
ATOM     23  N   UNL     1      -7.197  -0.234   0.205  0.00  0.00    +0.382 N 
ATOM     24  H   UNL     1      -7.305   0.467   0.948  0.00  0.00    -0.081 HD
BRANCH  23  25
ATOM     25  C   UNL     1      -7.426   0.415  -1.103  0.00  0.00    -0.078 C 
BRANCH  25  26
ATOM     26  C   UNL     1      -8.673   1.295  -1.004  0.00  0.00    -0.019 C 
BRANCH  26  28
ATOM     27  C   UNL     1     -10.175   2.853  -2.253  0.00  0.00    +0.004 C 
ATOM     28  C   UNL     1      -8.927   1.973  -2.352  0.00  0.00    -0.005 C 
ENDBRANCH  26  28
ENDBRANCH  25  26
ENDBRANCH  23  25
BRANCH  23  29
ATOM     29  C   UNL     1      -8.187  -1.311   0.414  0.00  0.00    -0.043 C 
BRANCH  29  30
ATOM     30  C   UNL     1      -8.238  -1.642   1.884  0.00  0.00    -0.064 A 
ATOM     31  C   UNL     1      -7.508  -2.708   2.378  0.00  0.00    +0.002 A 
ATOM     32  C   UNL     1      -7.550  -3.009   3.726  0.00  0.00    +0.000 A 
ATOM     33  C   UNL     1      -8.330  -2.250   4.579  0.00  0.00    +0.000 A 
ATOM     34  C   UNL     1      -9.064  -1.188   4.085  0.00  0.00    +0.000 A 
ATOM     35  C   UNL     1      -9.018  -0.884   2.737  0.00  0.00    +0.002 A 
ENDBRANCH  29  30
ENDBRANCH  23  29
ENDBRANCH  22  23
ENDBRANCH  21  22
ENDBRANCH  20  21
ENDBRANCH   1  20
TORSDOF 13
