REMARK  Name = ZINC24760054
REMARK  6 active torsions:
REMARK  status: ('A' for Active; 'I' for Inactive)
REMARK    1  A    between atoms: C_3  and  C_16
REMARK    2  A    between atoms: C_6  and  C_7
REMARK    3  A    between atoms: C_7  and  S_8
REMARK    4  A    between atoms: S_8  and  C_9
REMARK    5  A    between atoms: N_18  and  N_19
REMARK    6  A    between atoms: C_20  and  C_22
REMARK                            x       y       z     vdW  Elec       q    Type
REMARK                         _______ _______ _______ _____ _____    ______ ____
ROOT
ATOM      1  C   UNL     1       3.651  -8.572  -0.077  0.00  0.00    +0.260 C 
ATOM      2  O   UNL     1       3.708  -9.171  -1.133  0.00  0.00    -0.269 OA
ATOM      3  N   UNL     1       3.738  -9.248   1.086  0.00  0.00    -0.230 N 
ATOM      4  H   UNL     1       3.686  -8.706   2.042  0.00  0.00    +0.173 HD
ENDROOT
BRANCH   1   7
ATOM      5  C   UNL     1       3.272  -5.041   1.145  0.00  0.00    +0.005 A 
ATOM      6  C   UNL     1       3.421  -6.412   1.143  0.00  0.00    +0.013 A 
ATOM      7  C   UNL     1       3.487  -7.103  -0.068  0.00  0.00    +0.038 A 
ATOM      8  C   UNL     1       3.397  -6.400  -1.270  0.00  0.00    +0.013 A 
ATOM      9  C   UNL     1       3.243  -5.029  -1.255  0.00  0.00    +0.005 A 
ATOM     10  C   UNL     1       3.178  -4.351  -0.051  0.00  0.00    -0.037 A 
BRANCH  10  11
ATOM     11  C   UNL     1       3.010  -2.853  -0.042  0.00  0.00    +0.109 C 
BRANCH  11  12
ATOM     12  S   UNL     1       1.244  -2.443  -0.022  0.00  0.00    -0.121 S 
BRANCH  12  13
ATOM     13  C   UNL     1       1.216  -0.681  -0.013  0.00  0.00    +0.008 A 
ATOM     14  C   UNL     1       0.002  -0.004   0.002  0.00  0.00    +0.016 A 
ATOM     15  C   UNL     1      -0.017   1.377   0.010  0.00  0.00    +0.021 A 
ATOM     16  C   UNL     1       1.171   2.086   0.002  0.00  0.00    +0.041 A 
ATOM     17  C   UNL     1       2.382   1.415  -0.013  0.00  0.00    +0.021 A 
ATOM     18  C   UNL     1       2.407   0.034  -0.021  0.00  0.00    +0.016 A 
ATOM     19 CL   UNL     1       1.144   3.822   0.012  0.00  0.00    -0.084 Cl
ENDBRANCH  12  13
ENDBRANCH  11  12
ENDBRANCH  10  11
ENDBRANCH   1   7
BRANCH   3  20
ATOM     20  N   UNL     1       3.894 -10.640   1.078  0.00  0.00    -0.230 N 
ATOM     21  C   UNL     1       3.980 -11.316   2.241  0.00  0.00    +0.260 C 
ATOM     22  O   UNL     1       3.923 -10.717   3.297  0.00  0.00    -0.269 OA
ATOM     23  H   UNL     1       3.945 -11.182   0.122  0.00  0.00    +0.173 HD
BRANCH  21  24
ATOM     24  C   UNL     1       4.144 -12.784   2.232  0.00  0.00    +0.040 A 
ATOM     25  C   UNL     1       4.204 -13.472   1.011  0.00  0.00    +0.015 A 
ATOM     26  C   UNL     1       4.361 -14.826   0.989  0.00  0.00    +0.030 A 
ATOM     27  C   UNL     1       4.452 -15.539   2.182  0.00  0.00    +0.086 A 
ATOM     28  C   UNL     1       4.389 -14.866   3.416  0.00  0.00    +0.113 A 
ATOM     29  C   UNL     1       4.234 -13.477   3.432  0.00  0.00    +0.044 A 
ATOM     30  N   UNL     1       4.502 -15.795   4.395  0.00  0.00    -0.130 NA
ATOM     31  N   UNL     1       4.629 -16.967   3.881  0.00  0.00    -0.067 NA
ATOM     32  N   UNL     1       4.604 -16.870   2.482  0.00  0.00    -0.257 N 
ATOM     33  H   UNL     1       4.679 -17.611   1.673  0.00  0.00    +0.191 HD
ENDBRANCH  21  24
ENDBRANCH   3  20
TORSDOF 6
