REMARK  Name = ZINC21938545
REMARK  11 active torsions:
REMARK  status: ('A' for Active; 'I' for Inactive)
REMARK    1  A    between atoms: C_1  and  N_2
REMARK    2  A    between atoms: N_2  and  C_3
REMARK    3  A    between atoms: N_2  and  C_4
REMARK    4  A    between atoms: C_4  and  C_5
REMARK    5  A    between atoms: C_10  and  C_11
REMARK    6  A    between atoms: C_11  and  N_12
REMARK    7  A    between atoms: C_13  and  C_15
REMARK    8  A    between atoms: C_15  and  C_17
REMARK    9  A    between atoms: C_15  and  N_28
REMARK   10  A    between atoms: C_17  and  C_18
REMARK   11  A    between atoms: C_29  and  C_31
REMARK                            x       y       z     vdW  Elec       q    Type
REMARK                         _______ _______ _______ _____ _____    ______ ____
ROOT
ATOM      1  C   UNL     1      -4.990   1.630   0.034  0.00  0.00    +0.163 C 
ENDROOT
BRANCH   1   3
ATOM      2  N   UNL     1      -6.462   0.543   1.698  0.00  0.00    -0.310 N 
ATOM      3  C   UNL     1      -5.210   0.783   1.261  0.00  0.00    +0.234 C 
ATOM      4  O   UNL     1      -4.261   0.318   1.854  0.00  0.00    -0.274 OA
ATOM      5  H   UNL     1      -7.324   0.965   1.160  0.00  0.00    +0.149 HD
BRANCH   2   6
ATOM      6  C   UNL     1      -6.676  -0.280   2.891  0.00  0.00    +0.139 C 
BRANCH   6  12
ATOM      7  C   UNL     1      -8.922  -1.293   2.449  0.00  0.00    -0.059 A 
ATOM      8  C   UNL     1     -10.277  -1.397   2.701  0.00  0.00    +0.002 A 
ATOM      9  C   UNL     1     -10.864  -0.603   3.668  0.00  0.00    +0.000 A 
ATOM     10  C   UNL     1     -10.095   0.296   4.384  0.00  0.00    +0.000 A 
ATOM     11  C   UNL     1      -8.739   0.397   4.136  0.00  0.00    +0.005 A 
ATOM     12  C   UNL     1      -8.153  -0.394   3.165  0.00  0.00    -0.029 A 
BRANCH   7  13
ATOM     13  C   UNL     1      -8.282  -2.159   1.395  0.00  0.00    -0.043 C 
BRANCH  13  15
ATOM     14  C   UNL     1      -8.590  -4.190   2.677  0.00  0.00    -0.096 C 
ATOM     15  N   UNL     1      -7.613  -3.298   2.037  0.00  0.00    +0.379 N 
ATOM     16  C   UNL     1      -6.782  -4.032   1.073  0.00  0.00    -0.096 C 
ATOM     17  H   UNL     1      -6.952  -2.903   2.822  0.00  0.00    -0.082 HD
ENDBRANCH  13  15
ENDBRANCH   7  13
ENDBRANCH   6  12
ENDBRANCH   2   6
ENDBRANCH   1   3
BRANCH   1  18
ATOM     18  N   UNL     1      -3.616   2.137   0.030  0.00  0.00    -0.299 N 
ATOM     19  C   UNL     1      -2.580   1.276   0.021  0.00  0.00    +0.251 C 
ATOM     20  O   UNL     1      -2.786   0.076   0.015  0.00  0.00    -0.270 OA
ATOM     21  H   UNL     1      -3.430   3.221   0.035  0.00  0.00    +0.150 HD
BRANCH  19  22
ATOM     22  C   UNL     1      -1.205   1.783   0.017  0.00  0.00    +0.074 A 
ATOM     23  C   UNL     1      -0.013   1.076   0.008  0.00  0.00    +0.021 A 
ATOM     24  C   UNL     1       1.149   1.808   0.001  0.00  0.00    +0.008 A 
ATOM     25  C   UNL     1       1.077   3.165   0.008  0.00  0.00    +0.046 A 
ATOM     26  S   UNL     1      -0.629   3.471   0.026  0.00  0.00    -0.092 S 
ENDBRANCH  19  22
ENDBRANCH   1  18
BRANCH   1  27
ATOM     27  C   UNL     1      -5.225   0.784  -1.219  0.00  0.00    +0.069 C 
BRANCH  27  28
ATOM     28  C   UNL     1      -5.126   1.659  -2.442  0.00  0.00    -0.020 A 
ATOM     29  C   UNL     1      -6.145   2.251  -3.084  0.00  0.00    +0.087 A 
ATOM     30  N   UNL     1      -5.671   2.966  -4.151  0.00  0.00    -0.360 N 
ATOM     31  H   UNL     1      -6.370   3.520  -4.795  0.00  0.00    +0.165 HD
ATOM     32  C   UNL     1      -4.301   2.848  -4.222  0.00  0.00    +0.047 A 
ATOM     33  C   UNL     1      -3.899   2.029  -3.152  0.00  0.00    +0.003 A 
ATOM     34  C   UNL     1      -2.548   1.727  -2.975  0.00  0.00    +0.010 A 
ATOM     35  C   UNL     1      -1.620   2.239  -3.838  0.00  0.00    +0.001 A 
ATOM     36  C   UNL     1      -2.011   3.053  -4.893  0.00  0.00    +0.002 A 
ATOM     37  C   UNL     1      -3.340   3.358  -5.088  0.00  0.00    +0.026 A 
ENDBRANCH  27  28
ENDBRANCH   1  27
TORSDOF 9
