REMARK  Name = ZINC39266315
REMARK  7 active torsions:
REMARK  status: ('A' for Active; 'I' for Inactive)
REMARK    1  A    between atoms: C_4  and  C_7
REMARK    2  A    between atoms: C_7  and  C_8
REMARK    3  A    between atoms: C_7  and  N_14
REMARK    4  A    between atoms: C_15  and  C_17
REMARK    5  A    between atoms: N_22  and  C_23
REMARK    6  A    between atoms: C_23  and  C_24
REMARK    7  A    between atoms: N_26  and  C_27
REMARK                            x       y       z     vdW  Elec       q    Type
REMARK                         _______ _______ _______ _____ _____    ______ ____
ROOT
ATOM      1  C   UNL     1       3.791  -2.912  -3.163  0.00  0.00    +0.020 C 
ATOM      2  C   UNL     1       4.935  -3.923  -2.937  0.00  0.00    -0.008 C 
ATOM      3  C   UNL     1       5.243  -4.428  -4.371  0.00  0.00    -0.020 C 
ATOM      4  C   UNL     1       5.017  -3.145  -5.210  0.00  0.00    -0.077 C 
ATOM      5  N   UNL     1       3.864  -2.472  -4.568  0.00  0.00    +0.393 N 
ATOM      6  H   UNL     1       3.011  -2.722  -5.046  0.00  0.00    -0.080 HD
ENDROOT
BRANCH   1   8
ATOM      7  N   UNL     1       2.966  -1.369  -1.414  0.00  0.00    -0.306 N 
ATOM      8  C   UNL     1       3.964  -1.729  -2.245  0.00  0.00    +0.200 C 
ATOM      9  O   UNL     1       5.002  -1.101  -2.254  0.00  0.00    -0.278 OA
ATOM     10  H   UNL     1       2.136  -1.871  -1.406  0.00  0.00    +0.150 HD
BRANCH   7  11
ATOM     11  C   UNL     1       3.135  -0.219  -0.522  0.00  0.00    +0.133 C 
BRANCH  11  15
ATOM     12  C   UNL     1       2.134   3.366  -2.618  0.00  0.00    +0.000 A 
ATOM     13  C   UNL     1       3.215   3.348  -1.756  0.00  0.00    +0.000 A 
ATOM     14  C   UNL     1       3.538   2.188  -1.077  0.00  0.00    +0.006 A 
ATOM     15  C   UNL     1       2.781   1.046  -1.261  0.00  0.00    -0.023 A 
ATOM     16  C   UNL     1       1.700   1.064  -2.122  0.00  0.00    +0.006 A 
ATOM     17  C   UNL     1       1.377   2.224  -2.802  0.00  0.00    +0.000 A 
ENDBRANCH  11  15
BRANCH  11  18
ATOM     18  C   UNL     1       2.229  -0.373   0.673  0.00  0.00    -0.023 A 
ATOM     19  C   UNL     1       0.950  -0.873   0.510  0.00  0.00    +0.006 A 
ATOM     20  C   UNL     1       0.119  -1.014   1.606  0.00  0.00    +0.000 A 
ATOM     21  C   UNL     1       0.567  -0.656   2.864  0.00  0.00    +0.000 A 
ATOM     22  C   UNL     1       1.846  -0.157   3.026  0.00  0.00    +0.000 A 
ATOM     23  C   UNL     1       2.678  -0.020   1.931  0.00  0.00    +0.006 A 
ENDBRANCH  11  18
ENDBRANCH   7  11
ENDBRANCH   1   8
BRANCH   5  24
ATOM     24  C   UNL     1       4.048  -1.015  -4.620  0.00  0.00    +0.020 C 
BRANCH  24  25
ATOM     25  C   UNL     1       3.974  -0.551  -6.052  0.00  0.00    +0.201 C 
ATOM     26  O   UNL     1       3.785  -1.354  -6.941  0.00  0.00    -0.278 OA
ATOM     27  N   UNL     1       4.116   0.757  -6.345  0.00  0.00    -0.287 N 
ATOM     28  H   UNL     1       4.343   1.389  -5.644  0.00  0.00    +0.155 HD
BRANCH  27  29
ATOM     29  C   UNL     1       3.938   1.204  -7.659  0.00  0.00    +0.037 A 
ATOM     30  C   UNL     1       3.149   0.473  -8.534  0.00  0.00    +0.023 A 
ATOM     31  C   UNL     1       2.976   0.915  -9.831  0.00  0.00    +0.002 A 
ATOM     32  C   UNL     1       3.591   2.078 -10.248  0.00  0.00    +0.004 A 
ATOM     33  C   UNL     1       4.383   2.813  -9.375  0.00  0.00    -0.042 A 
ATOM     34  C   UNL     1       4.551   2.384  -8.079  0.00  0.00    -0.023 A 
ATOM     35  C   UNL     1       5.378   3.142  -7.074  0.00  0.00    +0.037 C 
ATOM     36  C   UNL     1       6.303   4.133  -7.777  0.00  0.00    +0.005 C 
ATOM     37  C   UNL     1       5.465   4.973  -8.748  0.00  0.00    +0.005 C 
ATOM     38  C   UNL     1       5.029   4.068  -9.903  0.00  0.00    +0.035 C 
ENDBRANCH  27  29
ENDBRANCH  24  25
ENDBRANCH   5  24
TORSDOF 7
