REMARK  Name = ZINC38776479
REMARK  8 active torsions:
REMARK  status: ('A' for Active; 'I' for Inactive)
REMARK    1  A    between atoms: C_1  and  O_2
REMARK    2  A    between atoms: O_2  and  C_3
REMARK    3  A    between atoms: C_6  and  C_9
REMARK    4  A    between atoms: C_9  and  C_10
REMARK    5  A    between atoms: C_10  and  C_11
REMARK    6  A    between atoms: N_13  and  C_14
REMARK    7  A    between atoms: C_14  and  C_15
REMARK    8  A    between atoms: C_15  and  C_16
REMARK                            x       y       z     vdW  Elec       q    Type
REMARK                         _______ _______ _______ _____ _____    ______ ____
ROOT
ATOM      1  C   UNL     1       8.771  -5.223  -7.186  0.00  0.00    +0.217 C 
ATOM      2  O   UNL     1       8.127  -5.497  -8.176  0.00  0.00    -0.276 OA
ATOM      3  N   UNL     1      10.085  -5.516  -7.134  0.00  0.00    -0.302 N 
ATOM      4  C   UNL     1      10.877  -5.196  -5.939  0.00  0.00    +0.106 C 
ATOM      5  C   UNL     1      12.093  -4.366  -6.362  0.00  0.00    +0.009 C 
ATOM      6  C   UNL     1      12.866  -5.116  -7.448  0.00  0.00    -0.037 C 
ATOM      7  C   UNL     1      11.972  -5.323  -8.670  0.00  0.00    +0.009 C 
ATOM      8  C   UNL     1      10.752  -6.168  -8.269  0.00  0.00    +0.106 C 
ATOM      9  C   UNL     1      14.105  -4.311  -7.845  0.00  0.00    +0.140 C 
ATOM     10  C   UNL     1      14.989  -4.275  -6.602  0.00  0.00    +0.042 C 
ATOM     11  N   UNL     1      15.201  -3.041  -6.355  0.00  0.00    -0.243 NA
ATOM     12  C   UNL     1      14.509  -2.235  -7.198  0.00  0.00    +0.216 C 
ATOM     13  N   UNL     1      13.814  -2.899  -8.098  0.00  0.00    -0.264 NA
ATOM     14  C   UNL     1      15.343  -5.534  -5.852  0.00  0.00    +0.034 C 
ATOM     15  C   UNL     1      14.018  -6.296  -5.655  0.00  0.00    -0.076 C 
ATOM     16  N   UNL     1      13.306  -6.419  -6.929  0.00  0.00    +0.385 N 
ATOM     17  H   UNL     1      12.498  -7.008  -6.796  0.00  0.00    -0.085 HD
ATOM     18  H   UNL     1      13.917  -6.851  -7.606  0.00  0.00    -0.085 HD
ENDROOT
BRANCH   1  19
ATOM     19  C   UNL     1       8.101  -4.554  -6.013  0.00  0.00    +0.114 C 
BRANCH  19  20
ATOM     20  C   UNL     1       6.620  -4.335  -6.328  0.00  0.00    +0.113 C 
BRANCH  20  23
ATOM     21  C   UNL     1       4.655  -3.391  -5.239  0.00  0.00    +0.213 C 
ATOM     22  O   UNL     1       4.011  -3.666  -6.230  0.00  0.00    -0.276 OA
ATOM     23  N   UNL     1       5.970  -3.685  -5.188  0.00  0.00    -0.315 N 
ATOM     24  H   UNL     1       6.485  -3.466  -4.395  0.00  0.00    +0.149 HD
BRANCH  21  25
ATOM     25  C   UNL     1       3.986  -2.723  -4.066  0.00  0.00    +0.100 C 
BRANCH  25  26
ATOM     26  C   UNL     1       2.505  -2.503  -4.381  0.00  0.00    +0.044 C 
BRANCH  26  30
ATOM     27  C   UNL     1       0.606  -0.607  -1.056  0.00  0.00    +0.120 A 
ATOM     28  C   UNL     1       1.173   0.161  -2.062  0.00  0.00    +0.046 A 
ATOM     29  C   UNL     1       1.786  -0.455  -3.136  0.00  0.00    +0.007 A 
ATOM     30  C   UNL     1       1.835  -1.835  -3.209  0.00  0.00    -0.047 A 
ATOM     31  C   UNL     1       1.270  -2.602  -2.207  0.00  0.00    +0.007 A 
ATOM     32  C   UNL     1       0.661  -1.992  -1.128  0.00  0.00    +0.046 A 
BRANCH  27  34
ATOM     33  C   UNL     1      -0.017   1.425   0.010  0.00  0.00    +0.277 C 
ATOM     34  O   UNL     1       0.002  -0.004   0.002  0.00  0.00    -0.495 OA
ENDBRANCH  27  34
ENDBRANCH  26  30
ENDBRANCH  25  26
ENDBRANCH  21  25
ENDBRANCH  20  23
ENDBRANCH  19  20
ENDBRANCH   1  19
TORSDOF 7
