REMARK  Name = ZINC00990674
REMARK  7 active torsions:
REMARK  status: ('A' for Active; 'I' for Inactive)
REMARK    1  A    between atoms: C_4  and  N_22
REMARK    2  A    between atoms: C_6  and  C_7
REMARK    3  A    between atoms: C_7  and  C_9
REMARK    4  A    between atoms: C_9  and  O_10
REMARK    5  A    between atoms: O_10  and  C_11
REMARK    6  A    between atoms: C_11  and  C_13
REMARK    7  A    between atoms: C_16  and  N_20
REMARK                            x       y       z     vdW  Elec       q    Type
REMARK                         _______ _______ _______ _____ _____    ______ ____
ROOT
ATOM      1  O   UNL     1      -1.190   1.869   0.018  0.00  0.00    -0.453 OA
ENDROOT
BRANCH   1   2
ATOM      2  C   UNL     1      -0.014   1.211   0.009  0.00  0.00    +0.340 C 
ATOM      3  O   UNL     1       0.002  -0.004   0.002  0.00  0.00    -0.245 OA
BRANCH   2   4
ATOM      4  C   UNL     1       1.252   1.965   0.001  0.00  0.00    +0.061 A 
ATOM      5  C   UNL     1       1.234   3.364   0.003  0.00  0.00    +0.032 A 
ATOM      6  C   UNL     1       2.419   4.065   0.001  0.00  0.00    +0.040 A 
ATOM      7  C   UNL     1       3.634   3.384  -0.014  0.00  0.00    +0.053 A 
ATOM      8  C   UNL     1       3.654   1.991  -0.022  0.00  0.00    +0.040 A 
ATOM      9  C   UNL     1       2.473   1.284  -0.015  0.00  0.00    +0.032 A 
ATOM     10 BR   UNL     1       5.306   1.071  -0.043  0.00  0.00    -0.048 Br
ATOM     11 BR   UNL     1       2.397   5.956   0.012  0.00  0.00    -0.048 Br
BRANCH   7  12
ATOM     12  N   UNL     1       4.829   4.096  -0.021  0.00  0.00    -0.356 N 
ATOM     13  H   UNL     1       5.675   3.622  -0.031  0.00  0.00    +0.142 HD
ATOM     14  H   UNL     1       4.816   5.066  -0.015  0.00  0.00    +0.142 HD
ENDBRANCH   7  12
ENDBRANCH   2   4
ENDBRANCH   1   2
BRANCH   1  15
ATOM     15  C   UNL     1      -2.397   1.062   0.019  0.00  0.00    +0.311 C 
BRANCH  15  16
ATOM     16  C   UNL     1      -3.605   1.963   0.030  0.00  0.00    +0.200 C 
ATOM     17  O   UNL     1      -3.462   3.167   0.036  0.00  0.00    -0.288 OA
BRANCH  16  23
ATOM     18  C   UNL     1      -5.125  -0.006   0.021  0.00  0.00    +0.013 A 
ATOM     19  C   UNL     1      -6.394  -0.543   0.029  0.00  0.00    +0.023 A 
ATOM     20  C   UNL     1      -7.502   0.289   0.039  0.00  0.00    +0.071 A 
ATOM     21  C   UNL     1      -7.343   1.666   0.045  0.00  0.00    +0.145 A 
ATOM     22  C   UNL     1      -6.080   2.217   0.043  0.00  0.00    +0.045 A 
ATOM     23  C   UNL     1      -4.956   1.383   0.033  0.00  0.00    +0.023 A 
ATOM     24 CL   UNL     1      -9.097  -0.396   0.043  0.00  0.00    -0.081 Cl
BRANCH  21  25
ATOM     25  N   UNL     1      -8.532   2.546   0.056  0.00  0.00    +0.058 N 
ATOM     26  O   UNL     1      -8.394   3.756   0.062  0.00  0.00    -0.126 OA
ATOM     27  O   UNL     1      -9.649   2.061   0.058  0.00  0.00    -0.126 OA
ENDBRANCH  21  25
ENDBRANCH  16  23
ENDBRANCH  15  16
ENDBRANCH   1  15
TORSDOF 7
