REMARK  Name = ZINC03214805
REMARK  9 active torsions:
REMARK  status: ('A' for Active; 'I' for Inactive)
REMARK    1  A    between atoms: C_1  and  O_2
REMARK    2  A    between atoms: O_2  and  C_3
REMARK    3  A    between atoms: C_8  and  C_9
REMARK    4  A    between atoms: C_9  and  N_11
REMARK    5  A    between atoms: N_11  and  N_12
REMARK    6  A    between atoms: C_13  and  C_15
REMARK    7  A    between atoms: C_19  and  S_21
REMARK    8  A    between atoms: S_21  and  N_24
REMARK    9  A    between atoms: N_24  and  C_25
REMARK                            x       y       z     vdW  Elec       q    Type
REMARK                         _______ _______ _______ _____ _____    ______ ____
ROOT
ATOM      1  C   UNL     1      -4.519  -1.088  -1.021  0.00  0.00    +0.040 A 
ATOM      2  C   UNL     1      -5.145   0.079  -0.580  0.00  0.00    +0.013 A 
ATOM      3  C   UNL     1      -4.484   0.929   0.282  0.00  0.00    +0.003 A 
ATOM      4  C   UNL     1      -3.204   0.624   0.713  0.00  0.00    +0.029 A 
ATOM      5  C   UNL     1      -2.577  -0.528   0.276  0.00  0.00    +0.109 A 
ATOM      6  C   UNL     1      -3.227  -1.387  -0.587  0.00  0.00    +0.042 A 
ENDROOT
BRANCH   1   8
ATOM      7  N   UNL     1      -6.470  -1.712  -2.363  0.00  0.00    -0.232 N 
ATOM      8  C   UNL     1      -5.222  -2.004  -1.945  0.00  0.00    +0.260 C 
ATOM      9  O   UNL     1      -4.674  -3.019  -2.328  0.00  0.00    -0.269 OA
ATOM     10  H   UNL     1      -6.907  -0.902  -2.058  0.00  0.00    +0.173 HD
BRANCH   7  11
ATOM     11  N   UNL     1      -7.136  -2.580  -3.239  0.00  0.00    -0.264 N 
ATOM     12  H   UNL     1      -6.699  -3.390  -3.545  0.00  0.00    +0.170 HD
BRANCH  11  13
ATOM     13  C   UNL     1      -8.427  -2.278  -3.672  0.00  0.00    +0.048 C 
ATOM     14  C   UNL     1      -9.028  -1.164  -3.252  0.00  0.00    +0.035 C 
BRANCH  13  20
ATOM     15  C   UNL     1      -9.242  -4.555  -4.290  0.00  0.00    +0.129 A 
ATOM     16  C   UNL     1      -9.902  -5.405  -5.162  0.00  0.00    +0.046 A 
ATOM     17  C   UNL     1     -10.450  -4.910  -6.330  0.00  0.00    +0.004 A 
ATOM     18  C   UNL     1     -10.342  -3.565  -6.637  0.00  0.00    +0.001 A 
ATOM     19  C   UNL     1      -9.691  -2.705  -5.776  0.00  0.00    +0.013 A 
ATOM     20  C   UNL     1      -9.131  -3.195  -4.597  0.00  0.00    +0.038 A 
BRANCH  15  22
ATOM     21  C   UNL     1      -8.856  -6.440  -2.894  0.00  0.00    +0.277 C 
ATOM     22  O   UNL     1      -8.704  -5.040  -3.141  0.00  0.00    -0.494 OA
ENDBRANCH  15  22
ENDBRANCH  13  20
ENDBRANCH  11  13
ENDBRANCH   7  11
ENDBRANCH   1   8
BRANCH   5  23
ATOM     23  S   UNL     1      -0.946  -0.904   0.826  0.00  0.00    +0.072 S 
ATOM     24  O   UNL     1      -0.748  -2.292   0.594  0.00  0.00    -0.150 OA
ATOM     25  O   UNL     1      -0.807  -0.320   2.114  0.00  0.00    -0.150 OA
BRANCH  23  26
ATOM     26  N   UNL     1       0.105  -0.103  -0.172  0.00  0.00    -0.216 N 
ATOM     27  H   UNL     1       0.694   0.578   0.190  0.00  0.00    +0.174 HD
BRANCH  26  28
ATOM     28  C   UNL     1       0.143  -0.407  -1.535  0.00  0.00    +0.048 A 
ATOM     29  C   UNL     1       0.179  -1.732  -1.952  0.00  0.00    +0.026 A 
ATOM     30  C   UNL     1       0.213  -2.030  -3.300  0.00  0.00    +0.022 A 
ATOM     31  C   UNL     1       0.221  -1.011  -4.235  0.00  0.00    +0.041 A 
ATOM     32  C   UNL     1       0.190   0.310  -3.823  0.00  0.00    +0.022 A 
ATOM     33  C   UNL     1       0.151   0.614  -2.477  0.00  0.00    +0.026 A 
ATOM     34 CL   UNL     1       0.268  -1.389  -5.929  0.00  0.00    -0.084 Cl
ENDBRANCH  26  28
ENDBRANCH  23  26
ENDBRANCH   5  23
TORSDOF 8
