REMARK  Name = ZINC03355418
REMARK  15 active torsions:
REMARK  status: ('A' for Active; 'I' for Inactive)
REMARK    1  A    between atoms: C_1  and  C_2
REMARK    2  A    between atoms: C_2  and  C_3
REMARK    3  A    between atoms: C_2  and  C_4
REMARK    4  A    between atoms: C_4  and  N_5
REMARK    5  A    between atoms: C_6  and  N_32
REMARK    6  A    between atoms: C_7  and  N_14
REMARK    7  A    between atoms: N_14  and  C_15
REMARK    8  A    between atoms: C_15  and  C_16
REMARK    9  A    between atoms: C_16  and  C_17
REMARK   10  A    between atoms: C_16  and  C_18
REMARK   11  A    between atoms: C_19  and  C_21
REMARK   12  A    between atoms: C_21  and  N_63
REMARK   13  A    between atoms: C_22  and  N_63
REMARK   14  A    between atoms: C_23  and  C_24
REMARK   15  A    between atoms: C_23  and  N_63
REMARK                            x       y       z     vdW  Elec       q    Type
REMARK                         _______ _______ _______ _____ _____    ______ ____
ROOT
ATOM      1  N   UNL     1       1.391   2.342  -0.158  0.00  0.00    -0.266 N 
ATOM      2  C   UNL     1       0.541   1.323  -0.405  0.00  0.00    +0.203 C 
ATOM      3  O   UNL     1       0.966   0.268  -0.826  0.00  0.00    -0.277 OA
ENDROOT
BRANCH   1   6
ATOM      4  N   UNL     1       4.797   1.050   0.325  0.00  0.00    -0.280 N 
ATOM      5  C   UNL     1       3.440   1.215   0.481  0.00  0.00    +0.127 A 
ATOM      6  C   UNL     1       2.782   2.149  -0.293  0.00  0.00    +0.140 A 
ATOM      7  C   UNL     1       3.522   2.901  -1.226  0.00  0.00    +0.277 A 
ATOM      8  O   UNL     1       2.964   3.729  -1.926  0.00  0.00    -0.266 OA
ATOM      9  N   UNL     1       4.850   2.704  -1.335  0.00  0.00    -0.273 N 
ATOM     10  H   UNL     1       5.378   3.244  -1.990  0.00  0.00    +0.173 HD
ATOM     11  C   UNL     1       5.474   1.789  -0.572  0.00  0.00    +0.331 A 
ATOM     12  O   UNL     1       6.673   1.628  -0.694  0.00  0.00    -0.246 OA
BRANCH   5  13
ATOM     13  N   UNL     1       2.748   0.460   1.397  0.00  0.00    -0.343 N 
ATOM     14  H   UNL     1       1.808   0.635   1.559  0.00  0.00    +0.144 HD
ATOM     15  H   UNL     1       3.200  -0.248   1.883  0.00  0.00    +0.144 HD
ENDBRANCH   5  13
BRANCH   4  16
ATOM     16  C   UNL     1       5.508   0.062   1.141  0.00  0.00    +0.131 C 
BRANCH  16  18
ATOM     17  C   UNL     1       6.330  -1.165  -0.875  0.00  0.00    +0.009 C 
ATOM     18  C   UNL     1       5.517  -1.286   0.416  0.00  0.00    +0.003 C 
ATOM     19  C   UNL     1       6.149  -2.346   1.320  0.00  0.00    +0.009 C 
ENDBRANCH  16  18
ENDBRANCH   4  16
ENDBRANCH   1   6
BRANCH   1  20
ATOM     20  C   UNL     1       0.869   3.648   0.252  0.00  0.00    +0.117 C 
BRANCH  20  21
ATOM     21  C   UNL     1       0.663   3.663   1.768  0.00  0.00    +0.001 C 
ATOM     22  C   UNL     1       2.020   3.557   2.468  0.00  0.00    +0.009 C 
ATOM     23  C   UNL     1      -0.021   4.969   2.177  0.00  0.00    +0.009 C 
ENDBRANCH  20  21
ENDBRANCH   1  20
BRANCH   2  24
ATOM     24  C   UNL     1      -0.936   1.499  -0.163  0.00  0.00    +0.019 C 
BRANCH  24  26
ATOM     25  C   UNL     1      -1.264  -0.834   0.397  0.00  0.00    -0.095 C 
ATOM     26  N   UNL     1      -1.632   0.250  -0.538  0.00  0.00    +0.386 N 
ATOM     27  H   UNL     1      -1.347  -0.018  -1.488  0.00  0.00    -0.081 HD
BRANCH  26  28
ATOM     28  C   UNL     1      -3.095   0.461  -0.517  0.00  0.00    -0.043 C 
BRANCH  28  29
ATOM     29  C   UNL     1      -3.769  -0.748  -1.111  0.00  0.00    -0.062 A 
ATOM     30  C   UNL     1      -4.011  -0.806  -2.471  0.00  0.00    +0.003 A 
ATOM     31  C   UNL     1      -4.624  -1.917  -3.019  0.00  0.00    +0.021 A 
ATOM     32  C   UNL     1      -5.007  -2.967  -2.204  0.00  0.00    +0.059 A 
ATOM     33  C   UNL     1      -4.770  -2.907  -0.841  0.00  0.00    +0.059 A 
ATOM     34  C   UNL     1      -4.151  -1.797  -0.296  0.00  0.00    +0.023 A 
ATOM     35 CL   UNL     1      -5.250  -4.224   0.183  0.00  0.00    -0.082 Cl
ATOM     36 CL   UNL     1      -5.783  -4.361  -2.889  0.00  0.00    -0.082 Cl
ENDBRANCH  28  29
ENDBRANCH  26  28
ENDBRANCH  24  26
ENDBRANCH   2  24
TORSDOF 10
