REMARK  Name = ZINC38685236
REMARK  17 active torsions:
REMARK  status: ('A' for Active; 'I' for Inactive)
REMARK    1  A    between atoms: C_1  and  C_2
REMARK    2  A    between atoms: C_2  and  C_3
REMARK    3  A    between atoms: C_3  and  C_4
REMARK    4  A    between atoms: C_4  and  O_5
REMARK    5  A    between atoms: O_5  and  C_6
REMARK    6  A    between atoms: C_10  and  C_12
REMARK    7  A    between atoms: C_17  and  O_26
REMARK    8  A    between atoms: C_21  and  N_25
REMARK    9  A    between atoms: C_22  and  C_23
REMARK   10  A    between atoms: O_26  and  C_27
REMARK   11  A    between atoms: C_27  and  C_29
REMARK   12  A    between atoms: C_29  and  C_31
REMARK   13  A    between atoms: C_29  and  O_32
REMARK   14  A    between atoms: O_32  and  C_33
REMARK   15  A    between atoms: C_36  and  C_39
REMARK   16  A    between atoms: C_39  and  C_40
REMARK   17  A    between atoms: C_39  and  C_41
REMARK                            x       y       z     vdW  Elec       q    Type
REMARK                         _______ _______ _______ _____ _____    ______ ____
ROOT
ATOM      1  C   UNL     1       3.146  -6.561   4.837  0.00  0.00    +0.098 C 
ATOM      2  C   UNL     1       2.168  -7.362   5.655  0.00  0.00    +0.008 A 
ATOM      3  C   UNL     1       1.304  -6.708   6.515  0.00  0.00    +0.012 A 
ATOM      4  C   UNL     1       0.401  -7.427   7.273  0.00  0.00    +0.047 A 
ATOM      5  C   UNL     1       0.358  -8.811   7.173  0.00  0.00    +0.135 A 
ATOM      6  C   UNL     1       1.222  -9.468   6.313  0.00  0.00    +0.093 A 
ATOM      7  C   UNL     1       2.129  -8.744   5.551  0.00  0.00    +0.138 A 
ATOM      8  O   UNL     1       2.969  -9.402   4.714  0.00  0.00    -0.441 OA
ATOM      9  C   UNL     1       4.084  -8.799   4.272  0.00  0.00    +0.199 C 
ATOM     10  C   UNL     1       4.229  -7.456   4.303  0.00  0.00    +0.098 C 
ENDROOT
BRANCH   1  15
ATOM     11  C   UNL     1       1.738  -3.941   2.505  0.00  0.00    +0.121 A 
ATOM     12  C   UNL     1       1.086  -4.730   1.568  0.00  0.00    +0.045 A 
ATOM     13  C   UNL     1       1.104  -6.106   1.692  0.00  0.00    +0.004 A 
ATOM     14  C   UNL     1       1.771  -6.697   2.750  0.00  0.00    +0.005 A 
ATOM     15  C   UNL     1       2.421  -5.913   3.685  0.00  0.00    -0.031 A 
ATOM     16  C   UNL     1       2.410  -4.537   3.562  0.00  0.00    +0.050 A 
BRANCH  11  17
ATOM     17  O   UNL     1       1.722  -2.588   2.385  0.00  0.00    -0.492 OA
BRANCH  17  18
ATOM     18  C   UNL     1       1.009  -2.044   1.272  0.00  0.00    +0.229 C 
BRANCH  18  19
ATOM     19  C   UNL     1       1.103  -0.517   1.304  0.00  0.00    +0.041 C 
BRANCH  19  21
ATOM     20  C   UNL     1       0.433   1.592   0.144  0.00  0.00    +0.004 C 
ATOM     21  C   UNL     1       0.340   0.066   0.112  0.00  0.00    -0.000 C 
ENDBRANCH  19  21
ENDBRANCH  18  19
ENDBRANCH  17  18
ENDBRANCH  11  17
ENDBRANCH   1  15
BRANCH   9  22
ATOM     22  N   UNL     1       5.106  -9.569   3.775  0.00  0.00    -0.328 N 
ATOM     23  H   UNL     1       5.016 -10.534   3.747  0.00  0.00    +0.145 HD
ATOM     24  H   UNL     1       5.918  -9.147   3.452  0.00  0.00    +0.145 HD
ENDBRANCH   9  22
BRANCH  10  25
ATOM     25  C   UNL     1       5.443  -6.874   3.815  0.00  0.00    +0.101 C 
ATOM     26  N   UNL     1       6.406  -6.413   3.427  0.00  0.00    -0.191 NA
ENDBRANCH  10  25
BRANCH   5  27
ATOM     27  O   UNL     1      -0.530  -9.520   7.919  0.00  0.00    -0.423 OA
BRANCH  27  28
ATOM     28  C   UNL     1      -0.047 -10.317   8.885  0.00  0.00    +0.353 C 
ATOM     29  O   UNL     1       1.135 -10.315   9.136  0.00  0.00    -0.246 OA
BRANCH  28  30
ATOM     30  C   UNL     1      -0.980 -11.215   9.657  0.00  0.00    +0.279 C 
ATOM     31  C   UNL     1      -1.578 -12.260   8.714  0.00  0.00    +0.064 C 
BRANCH  30  32
ATOM     32  O   UNL     1      -0.254 -11.872  10.699  0.00  0.00    -0.478 OA
BRANCH  32  33
ATOM     33  C   UNL     1      -0.972 -12.326  11.759  0.00  0.00    +0.122 A 
ATOM     34  C   UNL     1      -0.343 -13.035  12.772  0.00  0.00    +0.046 A 
ATOM     35  C   UNL     1      -1.075 -13.495  13.849  0.00  0.00    +0.007 A 
ATOM     36  C   UNL     1      -2.434 -13.250  13.918  0.00  0.00    -0.045 A 
ATOM     37  C   UNL     1      -3.064 -12.544  12.910  0.00  0.00    +0.007 A 
ATOM     38  C   UNL     1      -2.335 -12.077  11.833  0.00  0.00    +0.046 A 
BRANCH  36  39
ATOM     39  C   UNL     1      -3.231 -13.754  15.094  0.00  0.00    +0.013 C 
ATOM     40  C   UNL     1      -3.876 -12.570  15.818  0.00  0.00    +0.012 C 
ATOM     41  C   UNL     1      -4.322 -14.706  14.601  0.00  0.00    +0.012 C 
ENDBRANCH  36  39
ENDBRANCH  32  33
ENDBRANCH  30  32
ENDBRANCH  28  30
ENDBRANCH  27  28
ENDBRANCH   5  27
TORSDOF 13
