REMARK  Name = ZINC39685863
REMARK  13 active torsions:
REMARK  status: ('A' for Active; 'I' for Inactive)
REMARK    1  A    between atoms: C_1  and  C_2
REMARK    2  A    between atoms: C_2  and  C_3
REMARK    3  A    between atoms: C_2  and  C_4
REMARK    4  A    between atoms: C_4  and  C_6
REMARK    5  A    between atoms: C_4  and  N_13
REMARK    6  A    between atoms: N_8  and  C_9
REMARK    7  A    between atoms: C_9  and  C_10
REMARK    8  A    between atoms: C_9  and  C_11
REMARK    9  A    between atoms: C_9  and  C_12
REMARK   10  A    between atoms: C_14  and  C_16
REMARK   11  A    between atoms: C_27  and  C_29
REMARK   12  A    between atoms: C_32  and  O_35
REMARK   13  A    between atoms: O_35  and  C_36
REMARK                            x       y       z     vdW  Elec       q    Type
REMARK                         _______ _______ _______ _____ _____    ______ ____
ROOT
ATOM      1  C   UNL     1       0.566  -4.504   1.585  0.00  0.00    +0.100 C 
ATOM      2  C   UNL     1       1.843  -4.220   0.763  0.00  0.00    +0.121 C 
ATOM      3  N   UNL     1       2.821  -3.712   1.755  0.00  0.00    -0.296 N 
ATOM      4  C   UNL     1       2.593  -4.548   2.958  0.00  0.00    +0.115 C 
ATOM      5  C   UNL     1       1.063  -4.722   3.024  0.00  0.00    -0.004 C 
ATOM      6  C   UNL     1       0.454  -3.680   3.957  0.00  0.00    -0.010 C 
ATOM      7  C   UNL     1       0.918  -3.952   5.391  0.00  0.00    -0.082 C 
ATOM      8  N   UNL     1       0.502  -5.301   5.794  0.00  0.00    +0.379 N 
ATOM      9  C   UNL     1       1.165  -6.302   4.950  0.00  0.00    -0.082 C 
ATOM     10  C   UNL     1       0.712  -6.130   3.498  0.00  0.00    -0.010 C 
ATOM     11  C   UNL     1       3.715  -2.716   1.598  0.00  0.00    +0.248 C 
ATOM     12  O   UNL     1       3.703  -2.042   0.586  0.00  0.00    -0.270 OA
ATOM     13  H   UNL     1       0.755  -5.455   6.758  0.00  0.00    -0.086 HD
ATOM     14  H   UNL     1      -0.498  -5.388   5.694  0.00  0.00    -0.086 HD
ENDROOT
BRANCH  11  15
ATOM     15  C   UNL     1       4.710  -2.444   2.654  0.00  0.00    +0.055 A 
ATOM     16  C   UNL     1       5.040  -3.432   3.593  0.00  0.00    +0.020 A 
ATOM     17  C   UNL     1       5.975  -3.130   4.561  0.00  0.00    +0.068 A 
ATOM     18  C   UNL     1       6.555  -1.865   4.575  0.00  0.00    +0.220 A 
ATOM     19  N   UNL     1       6.222  -0.953   3.675  0.00  0.00    -0.220 NA
ATOM     20  C   UNL     1       5.339  -1.201   2.730  0.00  0.00    +0.127 A 
BRANCH  18  21
ATOM     21  O   UNL     1       7.474  -1.562   5.524  0.00  0.00    -0.438 OA
BRANCH  21  22
ATOM     22  C   UNL     1       7.943  -0.288   5.574  0.00  0.00    +0.130 A 
ATOM     23  C   UNL     1       7.170   0.716   6.138  0.00  0.00    +0.046 A 
ATOM     24  C   UNL     1       7.649   2.011   6.188  0.00  0.00    +0.004 A 
ATOM     25  C   UNL     1       8.899   2.306   5.676  0.00  0.00    +0.000 A 
ATOM     26  C   UNL     1       9.672   1.307   5.113  0.00  0.00    +0.004 A 
ATOM     27  C   UNL     1       9.199   0.010   5.066  0.00  0.00    +0.046 A 
ENDBRANCH  21  22
ENDBRANCH  18  21
ENDBRANCH  11  15
BRANCH   1  29
ATOM     28  N   UNL     1      -1.695  -3.506   1.693  0.00  0.00    -0.303 N 
ATOM     29  C   UNL     1      -0.370  -3.325   1.526  0.00  0.00    +0.219 C 
ATOM     30  O   UNL     1       0.070  -2.211   1.329  0.00  0.00    -0.275 OA
ATOM     31  H   UNL     1      -2.046  -4.397   1.850  0.00  0.00    +0.149 HD
BRANCH  28  32
ATOM     32  C   UNL     1      -2.605  -2.360   1.635  0.00  0.00    +0.161 C 
BRANCH  32  33
ATOM     33  C   UNL     1      -3.853  -2.669   2.420  0.00  0.00    +0.234 C 
ATOM     34  O   UNL     1      -4.158  -3.821   2.646  0.00  0.00    -0.274 OA
ATOM     35  N   UNL     1      -4.632  -1.666   2.871  0.00  0.00    -0.309 N 
ATOM     36  H   UNL     1      -4.353  -0.745   2.752  0.00  0.00    +0.149 HD
BRANCH  35  37
ATOM     37  C   UNL     1      -5.901  -1.967   3.539  0.00  0.00    +0.026 C 
ATOM     38  C   UNL     1      -5.632  -2.814   4.785  0.00  0.00    +0.031 C 
ATOM     39  C   UNL     1      -6.583  -0.660   3.949  0.00  0.00    +0.031 C 
ATOM     40  C   UNL     1      -6.811  -2.740   2.583  0.00  0.00    +0.031 C 
ENDBRANCH  35  37
ENDBRANCH  32  33
BRANCH  32  42
ATOM     41  C   UNL     1      -1.728  -1.626  -0.586  0.00  0.00    +0.009 C 
ATOM     42  C   UNL     1      -2.975  -2.075   0.178  0.00  0.00    +0.012 C 
ATOM     43  C   UNL     1      -3.537  -3.345  -0.463  0.00  0.00    +0.009 C 
ENDBRANCH  32  42
ENDBRANCH  28  32
ENDBRANCH   1  29
TORSDOF 8
