REMARK  Name = ZINC43730022
REMARK  2 active torsions:
REMARK  status: ('A' for Active; 'I' for Inactive)
REMARK    1  A    between atoms: C_8  and  C_27
REMARK    2  A    between atoms: C_27  and  C_29
REMARK                            x       y       z     vdW  Elec       q    Type
REMARK                         _______ _______ _______ _____ _____    ______ ____
ROOT
ATOM      1  C   UNL     1      -0.079   1.376   0.008  0.00  0.00    +0.000 A 
ATOM      2  C   UNL     1       1.102   2.095   0.015  0.00  0.00    +0.002 A 
ATOM      3  C   UNL     1       2.316   1.439   0.014  0.00  0.00    +0.023 A 
ATOM      4  C   UNL     1       2.360   0.047   0.006  0.00  0.00    +0.038 A 
ATOM      5  C   UNL     1       1.165  -0.665  -0.001  0.00  0.00    -0.011 A 
ATOM      6  C   UNL     1      -0.044  -0.007   0.000  0.00  0.00    +0.006 A 
ATOM      7  C   UNL     1       1.551  -2.118  -0.011  0.00  0.00    +0.085 C 
ATOM      8  C   UNL     1       1.000  -2.831  -1.254  0.00  0.00    +0.066 C 
ATOM      9  C   UNL     1       0.115  -3.969  -0.703  0.00  0.00    -0.055 C 
ATOM     10  C   UNL     1       0.409  -5.262  -1.484  0.00  0.00    -0.016 C 
ATOM     11  C   UNL     1       1.530  -5.972  -0.701  0.00  0.00    -0.020 C 
ATOM     12  C   UNL     1       1.850  -5.036   0.482  0.00  0.00    -0.076 C 
ATOM     13  N   UNL     1       0.608  -4.207   0.689  0.00  0.00    +0.395 N 
ATOM     14  C   UNL     1       0.977  -2.868   1.186  0.00  0.00    +0.060 C 
ATOM     15  C   UNL     1       1.965  -2.959   2.315  0.00  0.00    -0.024 A 
ATOM     16  C   UNL     1       3.231  -3.490   2.424  0.00  0.00    +0.043 A 
ATOM     17  C   UNL     1       3.910  -3.419   3.630  0.00  0.00    +0.124 A 
ATOM     18  C   UNL     1       3.312  -2.814   4.723  0.00  0.00    +0.040 A 
ATOM     19  C   UNL     1       2.044  -2.283   4.616  0.00  0.00    +0.026 A 
ATOM     20  C   UNL     1       1.355  -2.350   3.407  0.00  0.00    +0.036 A 
ATOM     21  N   UNL     1       0.082  -1.892   3.055  0.00  0.00    -0.286 N 
ATOM     22  C   UNL     1      -0.215  -2.157   1.769  0.00  0.00    +0.212 C 
ATOM     23  O   UNL     1      -1.245  -1.877   1.191  0.00  0.00    -0.277 OA
ATOM     24  F   UNL     1       5.152  -3.939   3.739  0.00  0.00    -0.205 F 
ATOM     25  C   UNL     1       3.056  -2.121  -0.004  0.00  0.00    +0.228 C 
ATOM     26  O   UNL     1       3.778  -3.096  -0.006  0.00  0.00    -0.275 OA
ATOM     27  N   UNL     1       3.446  -0.832   0.006  0.00  0.00    -0.285 N 
ATOM     28  H   UNL     1      -0.518  -1.437   3.667  0.00  0.00    +0.155 HD
ATOM     29  H   UNL     1       4.373  -0.547   0.011  0.00  0.00    +0.155 HD
ATOM     30  H   UNL     1      -0.076  -4.668   1.269  0.00  0.00    -0.079 HD
ENDROOT
BRANCH   8  31
ATOM     31  C   UNL     1       0.177  -1.879  -2.082  0.00  0.00    +0.166 C 
ATOM     32  O   UNL     1      -1.026  -1.829  -1.932  0.00  0.00    -0.292 OA
BRANCH  31  33
ATOM     33  C   UNL     1       0.831  -1.010  -3.071  0.00  0.00    +0.018 A 
ATOM     34  C   UNL     1       2.198  -1.149  -3.333  0.00  0.00    +0.014 A 
ATOM     35  C   UNL     1       2.805  -0.332  -4.261  0.00  0.00    +0.039 A 
ATOM     36  C   UNL     1       2.064   0.629  -4.934  0.00  0.00    +0.123 A 
ATOM     37  C   UNL     1       0.708   0.772  -4.678  0.00  0.00    +0.039 A 
ATOM     38  C   UNL     1       0.088  -0.043  -3.758  0.00  0.00    +0.014 A 
ATOM     39  F   UNL     1       2.666   1.428  -5.842  0.00  0.00    -0.205 F 
ENDBRANCH  31  33
ENDBRANCH   8  31
TORSDOF 2
