REMARK  Name = ZINC12894751
REMARK  4 active torsions:
REMARK  status: ('A' for Active; 'I' for Inactive)
REMARK    1  A    between atoms: C_1  and  C_2
REMARK    2  A    between atoms: C_2  and  C_33
REMARK    3  A    between atoms: C_7  and  C_32
REMARK    4  A    between atoms: N_28  and  C_31
REMARK                            x       y       z     vdW  Elec       q    Type
REMARK                         _______ _______ _______ _____ _____    ______ ____
ROOT
ATOM      1  C   UNL     1      -1.491   0.396   1.895  0.00  0.00    +0.011 C 
ATOM      2  C   UNL     1      -0.624   1.536   1.334  0.00  0.00    -0.033 C 
ATOM      3  C   UNL     1      -1.413   2.828   1.337  0.00  0.00    +0.029 C 
ATOM      4  C   UNL     1      -1.986   3.209  -0.024  0.00  0.00    +0.076 C 
ATOM      5  C   UNL     1      -2.226   1.886  -0.807  0.00  0.00    +0.031 C 
ATOM      6  C   UNL     1      -0.754   1.567  -1.245  0.00  0.00    -0.010 C 
ATOM      7  C   UNL     1      -0.013   1.121   0.008  0.00  0.00    +0.015 C 
ATOM      8  C   UNL     1      -0.313   2.974  -1.702  0.00  0.00    +0.105 C 
ATOM      9  N   UNL     1      -0.983   3.911  -0.829  0.00  0.00    -0.308 N 
ATOM     10  C   UNL     1      -0.331   4.970  -0.298  0.00  0.00    +0.103 A 
ATOM     11  C   UNL     1       0.878   5.415  -0.868  0.00  0.00    -0.007 A 
ATOM     12  C   UNL     1       1.543   6.476  -0.335  0.00  0.00    +0.017 A 
ATOM     13  C   UNL     1       0.994   7.120   0.791  0.00  0.00    -0.001 A 
ATOM     14  C   UNL     1       1.633   8.212   1.397  0.00  0.00    +0.010 A 
ATOM     15  C   UNL     1       1.061   8.813   2.477  0.00  0.00    +0.001 A 
ATOM     16  C   UNL     1      -0.152   8.357   2.989  0.00  0.00    +0.002 A 
ATOM     17  C   UNL     1      -0.796   7.297   2.428  0.00  0.00    +0.026 A 
ATOM     18  C   UNL     1      -0.234   6.647   1.316  0.00  0.00    +0.048 A 
ATOM     19  C   UNL     1       1.434   4.716  -2.074  0.00  0.00    +0.066 C 
ATOM     20  C   UNL     1       1.136   3.206  -2.002  0.00  0.00    +0.146 C 
ATOM     21  C   UNL     1       1.458   2.639  -3.372  0.00  0.00    +0.238 C 
ATOM     22  O   UNL     1       1.006   3.189  -4.350  0.00  0.00    -0.274 OA
ATOM     23  N   UNL     1       2.227   1.556  -3.523  0.00  0.00    -0.239 N 
ATOM     24  C   UNL     1       2.914   1.026  -2.499  0.00  0.00    +0.315 C 
ATOM     25  O   UNL     1       3.560   0.013  -2.674  0.00  0.00    -0.252 OA
ATOM     26  N   UNL     1       2.899   1.598  -1.286  0.00  0.00    -0.228 N 
ATOM     27  C   UNL     1       2.101   2.638  -1.002  0.00  0.00    +0.240 C 
ATOM     28  O   UNL     1       2.192   3.153   0.093  0.00  0.00    -0.274 OA
ATOM     29  C   UNL     1       3.781   1.070  -0.242  0.00  0.00    +0.143 C 
ATOM     30  C   UNL     1      -0.730   0.518  -2.380  0.00  0.00    +0.013 C 
ATOM     31  C   UNL     1       0.539   1.716   2.344  0.00  0.00    +0.011 C 
ATOM     32  H   UNL     1       2.305   1.151  -4.400  0.00  0.00    +0.159 HD
ATOM     33  N   UNL     1      -0.911   5.572   0.783  0.00  0.00    -0.343 N 
ATOM     34  H   UNL     1      -1.800   5.243   1.176  0.00  0.00    +0.167 HD
ENDROOT
TORSDOF 0
