REMARK  Name = ZINC43732539
REMARK  15 active torsions:
REMARK  status: ('A' for Active; 'I' for Inactive)
REMARK    1  A    between atoms: C_1  and  C_2
REMARK    2  A    between atoms: C_2  and  C_3
REMARK    3  A    between atoms: C_3  and  C_5
REMARK    4  A    between atoms: C_3  and  C_6
REMARK    5  A    between atoms: C_6  and  C_8
REMARK    6  A    between atoms: C_6  and  N_14
REMARK    7  A    between atoms: N_10  and  C_11
REMARK    8  A    between atoms: C_11  and  C_12
REMARK    9  A    between atoms: C_11  and  C_13
REMARK   10  A    between atoms: C_15  and  C_17
REMARK   11  A    between atoms: C_17  and  N_18
REMARK   12  A    between atoms: C_19  and  C_21
REMARK   13  A    between atoms: C_21  and  O_22
REMARK   14  A    between atoms: O_22  and  C_23
REMARK   15  A    between atoms: C_37  and  C_38
REMARK                            x       y       z     vdW  Elec       q    Type
REMARK                         _______ _______ _______ _____ _____    ______ ____
ROOT
ATOM      1  N   UNL     1      -1.428  -3.635   4.472  0.00  0.00    -0.304 N 
ATOM      2  C   UNL     1      -0.960  -4.154   5.624  0.00  0.00    +0.251 C 
ATOM      3  O   UNL     1       0.203  -4.488   5.711  0.00  0.00    -0.272 OA
ATOM      4  H   UNL     1      -2.358  -3.368   4.403  0.00  0.00    +0.149 HD
ENDROOT
BRANCH   1   5
ATOM      5  C   UNL     1      -0.532  -3.474   3.324  0.00  0.00    +0.200 C 
BRANCH   5   7
ATOM      6  N   UNL     1      -0.673  -2.638   1.000  0.00  0.00    -0.302 N 
ATOM      7  C   UNL     1      -1.297  -2.877   2.170  0.00  0.00    +0.231 C 
ATOM      8  O   UNL     1      -2.474  -2.612   2.295  0.00  0.00    -0.274 OA
ATOM      9  H   UNL     1       0.269  -2.850   0.900  0.00  0.00    +0.150 HD
BRANCH   6  10
ATOM     10  C   UNL     1      -1.416  -2.058  -0.121  0.00  0.00    +0.162 C 
BRANCH  10  11
ATOM     11  C   UNL     1      -0.749  -2.440  -1.417  0.00  0.00    +0.234 C 
ATOM     12  O   UNL     1       0.249  -3.130  -1.406  0.00  0.00    -0.274 OA
ATOM     13  N   UNL     1      -1.261  -2.016  -2.590  0.00  0.00    -0.311 N 
ATOM     14  H   UNL     1      -2.059  -1.465  -2.599  0.00  0.00    +0.149 HD
BRANCH  13  15
ATOM     15  C   UNL     1      -0.613  -2.388  -3.850  0.00  0.00    +0.067 C 
ATOM     16  C   UNL     1      -1.641  -2.352  -4.982  0.00  0.00    +0.027 C 
ATOM     17  C   UNL     1       0.515  -1.401  -4.154  0.00  0.00    +0.027 C 
ENDBRANCH  13  15
ENDBRANCH  10  11
BRANCH  10  18
ATOM     18  C   UNL     1      -1.433  -0.534   0.013  0.00  0.00    +0.015 C 
ATOM     19  C   UNL     1      -2.110  -0.145   1.329  0.00  0.00    +0.010 C 
BRANCH  18  21
ATOM     20  C   UNL     1      -0.019   1.526   0.010  0.00  0.00    +0.004 C 
ATOM     21  C   UNL     1       0.002  -0.004   0.002  0.00  0.00    +0.002 C 
ENDBRANCH  18  21
ENDBRANCH  10  18
ENDBRANCH   6  10
ENDBRANCH   5   7
ENDBRANCH   1   5
BRANCH   2  22
ATOM     22  C   UNL     1      -1.881  -4.320   6.805  0.00  0.00    +0.324 C 
BRANCH  22  23
ATOM     23  O   UNL     1      -1.156  -4.886   7.899  0.00  0.00    -0.482 OA
BRANCH  23  24
ATOM     24  C   UNL     1      -1.845  -5.101   9.050  0.00  0.00    +0.128 A 
ATOM     25  C   UNL     1      -3.196  -4.777   9.117  0.00  0.00    +0.047 A 
ATOM     26  C   UNL     1      -3.901  -4.990  10.281  0.00  0.00    +0.016 A 
ATOM     27  C   UNL     1      -3.258  -5.530  11.392  0.00  0.00    +0.026 A 
ATOM     28  C   UNL     1      -3.979  -5.753  12.660  0.00  0.00    -0.000 A 
ATOM     29  C   UNL     1      -5.361  -5.685  12.762  0.00  0.00    +0.009 A 
ATOM     30  C   UNL     1      -5.963  -5.903  13.986  0.00  0.00    +0.001 A 
ATOM     31  C   UNL     1      -5.202  -6.187  15.110  0.00  0.00    +0.001 A 
ATOM     32  C   UNL     1      -3.826  -6.259  15.029  0.00  0.00    +0.015 A 
ATOM     33  C   UNL     1      -3.203  -6.045  13.805  0.00  0.00    +0.067 A 
ATOM     34  C   UNL     1      -1.740  -6.109  13.633  0.00  0.00    +0.345 A 
ATOM     35  O   UNL     1      -0.987  -5.904  14.565  0.00  0.00    -0.245 OA
ATOM     36  O   UNL     1      -1.268  -6.405  12.399  0.00  0.00    -0.421 OA
ATOM     37  C   UNL     1      -1.895  -5.865  11.325  0.00  0.00    +0.146 A 
ATOM     38  C   UNL     1      -1.199  -5.648  10.146  0.00  0.00    +0.034 A 
ATOM     39  C   UNL     1       0.264  -6.001  10.060  0.00  0.00    +0.051 C 
ENDBRANCH  23  24
ENDBRANCH  22  23
ENDBRANCH   2  22
TORSDOF 10
