REMARK  Name = ZINC09299569
REMARK  14 active torsions:
REMARK  status: ('A' for Active; 'I' for Inactive)
REMARK    1  A    between atoms: C_1  and  C_2
REMARK    2  A    between atoms: C_2  and  C_3
REMARK    3  A    between atoms: C_3  and  C_4
REMARK    4  A    between atoms: C_4  and  N_5
REMARK    5  A    between atoms: N_5  and  C_6
REMARK    6  A    between atoms: N_5  and  S_7
REMARK    7  A    between atoms: S_7  and  C_10
REMARK    8  A    between atoms: C_13  and  C_16
REMARK    9  A    between atoms: C_16  and  N_18
REMARK   10  A    between atoms: N_20  and  C_32
REMARK   11  A    between atoms: C_24  and  S_28
REMARK   12  A    between atoms: S_28  and  C_31
REMARK   13  A    between atoms: C_32  and  C_33
REMARK   14  A    between atoms: C_33  and  C_34
REMARK                            x       y       z     vdW  Elec       q    Type
REMARK                         _______ _______ _______ _____ _____    ______ ____
ROOT
ATOM      1  C   UNL     1       1.104   3.942   5.019  0.00  0.00    +0.269 C 
ATOM      2  O   UNL     1       0.386   4.330   5.925  0.00  0.00    -0.268 OA
ENDROOT
BRANCH   1   3
ATOM      3  N   UNL     1       0.578   3.664   3.822  0.00  0.00    -0.152 NA
ATOM      4  C   UNL     1      -0.727   3.812   3.619  0.00  0.00    +0.167 A 
ATOM      5  N   UNL     1      -1.435   3.582   2.481  0.00  0.00    -0.321 N 
ATOM      6  C   UNL     1      -2.800   3.798   2.458  0.00  0.00    +0.058 A 
ATOM      7  C   UNL     1      -3.694   3.614   1.391  0.00  0.00    +0.029 A 
ATOM      8  C   UNL     1      -5.035   3.874   1.544  0.00  0.00    +0.029 A 
ATOM      9  C   UNL     1      -5.546   4.320   2.752  0.00  0.00    +0.089 A 
ATOM     10  C   UNL     1      -4.689   4.506   3.822  0.00  0.00    +0.044 A 
ATOM     11  C   UNL     1      -3.348   4.245   3.670  0.00  0.00    +0.041 A 
ATOM     12  S   UNL     1      -1.937   4.344   4.742  0.00  0.00    -0.052 S 
BRANCH   9  13
ATOM     13  S   UNL     1      -7.269   4.647   2.924  0.00  0.00    -0.006 S 
ATOM     14  O   UNL     1      -7.894   3.817   1.953  0.00  0.00    -0.170 OA
ATOM     15  O   UNL     1      -7.536   4.470   4.308  0.00  0.00    -0.170 OA
ATOM     16  C   UNL     1      -7.460   6.393   2.469  0.00  0.00    +0.200 C 
ENDBRANCH   9  13
BRANCH   5  17
ATOM     17  C   UNL     1      -0.750   3.109   1.275  0.00  0.00    +0.124 C 
BRANCH  17  18
ATOM     18  C   UNL     1      -0.729   1.579   1.267  0.00  0.00    +0.018 C 
ATOM     19  C   UNL     1      -0.013   1.086   0.008  0.00  0.00    +0.005 C 
ENDBRANCH  17  18
ENDBRANCH   5  17
ENDBRANCH   1   3
BRANCH   1  23
ATOM     20  C   UNL     1       5.277   3.469   5.668  0.00  0.00    +0.106 A 
ATOM     21  C   UNL     1       4.466   3.910   6.697  0.00  0.00    +0.029 A 
ATOM     22  C   UNL     1       3.110   4.066   6.493  0.00  0.00    +0.015 A 
ATOM     23  C   UNL     1       2.558   3.777   5.245  0.00  0.00    +0.039 A 
ATOM     24  C   UNL     1       3.381   3.328   4.212  0.00  0.00    +0.015 A 
ATOM     25  C   UNL     1       4.736   3.181   4.428  0.00  0.00    +0.029 A 
BRANCH  20  26
ATOM     26  S   UNL     1       7.008   3.273   5.937  0.00  0.00    +0.061 S 
ATOM     27  O   UNL     1       7.630   3.370   4.663  0.00  0.00    -0.153 OA
ATOM     28  O   UNL     1       7.350   4.127   7.019  0.00  0.00    -0.153 OA
BRANCH  26  29
ATOM     29  N   UNL     1       7.248   1.721   6.463  0.00  0.00    -0.180 NA
ATOM     30  C   UNL     1       7.498   0.650   5.496  0.00  0.00    +0.131 C 
BRANCH  29  31
ATOM     31  C   UNL     1       7.212   1.420   7.897  0.00  0.00    +0.109 C 
BRANCH  31  32
ATOM     32  C   UNL     1       5.810   0.945   8.283  0.00  0.00    +0.017 C 
BRANCH  32  34
ATOM     33  C   UNL     1       4.370   0.156  10.165  0.00  0.00    +0.004 C 
ATOM     34  C   UNL     1       5.772   0.631   9.780  0.00  0.00    -0.002 C 
ENDBRANCH  32  34
ENDBRANCH  31  32
ENDBRANCH  29  31
ENDBRANCH  26  29
ENDBRANCH  20  26
ENDBRANCH   1  23
TORSDOF 10
