REMARK  Name = ZINC13409281
REMARK  10 active torsions:
REMARK  status: ('A' for Active; 'I' for Inactive)
REMARK    1  A    between atoms: C_1  and  C_2
REMARK    2  A    between atoms: C_2  and  C_4
REMARK    3  A    between atoms: C_2  and  C_10
REMARK    4  A    between atoms: C_4  and  C_5
REMARK    5  A    between atoms: C_5  and  C_6
REMARK    6  A    between atoms: C_6  and  O_8
REMARK    7  A    between atoms: O_8  and  C_9
REMARK    8  A    between atoms: C_16  and  C_38
REMARK    9  A    between atoms: N_18  and  N_19
REMARK   10  A    between atoms: C_32  and  C_37
REMARK                            x       y       z     vdW  Elec       q    Type
REMARK                         _______ _______ _______ _____ _____    ______ ____
ROOT
ATOM      1  C   UNL     1       2.224   1.173   1.471  0.00  0.00    +0.004 C 
ATOM      2  C   UNL     1       1.139   0.974   2.562  0.00  0.00    +0.005 C 
ATOM      3  C   UNL     1      -0.177   1.571   1.987  0.00  0.00    +0.005 C 
ATOM      4  C   UNL     1       0.072   1.506   0.477  0.00  0.00    +0.004 C 
ATOM      5  C   UNL     1       1.538   1.996   0.384  0.00  0.00    +0.014 C 
ATOM      6  C   UNL     1       1.958   1.756  -1.033  0.00  0.00    +0.044 C 
ATOM      7  N   UNL     1       2.965   1.024  -1.332  0.00  0.00    -0.187 NA
ATOM      8  C   UNL     1       1.113   2.444  -2.093  0.00  0.00    +0.057 C 
ATOM      9  C   UNL     1      -0.382   2.209  -1.883  0.00  0.00    +0.004 C 
ATOM     10  C   UNL     1      -0.806   2.324  -0.426  0.00  0.00    -0.003 C 
ATOM     11  C   UNL     1      -2.276   1.948  -0.223  0.00  0.00    +0.004 C 
ATOM     12  C   UNL     1      -2.524   0.551  -0.795  0.00  0.00    +0.004 C 
ATOM     13  C   UNL     1      -2.294   0.622  -2.304  0.00  0.00    -0.005 C 
ATOM     14  C   UNL     1      -0.832   0.940  -2.599  0.00  0.00    -0.026 C 
ATOM     15  C   UNL     1       0.073  -0.235  -2.252  0.00  0.00    +0.007 C 
ATOM     16  C   UNL     1      -0.388  -1.517  -2.948  0.00  0.00    +0.001 C 
ATOM     17  C   UNL     1      -1.826  -1.830  -2.535  0.00  0.00    +0.000 C 
ATOM     18  C   UNL     1      -2.738  -0.680  -2.962  0.00  0.00    +0.004 C 
ATOM     19  C   UNL     1      -0.724   1.206  -4.119  0.00  0.00    +0.012 C 
ATOM     20  C   UNL     1       1.670   3.479   0.727  0.00  0.00    +0.018 C 
ENDROOT
BRANCH   7  21
ATOM     21  N   UNL     1       3.276   0.775  -2.675  0.00  0.00    -0.191 N 
ATOM     22  C   UNL     1       4.264  -0.086  -2.990  0.00  0.00    +0.317 C 
ATOM     23  O   UNL     1       4.535  -0.301  -4.156  0.00  0.00    -0.251 OA
ATOM     24  N   UNL     1       4.953  -0.708  -2.013  0.00  0.00    -0.312 N 
ATOM     25  H   UNL     1       2.781   1.223  -3.379  0.00  0.00    +0.179 HD
ATOM     26  H   UNL     1       4.737  -0.536  -1.083  0.00  0.00    +0.147 HD
ATOM     27  H   UNL     1       5.664  -1.328  -2.240  0.00  0.00    +0.147 HD
ENDBRANCH   7  21
BRANCH   1  29
ATOM     28  C   UNL     1       4.014   1.158   3.213  0.00  0.00    +0.008 C 
ATOM     29  C   UNL     1       3.418   1.940   2.042  0.00  0.00    -0.010 C 
BRANCH  29  30
ATOM     30  C   UNL     1       4.478   2.116   0.953  0.00  0.00    +0.015 C 
BRANCH  30  31
ATOM     31  C   UNL     1       5.603   3.011   1.476  0.00  0.00    +0.121 C 
BRANCH  31  32
ATOM     32  C   UNL     1       6.648   3.184   0.404  0.00  0.00    +0.307 C 
ATOM     33  O   UNL     1       6.507   2.647  -0.669  0.00  0.00    -0.251 OA
BRANCH  32  34
ATOM     34  O   UNL     1       7.734   3.936   0.640  0.00  0.00    -0.468 OA
ATOM     35  C   UNL     1       8.699   4.058  -0.438  0.00  0.00    +0.280 C 
ENDBRANCH  32  34
ENDBRANCH  31  32
ENDBRANCH  30  31
ENDBRANCH  29  30
ENDBRANCH   1  29
TORSDOF 6
