REMARK  Name = ZINC39970572
REMARK  10 active torsions:
REMARK  status: ('A' for Active; 'I' for Inactive)
REMARK    1  A    between atoms: C_1  and  C_2
REMARK    2  A    between atoms: C_7  and  C_36
REMARK    3  A    between atoms: N_9  and  S_10
REMARK    4  A    between atoms: S_10  and  C_13
REMARK    5  A    between atoms: C_16  and  N_19
REMARK    6  A    between atoms: N_19  and  C_20
REMARK    7  A    between atoms: C_20  and  N_22
REMARK    8  A    between atoms: N_22  and  C_23
REMARK    9  A    between atoms: N_26  and  C_29
REMARK   10  A    between atoms: C_29  and  C_30
REMARK                            x       y       z     vdW  Elec       q    Type
REMARK                         _______ _______ _______ _____ _____    ______ ____
ROOT
ATOM      1  N   UNL     1      -1.919   2.842   6.815  0.00  0.00    -0.297 N 
ATOM      2  H   UNL     1      -2.441   3.647   6.672  0.00  0.00    +0.154 HD
ENDROOT
BRANCH   1   6
ATOM      3  C   UNL     1       0.377   1.270   3.715  0.00  0.00    +0.106 A 
ATOM      4  C   UNL     1      -0.340   0.423   4.541  0.00  0.00    +0.030 A 
ATOM      5  C   UNL     1      -1.102   0.942   5.570  0.00  0.00    +0.025 A 
ATOM      6  C   UNL     1      -1.148   2.314   5.774  0.00  0.00    +0.033 A 
ATOM      7  C   UNL     1      -0.427   3.162   4.944  0.00  0.00    +0.025 A 
ATOM      8  C   UNL     1       0.338   2.637   3.920  0.00  0.00    +0.030 A 
BRANCH   3   9
ATOM      9  S   UNL     1       1.348   0.605   2.404  0.00  0.00    +0.061 S 
ATOM     10  O   UNL     1       1.644   1.685   1.530  0.00  0.00    -0.153 OA
ATOM     11  O   UNL     1       0.684  -0.572   1.964  0.00  0.00    -0.153 OA
BRANCH   9  18
ATOM     12  C   UNL     1       3.460   2.456   2.758  0.00  0.00    +0.026 C 
ATOM     13  C   UNL     1       3.857   1.091   3.324  0.00  0.00    +0.077 C 
ATOM     14  C   UNL     1       5.145   0.610   2.648  0.00  0.00    +0.020 C 
ATOM     15  C   UNL     1       5.461  -0.813   3.115  0.00  0.00    +0.003 C 
ATOM     16  C   UNL     1       4.322  -1.750   2.708  0.00  0.00    +0.020 C 
ATOM     17  C   UNL     1       3.025  -1.295   3.385  0.00  0.00    +0.077 C 
ATOM     18  N   UNL     1       2.789   0.118   3.060  0.00  0.00    -0.171 NA
ATOM     19  C   UNL     1       3.152  -1.459   4.900  0.00  0.00    +0.026 C 
ENDBRANCH   9  18
ENDBRANCH   3   9
ENDBRANCH   1   6
BRANCH   1  20
ATOM     20  C   UNL     1      -1.936   2.233   8.017  0.00  0.00    +0.135 C 
ATOM     21  S   UNL     1      -0.910   0.895   8.314  0.00  0.00    -0.019 S 
BRANCH  20  22
ATOM     22  N   UNL     1      -2.761   2.677   8.986  0.00  0.00    -0.324 N 
ATOM     23  H   UNL     1      -3.343   3.435   8.818  0.00  0.00    +0.148 HD
BRANCH  22  24
ATOM     24  C   UNL     1      -2.780   2.015  10.293  0.00  0.00    +0.068 C 
ATOM     25  C   UNL     1      -3.734   0.817  10.246  0.00  0.00    +0.003 C 
ATOM     26  C   UNL     1      -3.810   0.178  11.634  0.00  0.00    -0.077 C 
ATOM     27  N   UNL     1      -4.305   1.163  12.604  0.00  0.00    +0.382 N 
ATOM     28  C   UNL     1      -3.359   2.280  12.707  0.00  0.00    -0.077 C 
ATOM     29  C   UNL     1      -3.266   3.000  11.359  0.00  0.00    +0.003 C 
ATOM     30  H   UNL     1      -5.203   1.510  12.300  0.00  0.00    -0.081 HD
BRANCH  27  31
ATOM     31  C   UNL     1      -4.450   0.523  13.918  0.00  0.00    -0.043 C 
BRANCH  31  32
ATOM     32  C   UNL     1      -5.074   1.497  14.885  0.00  0.00    -0.064 A 
ATOM     33  C   UNL     1      -4.271   2.338  15.633  0.00  0.00    +0.002 A 
ATOM     34  C   UNL     1      -4.843   3.231  16.520  0.00  0.00    +0.000 A 
ATOM     35  C   UNL     1      -6.218   3.284  16.657  0.00  0.00    +0.000 A 
ATOM     36  C   UNL     1      -7.020   2.445  15.908  0.00  0.00    +0.000 A 
ATOM     37  C   UNL     1      -6.448   1.554  15.018  0.00  0.00    +0.002 A 
ENDBRANCH  31  32
ENDBRANCH  27  31
ENDBRANCH  22  24
ENDBRANCH  20  22
ENDBRANCH   1  20
TORSDOF 8
