REMARK  Name = ZINC12502422
REMARK  11 active torsions:
REMARK  status: ('A' for Active; 'I' for Inactive)
REMARK    1  A    between atoms: C_4  and  C_7
REMARK    2  A    between atoms: C_7  and  N_8
REMARK    3  A    between atoms: C_9  and  C_11
REMARK    4  A    between atoms: C_11  and  C_12
REMARK    5  A    between atoms: C_12  and  C_13
REMARK    6  A    between atoms: N_15  and  N_16
REMARK    7  A    between atoms: N_16  and  C_17
REMARK    8  A    between atoms: C_17  and  N_19
REMARK    9  A    between atoms: C_20  and  C_22
REMARK   10  A    between atoms: C_22  and  O_23
REMARK   11  A    between atoms: O_23  and  C_24
REMARK                            x       y       z     vdW  Elec       q    Type
REMARK                         _______ _______ _______ _____ _____    ______ ____
ROOT
ATOM      1  N   UNL     1       5.358  -4.024  -0.074  0.00  0.00    -0.246 N 
ATOM      2  H   UNL     1       6.259  -4.381  -0.085  0.00  0.00    +0.172 HD
ENDROOT
BRANCH   1   5
ATOM      3  C   UNL     1       4.455  -6.226  -0.077  0.00  0.00    +0.230 C 
ATOM      4  O   UNL     1       5.583  -6.674  -0.091  0.00  0.00    -0.274 OA
ATOM      5  N   UNL     1       4.259  -4.893  -0.068  0.00  0.00    -0.235 N 
ATOM      6  H   UNL     1       3.358  -4.536  -0.057  0.00  0.00    +0.173 HD
BRANCH   3   7
ATOM      7  C   UNL     1       3.274  -7.162  -0.071  0.00  0.00    +0.106 C 
BRANCH   7   8
ATOM      8  C   UNL     1       3.769  -8.609  -0.085  0.00  0.00    +0.105 C 
BRANCH   8  10
ATOM      9  N   UNL     1       2.784 -10.878  -0.088  0.00  0.00    -0.311 N 
ATOM     10  C   UNL     1       2.588  -9.545  -0.078  0.00  0.00    +0.214 C 
ATOM     11  O   UNL     1       1.461  -9.098  -0.065  0.00  0.00    -0.276 OA
ATOM     12  H   UNL     1       3.686 -11.236  -0.099  0.00  0.00    +0.149 HD
BRANCH   9  13
ATOM     13  C   UNL     1       1.635 -11.788  -0.082  0.00  0.00    +0.139 C 
BRANCH  13  17
ATOM     14  C   UNL     1       3.018 -15.829  -0.119  0.00  0.00    +0.000 A 
ATOM     15  C   UNL     1       2.806 -15.182   1.085  0.00  0.00    +0.000 A 
ATOM     16  C   UNL     1       2.359 -13.874   1.096  0.00  0.00    +0.005 A 
ATOM     17  C   UNL     1       2.123 -13.213  -0.095  0.00  0.00    -0.030 A 
ATOM     18  C   UNL     1       2.330 -13.862  -1.298  0.00  0.00    +0.005 A 
ATOM     19  C   UNL     1       2.783 -15.168  -1.310  0.00  0.00    +0.000 A 
ENDBRANCH  13  17
ENDBRANCH   9  13
ENDBRANCH   8  10
ENDBRANCH   7   8
ENDBRANCH   3   7
ENDBRANCH   1   5
BRANCH   1  20
ATOM     20  C   UNL     1       5.162  -2.690  -0.064  0.00  0.00    +0.153 C 
ATOM     21  S   UNL     1       6.504  -1.627  -0.071  0.00  0.00    -0.017 S 
BRANCH  20  22
ATOM     22  N   UNL     1       3.909  -2.193  -0.049  0.00  0.00    -0.264 N 
ATOM     23  C   UNL     1       3.713  -0.860  -0.040  0.00  0.00    +0.256 C 
ATOM     24  O   UNL     1       4.663  -0.107  -0.044  0.00  0.00    -0.272 OA
ATOM     25  H   UNL     1       3.148  -2.795  -0.045  0.00  0.00    +0.157 HD
BRANCH  23  26
ATOM     26  C   UNL     1       2.312  -0.304  -0.023  0.00  0.00    +0.325 C 
BRANCH  26  27
ATOM     27  O   UNL     1       2.366   1.123  -0.015  0.00  0.00    -0.481 OA
BRANCH  27  28
ATOM     28  C   UNL     1       1.179   1.786   0.000  0.00  0.00    +0.140 A 
ATOM     29  C   UNL     1      -0.013   1.076   0.008  0.00  0.00    +0.048 A 
ATOM     30  C   UNL     1      -1.218   1.751   0.017  0.00  0.00    +0.023 A 
ATOM     31  C   UNL     1      -1.238   3.134   0.031  0.00  0.00    +0.043 A 
ATOM     32  C   UNL     1      -0.051   3.845   0.023  0.00  0.00    +0.043 A 
ATOM     33  C   UNL     1       1.157   3.174   0.008  0.00  0.00    +0.084 A 
ATOM     34 CL   UNL     1       2.647   4.066  -0.002  0.00  0.00    -0.080 Cl
ATOM     35 CL   UNL     1      -2.754   3.979   0.049  0.00  0.00    -0.083 Cl
ENDBRANCH  27  28
ENDBRANCH  26  27
ENDBRANCH  23  26
ENDBRANCH  20  22
ENDBRANCH   1  20
TORSDOF 11
