REMARK  Name = ZINC04222264
REMARK  14 active torsions:
REMARK  status: ('A' for Active; 'I' for Inactive)
REMARK    1  A    between atoms: C_1  and  C_2
REMARK    2  A    between atoms: N_4  and  C_5
REMARK    3  A    between atoms: C_5  and  C_6
REMARK    4  A    between atoms: C_6  and  N_7
REMARK    5  A    between atoms: C_8  and  C_10
REMARK    6  A    between atoms: C_10  and  C_11
REMARK    7  A    between atoms: C_19  and  C_21
REMARK    8  A    between atoms: C_24  and  O_27
REMARK    9  A    between atoms: O_27  and  C_28
REMARK   10  A    between atoms: C_32  and  C_42
REMARK   11  A    between atoms: C_35  and  O_41
REMARK   12  A    between atoms: C_37  and  C_38
REMARK   13  A    between atoms: C_37  and  C_39
REMARK   14  A    between atoms: C_39  and  O_40
REMARK                            x       y       z     vdW  Elec       q    Type
REMARK                         _______ _______ _______ _____ _____    ______ ____
ROOT
ATOM      1  C   UNL     1       4.566   3.927   1.316  0.00  0.00    +0.054 C 
ATOM      2  C   UNL     1       4.380   5.426   1.136  0.00  0.00    +0.058 A 
ATOM      3  C   UNL     1       3.252   5.907   0.553  0.00  0.00    +0.015 A 
ATOM      4  S   UNL     1       3.517   7.659   0.578  0.00  0.00    -0.057 S 
ATOM      5  C   UNL     1       5.077   7.627   1.346  0.00  0.00    +0.165 A 
ATOM      6  N   UNL     1       5.272   6.336   1.520  0.00  0.00    -0.229 NA
ATOM      7  N   UNL     1       5.904   8.689   1.687  0.00  0.00    -0.261 N 
ATOM      8  C   UNL     1       5.521   9.954   1.422  0.00  0.00    +0.250 C 
ATOM      9  O   UNL     1       4.451  10.165   0.885  0.00  0.00    -0.270 OA
ATOM     10  C   UNL     1       2.094   5.130   0.034  0.00  0.00    +0.049 C 
ATOM     11  C   UNL     1       2.497   3.647  -0.082  0.00  0.00    +0.011 C 
ATOM     12  C   UNL     1       3.208   3.223   1.205  0.00  0.00    -0.019 C 
ATOM     13  C   UNL     1       3.474   1.714   1.188  0.00  0.00    +0.010 C 
ATOM     14  C   UNL     1       2.164   0.944   1.028  0.00  0.00    +0.032 C 
ATOM     15  C   UNL     1       1.516   1.345  -0.301  0.00  0.00    +0.123 C 
ATOM     16  C   UNL     1       1.207   2.840  -0.266  0.00  0.00    +0.021 C 
ATOM     17  C   UNL     1       0.540   3.251  -1.580  0.00  0.00    +0.016 C 
ATOM     18  C   UNL     1       2.337   3.577   2.412  0.00  0.00    +0.012 C 
ATOM     19  H   UNL     1       6.758   8.521   2.116  0.00  0.00    +0.157 HD
ENDROOT
BRANCH   8  20
ATOM     20  C   UNL     1       6.400  11.082   1.785  0.00  0.00    +0.037 A 
ATOM     21  C   UNL     1       7.628  10.842   2.408  0.00  0.00    +0.016 A 
ATOM     22  C   UNL     1       8.448  11.897   2.739  0.00  0.00    +0.046 A 
ATOM     23  C   UNL     1       8.050  13.201   2.466  0.00  0.00    +0.120 A 
ATOM     24  C   UNL     1       6.828  13.445   1.851  0.00  0.00    +0.046 A 
ATOM     25  C   UNL     1       6.004  12.394   1.511  0.00  0.00    +0.016 A 
BRANCH  23  26
ATOM     26  O   UNL     1       8.859  14.239   2.799  0.00  0.00    -0.495 OA
ATOM     27  C   UNL     1      10.101  13.917   3.428  0.00  0.00    +0.277 C 
ENDBRANCH  23  26
ENDBRANCH   8  20
BRANCH  15  28
ATOM     28  O   UNL     1       0.305   0.609  -0.485  0.00  0.00    -0.391 OA
ATOM     29  H   UNL     1       0.428  -0.349  -0.517  0.00  0.00    +0.210 HD
ENDBRANCH  15  28
BRANCH   1  30
ATOM     30  C   UNL     1       5.172   3.651   2.694  0.00  0.00    +0.106 C 
BRANCH  30  32
ATOM     31  N   UNL     1       7.320   4.041   3.857  0.00  0.00    -0.314 N 
ATOM     32  C   UNL     1       6.585   4.173   2.735  0.00  0.00    +0.214 C 
ATOM     33  O   UNL     1       7.061   4.713   1.759  0.00  0.00    -0.276 OA
ATOM     34  H   UNL     1       6.940   3.609   4.638  0.00  0.00    +0.149 HD
BRANCH  31  35
ATOM     35  C   UNL     1       8.694   4.549   3.897  0.00  0.00    +0.123 C 
BRANCH  35  36
ATOM     36  C   UNL     1       9.299   4.273   5.275  0.00  0.00    +0.123 C 
BRANCH  36  40
ATOM     37  C   UNL     1      12.821   5.170   6.478  0.00  0.00    +0.109 C 
ATOM     38  C   UNL     1      11.408   4.648   6.437  0.00  0.00    +0.210 C 
ATOM     39  O   UNL     1      10.932   4.108   7.413  0.00  0.00    -0.276 OA
ATOM     40  N   UNL     1      10.673   4.780   5.315  0.00  0.00    -0.314 N 
ATOM     41  H   UNL     1      11.053   5.212   4.534  0.00  0.00    +0.149 HD
ENDBRANCH  36  40
ENDBRANCH  35  36
ENDBRANCH  31  35
ENDBRANCH  30  32
ENDBRANCH   1  30
BRANCH  16  42
ATOM     42  C   UNL     1       0.257   3.133   0.898  0.00  0.00    +0.165 C 
BRANCH  42  43
ATOM     43  O   UNL     1      -1.011   2.528   0.641  0.00  0.00    -0.394 OA
ATOM     44  H   UNL     1      -1.665   2.673   1.338  0.00  0.00    +0.209 HD
ENDBRANCH  42  43
ENDBRANCH  16  42
TORSDOF 10
