REMARK  Name = ZINC02363663
REMARK  9 active torsions:
REMARK  status: ('A' for Active; 'I' for Inactive)
REMARK    1  A    between atoms: C_1  and  C_2
REMARK    2  A    between atoms: C_2  and  C_3
REMARK    3  A    between atoms: C_2  and  O_4
REMARK    4  A    between atoms: O_4  and  C_5
REMARK    5  A    between atoms: C_8  and  C_11
REMARK    6  A    between atoms: C_14  and  O_32
REMARK    7  A    between atoms: N_16  and  C_23
REMARK    8  A    between atoms: C_28  and  C_30
REMARK    9  A    between atoms: C_28  and  C_31
REMARK                            x       y       z     vdW  Elec       q    Type
REMARK                         _______ _______ _______ _____ _____    ______ ____
ROOT
ATOM      1  C   UNL     1      -2.167  -5.641  -2.132  0.00  0.00    +0.115 C 
ATOM      2  C   UNL     1      -3.070  -5.526  -3.320  0.00  0.00    +0.072 A 
ATOM      3  C   UNL     1      -3.172  -4.332  -4.071  0.00  0.00    +0.238 A 
ATOM      4  N   UNL     1      -4.029  -4.518  -5.038  0.00  0.00    -0.131 NA
ATOM      5  N   UNL     1      -4.507  -5.825  -4.948  0.00  0.00    -0.243 N 
ATOM      6  C   UNL     1      -3.898  -6.436  -3.877  0.00  0.00    +0.132 A 
ATOM      7  N   UNL     1      -4.176  -7.742  -3.554  0.00  0.00    -0.270 N 
ATOM      8  C   UNL     1      -3.810  -8.550  -2.604  0.00  0.00    +0.228 C 
ATOM      9  O   UNL     1      -4.372  -9.626  -2.606  0.00  0.00    -0.275 OA
ATOM     10  C   UNL     1      -2.818  -8.368  -1.524  0.00  0.00    +0.166 C 
ATOM     11  S   UNL     1      -2.824  -6.703  -0.844  0.00  0.00    -0.138 S 
ATOM     12  H   UNL     1      -4.789  -8.158  -4.180  0.00  0.00    +0.156 HD
ENDROOT
BRANCH   5  13
ATOM     13  C   UNL     1      -5.490  -6.442  -5.842  0.00  0.00    +0.114 C 
ATOM     14  C   UNL     1      -6.800  -5.651  -5.788  0.00  0.00    +0.055 C 
ATOM     15  C   UNL     1      -7.794  -6.255  -6.783  0.00  0.00    +0.162 C 
ATOM     16  O   UNL     1      -7.224  -6.239  -8.093  0.00  0.00    -0.374 OA
ATOM     17  C   UNL     1      -6.021  -7.002  -8.216  0.00  0.00    +0.066 C 
ATOM     18  C   UNL     1      -4.955  -6.429  -7.278  0.00  0.00    +0.061 C 
ATOM     19  C   UNL     1      -5.520  -6.935  -9.660  0.00  0.00    +0.041 C 
ATOM     20  C   UNL     1      -6.301  -8.458  -7.840  0.00  0.00    +0.041 C 
ENDBRANCH   5  13
BRANCH   1  24
ATOM     21  C   UNL     1      -1.538  -1.739  -0.505  0.00  0.00    +0.121 A 
ATOM     22  C   UNL     1      -0.465  -2.468  -0.997  0.00  0.00    +0.046 A 
ATOM     23  C   UNL     1      -0.671  -3.729  -1.522  0.00  0.00    +0.008 A 
ATOM     24  C   UNL     1      -1.945  -4.265  -1.558  0.00  0.00    -0.030 A 
ATOM     25  C   UNL     1      -3.017  -3.540  -1.070  0.00  0.00    +0.008 A 
ATOM     26  C   UNL     1      -2.815  -2.281  -0.538  0.00  0.00    +0.046 A 
BRANCH  21  27
ATOM     27  O   UNL     1      -1.339  -0.499   0.012  0.00  0.00    -0.489 OA
BRANCH  27  29
ATOM     28  C   UNL     1      -1.982   1.168   1.640  0.00  0.00    +0.051 C 
ATOM     29  C   UNL     1      -2.466   0.143   0.612  0.00  0.00    +0.167 C 
ATOM     30  C   UNL     1      -3.283   0.853  -0.469  0.00  0.00    +0.051 C 
ENDBRANCH  27  29
ENDBRANCH  21  27
ENDBRANCH   1  24
BRANCH   3  31
ATOM     31  O   UNL     1      -2.491  -3.180  -3.827  0.00  0.00    -0.491 OA
ATOM     32  H   UNL     1      -1.640  -3.123  -4.282  0.00  0.00    +0.294 HD
ENDBRANCH   3  31
TORSDOF 5
