REMARK  Name = ZINC64600529
REMARK  7 active torsions:
REMARK  status: ('A' for Active; 'I' for Inactive)
REMARK    1  A    between atoms: C_1  and  C_2
REMARK    2  A    between atoms: C_7  and  O_31
REMARK    3  A    between atoms: C_13  and  C_15
REMARK    4  A    between atoms: C_15  and  C_16
REMARK    5  A    between atoms: N_18  and  C_19
REMARK    6  A    between atoms: C_19  and  C_20
REMARK    7  A    between atoms: C_20  and  C_21
REMARK                            x       y       z     vdW  Elec       q    Type
REMARK                         _______ _______ _______ _____ _____    ______ ____
ROOT
ATOM      1  C   UNL     1       1.070  -2.455   2.748  0.00  0.00    +0.214 C 
ATOM      2  O   UNL     1       1.695  -1.671   3.431  0.00  0.00    -0.276 OA
ATOM      3  N   UNL     1       0.937  -3.736   3.144  0.00  0.00    -0.315 N 
ATOM      4  H   UNL     1       0.437  -4.363   2.598  0.00  0.00    +0.149 HD
ENDROOT
BRANCH   1   5
ATOM      5  C   UNL     1       0.441  -1.995   1.458  0.00  0.00    +0.111 C 
BRANCH   5  17
ATOM      6  C   UNL     1      -0.019   1.526   0.010  0.00  0.00    +0.013 C 
ATOM      7  C   UNL     1       0.002  -0.004   0.002  0.00  0.00    +0.034 C 
ATOM      8  C   UNL     1       0.705  -0.489  -1.241  0.00  0.00    -0.001 A 
ATOM      9  C   UNL     1      -0.004  -0.514  -2.432  0.00  0.00    +0.011 A 
ATOM     10  C   UNL     1       0.599  -0.943  -3.596  0.00  0.00    +0.046 A 
ATOM     11  C   UNL     1       1.925  -1.353  -3.580  0.00  0.00    +0.120 A 
ATOM     12  C   UNL     1       2.636  -1.332  -2.392  0.00  0.00    +0.092 A 
ATOM     13  C   UNL     1       2.025  -0.903  -1.219  0.00  0.00    +0.139 A 
ATOM     14  O   UNL     1       2.754  -0.916  -0.069  0.00  0.00    -0.425 OA
ATOM     15  C   UNL     1       2.223  -0.312   1.012  0.00  0.00    +0.316 C 
ATOM     16  O   UNL     1       2.898   0.355   1.760  0.00  0.00    -0.250 OA
ATOM     17  C   UNL     1       0.740  -0.510   1.245  0.00  0.00    +0.114 C 
BRANCH  11  18
ATOM     18  O   UNL     1       2.524  -1.772  -4.725  0.00  0.00    -0.507 OA
ATOM     19  H   UNL     1       2.955  -1.065  -5.225  0.00  0.00    +0.292 HD
ENDBRANCH  11  18
ENDBRANCH   5  17
ENDBRANCH   1   5
BRANCH   3  20
ATOM     20  C   UNL     1       1.548  -4.183   4.398  0.00  0.00    +0.108 C 
BRANCH  20  21
ATOM     21  C   UNL     1       1.249  -5.668   4.611  0.00  0.00    +0.052 C 
BRANCH  21  22
ATOM     22  C   UNL     1       1.878  -6.127   5.901  0.00  0.00    -0.040 C 
ATOM     23  C   UNL     1       1.281  -6.210   7.112  0.00  0.00    +0.000 A 
ATOM     24  C   UNL     1      -0.080  -5.908   7.572  0.00  0.00    +0.030 A 
ATOM     25  C   UNL     1      -0.388  -6.095   8.877  0.00  0.00    +0.042 A 
ATOM     26  C   UNL     1       0.559  -6.568   9.797  0.00  0.00    +0.022 A 
ATOM     27  C   UNL     1       1.829  -6.867   9.449  0.00  0.00    +0.027 A 
ATOM     28  C   UNL     1       2.261  -6.709   8.103  0.00  0.00    +0.043 A 
ATOM     29  N   UNL     1       3.419  -6.926   7.527  0.00  0.00    -0.380 N 
ATOM     30  C   UNL     1       3.302  -6.595   6.103  0.00  0.00    +0.144 C 
ATOM     31 CL   UNL     1      -1.996  -5.739   9.425  0.00  0.00    -0.084 Cl
ATOM     32  H   UNL     1       4.218  -7.254   7.969  0.00  0.00    +0.160 HD
ENDBRANCH  21  22
ENDBRANCH  20  21
ENDBRANCH   3  20
TORSDOF 6
