REMARK  Name = ZINC60332616
REMARK  7 active torsions:
REMARK  status: ('A' for Active; 'I' for Inactive)
REMARK    1  A    between atoms: C_1  and  C_2
REMARK    2  A    between atoms: C_2  and  N_3
REMARK    3  A    between atoms: C_16  and  C_17
REMARK    4  A    between atoms: C_17  and  N_18
REMARK    5  A    between atoms: N_18  and  C_19
REMARK    6  A    between atoms: C_24  and  N_25
REMARK    7  A    between atoms: N_25  and  C_26
REMARK                            x       y       z     vdW  Elec       q    Type
REMARK                         _______ _______ _______ _____ _____    ______ ____
ROOT
ATOM      1  N   UNL     1       0.214  -0.632   6.639  0.00  0.00    -0.335 N 
ATOM      2  H   UNL     1       0.333   0.256   6.267  0.00  0.00    +0.147 HD
ENDROOT
BRANCH   1   3
ATOM      3  C   UNL     1       0.434  -0.854   8.001  0.00  0.00    +0.047 A 
ATOM      4  C   UNL     1       0.395  -2.145   8.511  0.00  0.00    +0.025 A 
ATOM      5  C   UNL     1       0.613  -2.360   9.858  0.00  0.00    +0.002 A 
ATOM      6  C   UNL     1       0.872  -1.292  10.698  0.00  0.00    +0.002 A 
ATOM      7  C   UNL     1       0.911  -0.006  10.193  0.00  0.00    +0.023 A 
ATOM      8  C   UNL     1       0.700   0.216   8.846  0.00  0.00    +0.033 A 
BRANCH   8   9
ATOM      9  N   UNL     1       0.746   1.517   8.335  0.00  0.00    -0.399 NA
ATOM     10  H   UNL     1       1.382   2.072   8.888  0.00  0.00    +0.124 HD
ATOM     11  H   UNL     1       1.066   1.491   7.379  0.00  0.00    +0.124 HD
BRANCH   9  12
ATOM     12  C   UNL     1      -0.596   2.111   8.387  0.00  0.00    +0.017 C 
ATOM     13  C   UNL     1      -1.120   2.065   9.823  0.00  0.00    +0.027 C 
ATOM     14  C   UNL     1      -2.518   2.684   9.877  0.00  0.00    -0.008 C 
ATOM     15  C   UNL     1      -2.450   4.138   9.406  0.00  0.00    +0.007 C 
ATOM     16  C   UNL     1      -1.926   4.185   7.969  0.00  0.00    -0.008 C 
ATOM     17  C   UNL     1      -0.528   3.566   7.915  0.00  0.00    +0.027 C 
ATOM     18  C   UNL     1      -2.868   3.397   7.057  0.00  0.00    +0.007 C 
ATOM     19  C   UNL     1      -2.936   1.943   7.528  0.00  0.00    -0.008 C 
ATOM     20  C   UNL     1      -3.460   1.896   8.965  0.00  0.00    +0.007 C 
ATOM     21  C   UNL     1      -1.538   1.323   7.475  0.00  0.00    +0.027 C 
ENDBRANCH   9  12
ENDBRANCH   8   9
ENDBRANCH   1   3
BRANCH   1  22
ATOM     22  C   UNL     1      -0.196  -1.741   5.774  0.00  0.00    +0.178 C 
BRANCH  22  36
ATOM     23  N   UNL     1       0.731  -0.322   1.165  0.00  0.00    -0.277 N 
ATOM     24  C   UNL     1       2.068  -0.501   1.121  0.00  0.00    +0.263 A 
ATOM     25  O   UNL     1       2.693  -0.251   0.108  0.00  0.00    -0.267 OA
ATOM     26  C   UNL     1       2.757  -1.007   2.322  0.00  0.00    +0.063 A 
ATOM     27  C   UNL     1       4.136  -1.211   2.335  0.00  0.00    +0.015 A 
ATOM     28  C   UNL     1       4.744  -1.684   3.479  0.00  0.00    +0.001 A 
ATOM     29  C   UNL     1       3.991  -1.957   4.611  0.00  0.00    +0.002 A 
ATOM     30  C   UNL     1       2.625  -1.759   4.610  0.00  0.00    +0.027 A 
ATOM     31  C   UNL     1       1.996  -1.283   3.470  0.00  0.00    +0.063 A 
ATOM     32  N   UNL     1       0.624  -1.072   3.437  0.00  0.00    -0.263 N 
ATOM     33  C   UNL     1       0.013  -0.598   2.313  0.00  0.00    +0.239 A 
ATOM     34  N   UNL     1      -1.268  -0.499   2.590  0.00  0.00    -0.110 NA
ATOM     35  N   UNL     1      -1.484  -0.872   3.801  0.00  0.00    -0.131 NA
ATOM     36  C   UNL     1      -0.366  -1.240   4.363  0.00  0.00    +0.157 A 
BRANCH  23  38
ATOM     37  C   UNL     1      -0.009   1.709   0.019  0.00  0.00    +0.027 C 
ATOM     38  C   UNL     1       0.032   0.180  -0.021  0.00  0.00    +0.125 C 
ENDBRANCH  23  38
ENDBRANCH  22  36
ENDBRANCH   1  22
TORSDOF 6
