REMARK  Name = ZINC40659078
REMARK  8 active torsions:
REMARK  status: ('A' for Active; 'I' for Inactive)
REMARK    1  A    between atoms: C_4  and  C_7
REMARK    2  A    between atoms: C_7  and  C_8
REMARK    3  A    between atoms: C_7  and  C_14
REMARK    4  A    between atoms: N_16  and  N_17
REMARK    5  A    between atoms: C_19  and  N_34
REMARK    6  A    between atoms: C_20  and  N_24
REMARK    7  A    between atoms: N_24  and  N_25
REMARK    8  A    between atoms: C_26  and  C_28
REMARK                            x       y       z     vdW  Elec       q    Type
REMARK                         _______ _______ _______ _____ _____    ______ ____
ROOT
ATOM      1  N   UNL     1       3.557  -2.077  -3.544  0.00  0.00    -0.246 N 
ATOM      2  C   UNL     1       3.421  -1.591  -4.835  0.00  0.00    +0.171 A 
ATOM      3  C   UNL     1       3.403  -2.464  -5.919  0.00  0.00    +0.208 A 
ATOM      4  C   UNL     1       3.264  -1.927  -7.195  0.00  0.00    +0.171 A 
ATOM      5  N   UNL     1       3.153  -0.607  -7.332  0.00  0.00    -0.217 NA
ATOM      6  C   UNL     1       3.174   0.186  -6.281  0.00  0.00    +0.225 A 
ATOM      7  N   UNL     1       3.299  -0.284  -5.056  0.00  0.00    -0.217 NA
ATOM      8  H   UNL     1       3.645  -3.031  -3.391  0.00  0.00    +0.172 HD
ENDROOT
BRANCH   1  11
ATOM      9  C   UNL     1       3.700  -1.661  -1.204  0.00  0.00    +0.241 C 
ATOM     10  O   UNL     1       3.810  -2.854  -1.013  0.00  0.00    -0.273 OA
ATOM     11  N   UNL     1       3.567  -1.190  -2.459  0.00  0.00    -0.235 N 
ATOM     12  H   UNL     1       3.479  -0.236  -2.612  0.00  0.00    +0.173 HD
BRANCH   9  13
ATOM     13  C   UNL     1       3.711  -0.707  -0.038  0.00  0.00    +0.136 C 
BRANCH  13  17
ATOM     14  C   UNL     1       0.035   1.467   0.061  0.00  0.00    +0.000 A 
ATOM     15  C   UNL     1       0.020   0.087  -0.022  0.00  0.00    +0.000 A 
ATOM     16  C   UNL     1       1.210  -0.617  -0.054  0.00  0.00    +0.005 A 
ATOM     17  C   UNL     1       2.414   0.060  -0.004  0.00  0.00    -0.031 A 
ATOM     18  C   UNL     1       2.429   1.440   0.079  0.00  0.00    +0.005 A 
ATOM     19  C   UNL     1       1.240   2.143   0.112  0.00  0.00    +0.000 A 
ENDBRANCH  13  17
BRANCH  13  20
ATOM     20  C   UNL     1       3.870  -1.483   1.245  0.00  0.00    -0.031 A 
ATOM     21  C   UNL     1       3.012  -2.528   1.531  0.00  0.00    +0.005 A 
ATOM     22  C   UNL     1       3.158  -3.240   2.707  0.00  0.00    +0.000 A 
ATOM     23  C   UNL     1       4.161  -2.906   3.597  0.00  0.00    +0.000 A 
ATOM     24  C   UNL     1       5.020  -1.861   3.310  0.00  0.00    +0.000 A 
ATOM     25  C   UNL     1       4.877  -1.153   2.132  0.00  0.00    +0.005 A 
ENDBRANCH  13  20
ENDBRANCH   9  13
ENDBRANCH   1  11
BRANCH   3  26
ATOM     26  N   UNL     1       3.530  -3.925  -5.720  0.00  0.00    +0.063 N 
ATOM     27  O   UNL     1       2.541  -4.601  -5.558  0.00  0.00    -0.126 OA
ATOM     28  O   UNL     1       4.623  -4.443  -5.719  0.00  0.00    -0.126 OA
ENDBRANCH   3  26
BRANCH   4  29
ATOM     29  N   UNL     1       3.241  -2.754  -8.307  0.00  0.00    -0.246 N 
ATOM     30  H   UNL     1       3.323  -3.715  -8.199  0.00  0.00    +0.172 HD
BRANCH  29  31
ATOM     31  N   UNL     1       3.100  -2.203  -9.588  0.00  0.00    -0.230 N 
ATOM     32  C   UNL     1       3.078  -3.007 -10.669  0.00  0.00    +0.278 C 
ATOM     33  O   UNL     1       3.180  -4.210 -10.534  0.00  0.00    -0.267 OA
ATOM     34  H   UNL     1       3.019  -1.242  -9.695  0.00  0.00    +0.173 HD
BRANCH  32  35
ATOM     35  C   UNL     1       2.929  -2.424 -12.023  0.00  0.00    +0.127 A 
ATOM     36  C   UNL     1       2.901  -3.260 -13.136  0.00  0.00    +0.033 A 
ATOM     37  C   UNL     1       2.761  -2.700 -14.396  0.00  0.00    +0.004 A 
ATOM     38  C   UNL     1       2.654  -1.322 -14.499  0.00  0.00    +0.020 A 
ATOM     39  C   UNL     1       2.689  -0.550 -13.348  0.00  0.00    +0.111 A 
ATOM     40  N   UNL     1       2.818  -1.109 -12.164  0.00  0.00    -0.250 NA
ENDBRANCH  32  35
ENDBRANCH  29  31
ENDBRANCH   4  29
TORSDOF 8
