REMARK  Name = ZINC12503308
REMARK  8 active torsions:
REMARK  status: ('A' for Active; 'I' for Inactive)
REMARK    1  A    between atoms: C_9  and  O_12
REMARK    2  A    between atoms: O_12  and  C_13
REMARK    3  A    between atoms: C_13  and  C_14
REMARK    4  A    between atoms: N_16  and  C_17
REMARK    5  A    between atoms: C_17  and  N_19
REMARK    6  A    between atoms: N_19  and  N_20
REMARK    7  A    between atoms: C_21  and  C_23
REMARK    8  A    between atoms: C_28  and  N_29
REMARK                            x       y       z     vdW  Elec       q    Type
REMARK                         _______ _______ _______ _____ _____    ______ ____
ROOT
ATOM      1  C   UNL     1       2.581   9.725   2.681  0.00  0.00    +0.256 C 
ATOM      2  O   UNL     1       1.497  10.201   2.944  0.00  0.00    -0.272 OA
ATOM      3  N   UNL     1       3.551  10.504   2.162  0.00  0.00    -0.264 N 
ATOM      4  H   UNL     1       4.418  10.123   1.952  0.00  0.00    +0.157 HD
ENDROOT
BRANCH   3   5
ATOM      5  C   UNL     1       3.317  11.812   1.937  0.00  0.00    +0.153 C 
ATOM      6  S   UNL     1       1.786  12.484   2.308  0.00  0.00    -0.017 S 
BRANCH   5   7
ATOM      7  N   UNL     1       4.287  12.591   1.418  0.00  0.00    -0.245 N 
ATOM      8  H   UNL     1       4.118  13.532   1.255  0.00  0.00    +0.172 HD
BRANCH   7   9
ATOM      9  N   UNL     1       5.539  12.041   1.114  0.00  0.00    -0.231 N 
ATOM     10  C   UNL     1       6.509  12.819   0.595  0.00  0.00    +0.262 C 
ATOM     11  O   UNL     1       6.297  13.999   0.391  0.00  0.00    -0.269 OA
ATOM     12  H   UNL     1       5.707  11.099   1.276  0.00  0.00    +0.173 HD
BRANCH  10  13
ATOM     13  C   UNL     1       7.830  12.239   0.274  0.00  0.00    +0.068 A 
ATOM     14  C   UNL     1       8.034  10.862   0.374  0.00  0.00    +0.015 A 
ATOM     15  C   UNL     1       9.268  10.326   0.069  0.00  0.00    +0.001 A 
ATOM     16  C   UNL     1      10.305  11.152  -0.327  0.00  0.00    +0.002 A 
ATOM     17  C   UNL     1      10.111  12.519  -0.423  0.00  0.00    +0.033 A 
ATOM     18  C   UNL     1       8.880  13.067  -0.125  0.00  0.00    +0.138 A 
BRANCH  18  19
ATOM     19  N   UNL     1       8.675  14.529  -0.228  0.00  0.00    +0.057 N 
ATOM     20  O   UNL     1       8.992  15.118  -1.246  0.00  0.00    -0.126 OA
ATOM     21  O   UNL     1       8.189  15.143   0.705  0.00  0.00    -0.126 OA
ENDBRANCH  18  19
ENDBRANCH  10  13
ENDBRANCH   7   9
ENDBRANCH   5   7
ENDBRANCH   3   5
BRANCH   1  22
ATOM     22  C   UNL     1       2.843   8.263   2.933  0.00  0.00    +0.325 C 
BRANCH  22  23
ATOM     23  O   UNL     1       1.671   7.656   3.482  0.00  0.00    -0.482 OA
BRANCH  23  32
ATOM     24  C   UNL     1       0.908   1.611   5.164  0.00  0.00    +0.001 A 
ATOM     25  C   UNL     1      -0.278   2.300   5.407  0.00  0.00    +0.001 A 
ATOM     26  C   UNL     1      -0.383   3.630   5.137  0.00  0.00    +0.010 A 
ATOM     27  C   UNL     1       0.716   4.319   4.596  0.00  0.00    -0.000 A 
ATOM     28  C   UNL     1       1.921   3.616   4.343  0.00  0.00    -0.017 A 
ATOM     29  C   UNL     1       1.993   2.244   4.640  0.00  0.00    +0.008 A 
ATOM     30  C   UNL     1       3.022   4.301   3.802  0.00  0.00    +0.012 A 
ATOM     31  C   UNL     1       2.924   5.629   3.523  0.00  0.00    +0.047 A 
ATOM     32  C   UNL     1       1.740   6.330   3.769  0.00  0.00    +0.136 A 
ATOM     33  C   UNL     1       0.642   5.690   4.299  0.00  0.00    +0.067 A 
ATOM     34 BR   UNL     1      -0.954   6.650   4.626  0.00  0.00    -0.046 Br
ENDBRANCH  23  32
ENDBRANCH  22  23
ENDBRANCH   1  22
TORSDOF 8
