REMARK  Name = ZINC01098226
REMARK  7 active torsions:
REMARK  status: ('A' for Active; 'I' for Inactive)
REMARK    1  A    between atoms: C_1  and  O_2
REMARK    2  A    between atoms: O_2  and  C_3
REMARK    3  A    between atoms: C_8  and  O_9
REMARK    4  A    between atoms: O_9  and  C_10
REMARK    5  A    between atoms: C_13  and  S_16
REMARK    6  A    between atoms: S_16  and  N_19
REMARK    7  A    between atoms: N_19  and  N_20
REMARK                            x       y       z     vdW  Elec       q    Type
REMARK                         _______ _______ _______ _____ _____    ______ ____
ROOT
ATOM      1  S   UNL     1      -4.103   4.527   8.764  0.00  0.00    +0.074 S 
ATOM      2  O   UNL     1      -4.887   5.710   8.683  0.00  0.00    -0.152 OA
ATOM      3  O   UNL     1      -4.564   3.351   9.415  0.00  0.00    -0.152 OA
ENDROOT
BRANCH   1   7
ATOM      4  C   UNL     1      -3.103   3.344   4.508  0.00  0.00    +0.129 A 
ATOM      5  C   UNL     1      -3.408   4.664   4.810  0.00  0.00    +0.048 A 
ATOM      6  C   UNL     1      -3.718   5.021   6.108  0.00  0.00    +0.032 A 
ATOM      7  C   UNL     1      -3.714   4.067   7.108  0.00  0.00    +0.107 A 
ATOM      8  C   UNL     1      -3.407   2.752   6.811  0.00  0.00    +0.032 A 
ATOM      9  C   UNL     1      -3.101   2.388   5.514  0.00  0.00    +0.048 A 
BRANCH   4  10
ATOM     10  O   UNL     1      -2.802   2.989   3.232  0.00  0.00    -0.452 OA
BRANCH  10  16
ATOM     11  C   UNL     1      -1.539   4.704   2.162  0.00  0.00    +0.162 A 
ATOM     12  C   UNL     1      -1.454   5.703   1.206  0.00  0.00    +0.049 A 
ATOM     13  C   UNL     1      -2.539   5.978   0.394  0.00  0.00    +0.004 A 
ATOM     14  C   UNL     1      -3.710   5.256   0.534  0.00  0.00    +0.004 A 
ATOM     15  C   UNL     1      -3.802   4.258   1.486  0.00  0.00    +0.050 A 
ATOM     16  C   UNL     1      -2.716   3.975   2.299  0.00  0.00    +0.170 A 
BRANCH  11  18
ATOM     17  C   UNL     1       0.705   5.218   2.760  0.00  0.00    +0.277 C 
ATOM     18  O   UNL     1      -0.472   4.434   2.961  0.00  0.00    -0.491 OA
ENDBRANCH  11  18
ENDBRANCH  10  16
ENDBRANCH   4  10
ENDBRANCH   1   7
BRANCH   1  19
ATOM     19  N   UNL     1      -2.682   4.950   9.501  0.00  0.00    -0.109 NA
ATOM     20  H   UNL     1      -2.380   4.466  10.286  0.00  0.00    +0.172 HD
BRANCH  19  21
ATOM     21  N   UNL     1      -1.916   6.006   8.991  0.00  0.00    -0.245 N 
ATOM     22  C   UNL     1      -1.559   7.061   9.812  0.00  0.00    +0.145 A 
ATOM     23  C   UNL     1      -1.070   8.275   9.254  0.00  0.00    +0.052 A 
ATOM     24  C   UNL     1      -0.864   8.619   7.846  0.00  0.00    -0.025 A 
ATOM     25  C   UNL     1      -0.384   9.851   7.582  0.00  0.00    -0.004 A 
ATOM     26  S   UNL     1      -0.179  10.618   9.168  0.00  0.00    -0.073 S 
ATOM     27  C   UNL     1      -0.740   9.279  10.186  0.00  0.00    +0.114 A 
ATOM     28  N   UNL     1      -0.880   9.088  11.484  0.00  0.00    -0.228 NA
ATOM     29  C   UNL     1      -1.338   7.939  11.942  0.00  0.00    +0.224 A 
ATOM     30  N   UNL     1      -1.674   6.956  11.126  0.00  0.00    -0.219 NA
ATOM     31  C   UNL     1      -0.088  10.441   6.237  0.00  0.00    +0.043 C 
ATOM     32  C   UNL     1      -0.059   9.305   5.205  0.00  0.00    +0.005 C 
ATOM     33  C   UNL     1      -1.299   8.428   5.407  0.00  0.00    +0.005 C 
ATOM     34  C   UNL     1      -1.173   7.644   6.714  0.00  0.00    +0.037 C 
ATOM     35  H   UNL     1      -1.635   5.997   8.063  0.00  0.00    +0.169 HD
ENDBRANCH  19  21
ENDBRANCH   1  19
TORSDOF 6
