REMARK  Name = ZINC45984729
REMARK  11 active torsions:
REMARK  status: ('A' for Active; 'I' for Inactive)
REMARK    1  A    between atoms: C_1  and  C_2
REMARK    2  A    between atoms: N_8  and  C_9
REMARK    3  A    between atoms: C_9  and  C_11
REMARK    4  A    between atoms: C_9  and  C_12
REMARK    5  A    between atoms: C_12  and  N_13
REMARK    6  A    between atoms: N_16  and  C_17
REMARK    7  A    between atoms: C_20  and  S_23
REMARK    8  A    between atoms: S_23  and  N_26
REMARK    9  A    between atoms: N_26  and  C_27
REMARK   10  A    between atoms: N_26  and  O_28
REMARK   11  A    between atoms: O_28  and  C_29
REMARK                            x       y       z     vdW  Elec       q    Type
REMARK                         _______ _______ _______ _____ _____    ______ ____
ROOT
ATOM      1  N   UNL     1      -1.334   1.941   1.043  0.00  0.00    -0.301 N 
ATOM      2  C   UNL     1      -1.602   3.201   0.648  0.00  0.00    +0.304 C 
ATOM      3  O   UNL     1      -1.636   4.101   1.466  0.00  0.00    -0.253 OA
ATOM      4  N   UNL     1      -1.831   3.465  -0.654  0.00  0.00    -0.269 N 
ATOM      5  H   UNL     1      -1.233   1.237   0.384  0.00  0.00    +0.150 HD
ATOM      6  H   UNL     1      -1.858   2.740  -1.298  0.00  0.00    +0.156 HD
ENDROOT
BRANCH   4   7
ATOM      7  C   UNL     1      -2.029   4.784  -1.076  0.00  0.00    +0.035 A 
ATOM      8  C   UNL     1      -1.340   5.822  -0.463  0.00  0.00    +0.025 A 
ATOM      9  C   UNL     1      -1.538   7.123  -0.882  0.00  0.00    +0.030 A 
ATOM     10  C   UNL     1      -2.420   7.393  -1.912  0.00  0.00    +0.108 A 
ATOM     11  C   UNL     1      -3.108   6.361  -2.525  0.00  0.00    +0.030 A 
ATOM     12  C   UNL     1      -2.910   5.058  -2.114  0.00  0.00    +0.025 A 
BRANCH  10  13
ATOM     13  S   UNL     1      -2.670   9.054  -2.445  0.00  0.00    +0.082 S 
ATOM     14  O   UNL     1      -3.951   9.096  -3.056  0.00  0.00    -0.151 OA
ATOM     15  O   UNL     1      -2.320   9.888  -1.349  0.00  0.00    -0.151 OA
BRANCH  13  16
ATOM     16  N   UNL     1      -1.564   9.356  -3.640  0.00  0.00    -0.058 NA
ATOM     17  C   UNL     1      -1.942   9.190  -5.046  0.00  0.00    +0.166 C 
BRANCH  16  18
ATOM     18  O   UNL     1      -0.254   9.774  -3.304  0.00  0.00    -0.280 OA
ATOM     19  C   UNL     1       0.671   8.699  -3.123  0.00  0.00    +0.223 C 
ENDBRANCH  16  18
ENDBRANCH  13  16
ENDBRANCH  10  13
ENDBRANCH   4   7
BRANCH   1  20
ATOM     20  C   UNL     1      -1.196   1.635   2.469  0.00  0.00    +0.090 C 
BRANCH  20  21
ATOM     21  C   UNL     1      -1.006   0.127   2.651  0.00  0.00    -0.054 C 
ATOM     22  C   UNL     1      -0.731  -0.178   4.125  0.00  0.00    -0.012 C 
BRANCH  21  29
ATOM     23  C   UNL     1      -0.985  -2.493   1.643  0.00  0.00    -0.013 C 
ATOM     24  C   UNL     1       0.312  -1.770   2.011  0.00  0.00    -0.071 C 
ATOM     25  C   UNL     1       1.443  -2.259   1.104  0.00  0.00    -0.016 C 
ATOM     26  C   UNL     1       2.739  -1.533   1.476  0.00  0.00    -0.003 C 
ATOM     27  C   UNL     1       2.516  -0.022   1.363  0.00  0.00    -0.019 C 
ATOM     28  C   UNL     1       1.345   0.384   2.261  0.00  0.00    -0.078 C 
ATOM     29  N   UNL     1       0.131  -0.324   1.837  0.00  0.00    +0.384 N 
ATOM     30  H   UNL     1      -0.053  -0.123   0.866  0.00  0.00    -0.081 HD
ENDBRANCH  21  29
ENDBRANCH  20  21
ENDBRANCH   1  20
TORSDOF 7
