REMARK  Name = ZINC64661399
REMARK  7 active torsions:
REMARK  status: ('A' for Active; 'I' for Inactive)
REMARK    1  A    between atoms: C_1  and  O_2
REMARK    2  A    between atoms: O_2  and  C_3
REMARK    3  A    between atoms: N_5  and  C_6
REMARK    4  A    between atoms: C_12  and  C_13
REMARK    5  A    between atoms: N_15  and  C_16
REMARK    6  A    between atoms: C_16  and  C_17
REMARK    7  A    between atoms: C_17  and  C_18
REMARK                            x       y       z     vdW  Elec       q    Type
REMARK                         _______ _______ _______ _____ _____    ______ ____
ROOT
ATOM      1  C   UNL     1      -2.797  -6.650   1.281  0.00  0.00    +0.238 C 
ATOM      2  O   UNL     1      -1.992  -5.929   1.844  0.00  0.00    -0.271 OA
ATOM      3  N   UNL     1      -2.990  -7.911   1.713  0.00  0.00    -0.311 N 
ATOM      4  H   UNL     1      -3.631  -8.485   1.264  0.00  0.00    +0.149 HD
ENDROOT
BRANCH   1  10
ATOM      5  C   UNL     1      -2.272  -2.754  -0.088  0.00  0.00    +0.222 C 
ATOM      6  N   UNL     1      -2.199  -4.220   0.100  0.00  0.00    -0.320 N 
ATOM      7  C   UNL     1      -3.251  -4.943  -0.335  0.00  0.00    +0.021 C 
ATOM      8  C   UNL     1      -4.111  -4.320  -1.423  0.00  0.00    +0.123 C 
ATOM      9  S   UNL     1      -3.322  -2.663  -1.602  0.00  0.00    -0.113 S 
ATOM     10  C   UNL     1      -3.528  -6.162   0.172  0.00  0.00    +0.086 C 
ATOM     11  H   UNL     1      -1.430  -4.641   0.516  0.00  0.00    +0.148 HD
BRANCH   5  14
ATOM     12  C   UNL     1      -0.769  -0.847  -0.298  0.00  0.00    +0.402 C 
ATOM     13  O   UNL     1      -1.712  -0.116  -0.072  0.00  0.00    -0.226 OA
ATOM     14  N   UNL     1      -0.944  -2.183  -0.328  0.00  0.00    -0.254 N 
ATOM     15  H   UNL     1      -0.190  -2.767  -0.509  0.00  0.00    +0.155 HD
BRANCH  12  17
ATOM     16  C   UNL     1       0.564   1.101  -0.472  0.00  0.00    +0.282 C 
ATOM     17  O   UNL     1       0.451  -0.323  -0.519  0.00  0.00    -0.454 OA
ENDBRANCH  12  17
ENDBRANCH   5  14
ENDBRANCH   1  10
BRANCH   3  18
ATOM     18  C   UNL     1      -2.233  -8.416   2.861  0.00  0.00    +0.109 C 
BRANCH  18  19
ATOM     19  C   UNL     1      -2.639  -9.864   3.143  0.00  0.00    +0.052 C 
BRANCH  19  20
ATOM     20  C   UNL     1      -1.860 -10.384   4.323  0.00  0.00    -0.040 C 
ATOM     21  C   UNL     1      -2.260 -10.406   5.615  0.00  0.00    -0.001 A 
ATOM     22  C   UNL     1      -3.492  -9.969   6.283  0.00  0.00    +0.010 A 
ATOM     23  C   UNL     1      -3.603 -10.124   7.622  0.00  0.00    +0.001 A 
ATOM     24  C   UNL     1      -2.573 -10.689   8.386  0.00  0.00    +0.002 A 
ATOM     25  C   UNL     1      -1.412 -11.114   7.845  0.00  0.00    +0.026 A 
ATOM     26  C   UNL     1      -1.188 -11.001   6.445  0.00  0.00    +0.043 A 
ATOM     27  N   UNL     1      -0.165 -11.333   5.696  0.00  0.00    -0.380 N 
ATOM     28  C   UNL     1      -0.475 -10.992   4.303  0.00  0.00    +0.144 C 
ATOM     29  H   UNL     1       0.658 -11.740   6.009  0.00  0.00    +0.160 HD
ENDBRANCH  19  20
ENDBRANCH  18  19
ENDBRANCH   3  18
TORSDOF 6
