REMARK  Name = ZINC06102956
REMARK  7 active torsions:
REMARK  status: ('A' for Active; 'I' for Inactive)
REMARK    1  A    between atoms: C_4  and  O_30
REMARK    2  A    between atoms: C_5  and  C_7
REMARK    3  A    between atoms: N_8  and  C_9
REMARK    4  A    between atoms: C_12  and  S_15
REMARK    5  A    between atoms: S_15  and  N_18
REMARK    6  A    between atoms: C_22  and  C_23
REMARK    7  A    between atoms: C_28  and  O_29
REMARK                            x       y       z     vdW  Elec       q    Type
REMARK                         _______ _______ _______ _____ _____    ______ ____
ROOT
ATOM      1  S   UNL     1       2.505  -8.695  -0.065  0.00  0.00    +0.102 S 
ATOM      2  O   UNL     1       3.778  -9.086  -0.560  0.00  0.00    -0.146 OA
ATOM      3  O   UNL     1       2.020  -9.111   1.204  0.00  0.00    -0.146 OA
ENDROOT
BRANCH   1   4
ATOM      4  N   UNL     1       1.389  -9.193  -1.184  0.00  0.00    -0.093 NA
ATOM      5  C   UNL     1       1.198 -10.469  -1.393  0.00  0.00    +0.219 C 
ATOM      6  N   UNL     1       1.925 -11.401  -0.681  0.00  0.00    -0.368 N 
ATOM      7  N   UNL     1       0.283 -10.877  -2.311  0.00  0.00    -0.331 N 
ATOM      8  C   UNL     1      -0.336  -9.996  -3.055  0.00  0.00    +0.097 C 
ATOM      9  H   UNL     1       2.629 -11.111  -0.080  0.00  0.00    +0.159 HD
ATOM     10  H   UNL     1       1.733 -12.346  -0.783  0.00  0.00    +0.159 HD
ATOM     11  H   UNL     1       0.088 -11.822  -2.415  0.00  0.00    +0.168 HD
BRANCH   8  12
ATOM     12  C   UNL     1      -1.402 -10.426  -3.967  0.00  0.00    +0.032 A 
ATOM     13  C   UNL     1      -2.145  -9.476  -4.679  0.00  0.00    +0.013 A 
ATOM     14  C   UNL     1      -3.144  -9.887  -5.533  0.00  0.00    +0.001 A 
ATOM     15  C   UNL     1      -3.420 -11.236  -5.691  0.00  0.00    +0.004 A 
ATOM     16  C   UNL     1      -2.696 -12.184  -4.995  0.00  0.00    +0.046 A 
ATOM     17  C   UNL     1      -1.681 -11.792  -4.135  0.00  0.00    +0.125 A 
BRANCH  17  18
ATOM     18  O   UNL     1      -0.966 -12.723  -3.456  0.00  0.00    -0.506 OA
ATOM     19  H   UNL     1      -1.341 -12.955  -2.595  0.00  0.00    +0.292 HD
ENDBRANCH  17  18
ENDBRANCH   8  12
ENDBRANCH   1   4
BRANCH   1  23
ATOM     20  C   UNL     1       2.456  -4.164  -0.050  0.00  0.00    +0.064 A 
ATOM     21  C   UNL     1       1.611  -4.877   0.803  0.00  0.00    +0.029 A 
ATOM     22  C   UNL     1       1.631  -6.256   0.793  0.00  0.00    +0.031 A 
ATOM     23  C   UNL     1       2.486  -6.933  -0.059  0.00  0.00    +0.113 A 
ATOM     24  C   UNL     1       3.326  -6.232  -0.906  0.00  0.00    +0.031 A 
ATOM     25  C   UNL     1       3.312  -4.853  -0.911  0.00  0.00    +0.029 A 
BRANCH  20  27
ATOM     26  C   UNL     1       1.305  -2.155  -0.035  0.00  0.00    +0.123 C 
ATOM     27  N   UNL     1       2.441  -2.795  -0.045  0.00  0.00    -0.255 NA
BRANCH  26  32
ATOM     28  C   UNL     1       0.066   1.383  -0.016  0.00  0.00    +0.001 A 
ATOM     29  C   UNL     1       1.259   2.089  -0.021  0.00  0.00    +0.004 A 
ATOM     30  C   UNL     1       2.467   1.419  -0.030  0.00  0.00    +0.046 A 
ATOM     31  C   UNL     1       2.494   0.034  -0.035  0.00  0.00    +0.125 A 
ATOM     32  C   UNL     1       1.289  -0.685  -0.030  0.00  0.00    +0.034 A 
ATOM     33  C   UNL     1       0.073   0.005  -0.021  0.00  0.00    +0.013 A 
BRANCH  31  34
ATOM     34  O   UNL     1       3.681  -0.625  -0.045  0.00  0.00    -0.506 OA
ATOM     35  H   UNL     1       4.031  -0.818   0.836  0.00  0.00    +0.292 HD
ENDBRANCH  31  34
ENDBRANCH  26  32
ENDBRANCH  20  27
ENDBRANCH   1  23
TORSDOF 7
