REMARK  Name = ZINC35745856
REMARK  18 active torsions:
REMARK  status: ('A' for Active; 'I' for Inactive)
REMARK    1  A    between atoms: C_1  and  C_2
REMARK    2  A    between atoms: C_7  and  C_8
REMARK    3  A    between atoms: C_17  and  C_19
REMARK    4  A    between atoms: C_19  and  N_20
REMARK    5  A    between atoms: N_20  and  C_21
REMARK    6  A    between atoms: N_20  and  C_26
REMARK    7  A    between atoms: C_21  and  C_22
REMARK    8  A    between atoms: C_22  and  C_23
REMARK    9  A    between atoms: C_23  and  C_24
REMARK   10  A    between atoms: C_23  and  C_25
REMARK   11  A    between atoms: C_26  and  C_27
REMARK   12  A    between atoms: C_27  and  C_29
REMARK   13  A    between atoms: C_27  and  O_35
REMARK   14  A    between atoms: C_29  and  O_30
REMARK   15  A    between atoms: O_30  and  C_31
REMARK   16  A    between atoms: C_31  and  C_32
REMARK   17  A    between atoms: C_32  and  C_33
REMARK   18  A    between atoms: C_32  and  C_34
REMARK                            x       y       z     vdW  Elec       q    Type
REMARK                         _______ _______ _______ _____ _____    ______ ____
ROOT
ATOM      1  C   UNL     1       2.112   2.390   3.400  0.00  0.00    +0.004 A 
ATOM      2  C   UNL     1       2.870   2.614   4.500  0.00  0.00    +0.056 A 
ATOM      3  S   UNL     1       1.694   3.218   5.696  0.00  0.00    -0.076 S 
ATOM      4  C   UNL     1       0.226   3.155   4.701  0.00  0.00    +0.116 A 
ATOM      5  C   UNL     1       0.683   2.673   3.464  0.00  0.00    +0.080 A 
ATOM      6  C   UNL     1      -0.316   2.525   2.449  0.00  0.00    +0.260 A 
ATOM      7  O   UNL     1      -0.017   2.109   1.342  0.00  0.00    -0.267 OA
ATOM      8  N   UNL     1      -1.589   2.852   2.735  0.00  0.00    -0.312 N 
ATOM      9  H   UNL     1      -2.270   2.754   2.051  0.00  0.00    +0.170 HD
ATOM     10  C   UNL     1      -1.940   3.316   3.961  0.00  0.00    +0.094 A 
ATOM     11  N   UNL     1      -1.053   3.453   4.910  0.00  0.00    -0.229 NA
ENDROOT
BRANCH   1  18
ATOM     12  C   UNL     1       2.146   4.042   1.026  0.00  0.00    +0.044 C 
ATOM     13  C   UNL     1       2.746   2.660   1.004  0.00  0.00    -0.043 A 
ATOM     14  C   UNL     1       3.323   2.174  -0.152  0.00  0.00    +0.004 A 
ATOM     15  C   UNL     1       3.874   0.906  -0.173  0.00  0.00    +0.000 A 
ATOM     16  C   UNL     1       3.850   0.117   0.963  0.00  0.00    +0.001 A 
ATOM     17  C   UNL     1       3.276   0.591   2.125  0.00  0.00    +0.009 A 
ATOM     18  C   UNL     1       2.724   1.871   2.154  0.00  0.00    -0.014 A 
ENDBRANCH   1  18
BRANCH  10  19
ATOM     19  C   UNL     1      -3.379   3.669   4.236  0.00  0.00    -0.003 C 
BRANCH  19  20
ATOM     20  N   UNL     1      -3.541   3.994   5.659  0.00  0.00    +0.386 N 
ATOM     21  H   UNL     1      -2.871   4.701   5.921  0.00  0.00    -0.081 HD
BRANCH  20  22
ATOM     22  C   UNL     1      -3.318   2.786   6.465  0.00  0.00    -0.078 C 
BRANCH  22  23
ATOM     23  C   UNL     1      -4.415   1.763   6.165  0.00  0.00    -0.016 C 
BRANCH  23  24
ATOM     24  C   UNL     1      -4.109   0.456   6.899  0.00  0.00    -0.019 C 
ATOM     25  C   UNL     1      -4.177   0.691   8.409  0.00  0.00    +0.007 C 
ATOM     26  C   UNL     1      -5.136  -0.606   6.501  0.00  0.00    +0.007 C 
ENDBRANCH  23  24
ENDBRANCH  22  23
ENDBRANCH  20  22
BRANCH  20  27
ATOM     27  C   UNL     1      -4.901   4.496   5.896  0.00  0.00    -0.044 C 
BRANCH  27  28
ATOM     28  C   UNL     1      -5.021   4.981   7.342  0.00  0.00    +0.124 C 
BRANCH  28  29
ATOM     29  O   UNL     1      -4.909   3.867   8.229  0.00  0.00    -0.391 OA
ATOM     30  H   UNL     1      -5.587   3.190   8.098  0.00  0.00    +0.210 HD
ENDBRANCH  28  29
BRANCH  28  31
ATOM     31  C   UNL     1      -6.379   5.658   7.542  0.00  0.00    +0.189 C 
BRANCH  31  32
ATOM     32  O   UNL     1      -6.446   6.213   8.857  0.00  0.00    -0.377 OA
BRANCH  32  33
ATOM     33  C   UNL     1      -7.680   6.872   9.147  0.00  0.00    +0.163 C 
BRANCH  33  34
ATOM     34  C   UNL     1      -7.640   7.424  10.573  0.00  0.00    +0.009 C 
ATOM     35  C   UNL     1      -6.568   8.512  10.668  0.00  0.00    +0.009 C 
ATOM     36  C   UNL     1      -9.004   8.019  10.929  0.00  0.00    +0.009 C 
ENDBRANCH  33  34
ENDBRANCH  32  33
ENDBRANCH  31  32
ENDBRANCH  28  31
ENDBRANCH  27  28
ENDBRANCH  20  27
ENDBRANCH  19  20
ENDBRANCH  10  19
TORSDOF 13
