REMARK  Name = ZINC18093430
REMARK  8 active torsions:
REMARK  status: ('A' for Active; 'I' for Inactive)
REMARK    1  A    between atoms: C_3  and  S_27
REMARK    2  A    between atoms: C_6  and  C_7
REMARK    3  A    between atoms: C_7  and  C_8
REMARK    4  A    between atoms: C_8  and  N_47
REMARK    5  A    between atoms: C_9  and  N_47
REMARK    6  A    between atoms: N_14  and  C_17
REMARK    7  A    between atoms: C_20  and  C_23
REMARK    8  A    between atoms: S_27  and  N_30
REMARK                            x       y       z     vdW  Elec       q    Type
REMARK                         _______ _______ _______ _____ _____    ______ ____
ROOT
ATOM      1  C   UNL     1      -4.268   7.563  -6.269  0.00  0.00    +0.026 C 
ATOM      2  C   UNL     1      -4.040   8.807  -7.151  0.00  0.00    +0.090 C 
ATOM      3  C   UNL     1      -4.995   8.603  -8.306  0.00  0.00    +0.225 C 
ATOM      4  O   UNL     1      -5.137   9.361  -9.242  0.00  0.00    -0.275 OA
ATOM      5  N   UNL     1      -5.658   7.453  -8.132  0.00  0.00    -0.212 N 
ATOM      6  C   UNL     1      -5.328   6.786  -7.019  0.00  0.00    +0.213 C 
ATOM      7  O   UNL     1      -5.804   5.728  -6.667  0.00  0.00    -0.277 OA
ENDROOT
BRANCH   5   8
ATOM      8  C   UNL     1      -6.618   6.986  -9.040  0.00  0.00    +0.044 A 
ATOM      9  C   UNL     1      -7.819   7.666  -9.194  0.00  0.00    +0.024 A 
ATOM     10  C   UNL     1      -8.761   7.206 -10.093  0.00  0.00    +0.014 A 
ATOM     11  C   UNL     1      -8.514   6.063 -10.831  0.00  0.00    +0.055 A 
ATOM     12  C   UNL     1      -7.322   5.381 -10.676  0.00  0.00    +0.014 A 
ATOM     13  C   UNL     1      -6.373   5.839  -9.783  0.00  0.00    +0.024 A 
BRANCH  11  14
ATOM     14  C   UNL     1      -9.547   5.560 -11.806  0.00  0.00    +0.417 C 
ATOM     15  F   UNL     1     -10.410   4.672 -11.155  0.00  0.00    -0.166 F 
ATOM     16  F   UNL     1     -10.281   6.641 -12.307  0.00  0.00    -0.166 F 
ATOM     17  F   UNL     1      -8.909   4.901 -12.863  0.00  0.00    -0.166 F 
ENDBRANCH  11  14
ENDBRANCH   5   8
BRANCH   1  18
ATOM     18  N   UNL     1      -3.025   6.776  -6.163  0.00  0.00    +0.387 N 
ATOM     19  H   UNL     1      -2.954   6.146  -6.971  0.00  0.00    -0.085 HD
ATOM     20  H   UNL     1      -2.220   7.413  -6.153  0.00  0.00    -0.085 HD
BRANCH  18  21
ATOM     21  C   UNL     1      -3.029   5.978  -4.922  0.00  0.00    -0.077 C 
BRANCH  21  22
ATOM     22  C   UNL     1      -1.730   5.173  -4.840  0.00  0.00    +0.016 C 
BRANCH  22  28
ATOM     23  C   UNL     1      -2.247   3.074  -3.579  0.00  0.00    +0.005 A 
ATOM     24  C   UNL     1      -2.242   2.322  -2.418  0.00  0.00    +0.029 A 
ATOM     25  C   UNL     1      -1.715   2.851  -1.255  0.00  0.00    +0.105 A 
ATOM     26  C   UNL     1      -1.198   4.133  -1.250  0.00  0.00    +0.029 A 
ATOM     27  C   UNL     1      -1.200   4.883  -2.411  0.00  0.00    +0.005 A 
ATOM     28  C   UNL     1      -1.726   4.354  -3.575  0.00  0.00    -0.049 A 
BRANCH  25  29
ATOM     29  S   UNL     1      -1.709   1.893   0.224  0.00  0.00    +0.056 S 
ATOM     30  O   UNL     1      -2.748   0.933   0.091  0.00  0.00    -0.153 OA
ATOM     31  O   UNL     1      -1.657   2.815   1.305  0.00  0.00    -0.153 OA
BRANCH  29  32
ATOM     32  N   UNL     1      -0.285   1.048   0.254  0.00  0.00    -0.204 NA
ATOM     33  H   UNL     1      -0.296   0.079   0.275  0.00  0.00    +0.144 HD
ATOM     34  H   UNL     1       0.561   1.523   0.247  0.00  0.00    +0.144 HD
ENDBRANCH  29  32
ENDBRANCH  25  29
ENDBRANCH  22  28
ENDBRANCH  21  22
ENDBRANCH  18  21
ENDBRANCH   1  18
TORSDOF 8
