REMARK  Name = ZINC39742526
REMARK  12 active torsions:
REMARK  status: ('A' for Active; 'I' for Inactive)
REMARK    1  A    between atoms: C_1  and  C_2
REMARK    2  A    between atoms: C_2  and  N_3
REMARK    3  A    between atoms: C_4  and  C_22
REMARK    4  A    between atoms: C_7  and  S_8
REMARK    5  A    between atoms: S_8  and  C_9
REMARK    6  A    between atoms: C_9  and  C_11
REMARK    7  A    between atoms: C_9  and  C_12
REMARK    8  A    between atoms: N_14  and  C_15
REMARK    9  A    between atoms: C_20  and  O_21
REMARK   10  A    between atoms: C_22  and  C_24
REMARK   11  A    between atoms: C_22  and  N_25
REMARK   12  A    between atoms: C_26  and  C_28
REMARK                            x       y       z     vdW  Elec       q    Type
REMARK                         _______ _______ _______ _____ _____    ______ ____
ROOT
ATOM      1  N   UNL     1       0.712  -0.540   1.187  0.00  0.00    -0.305 N 
ATOM      2  C   UNL     1       2.050  -0.802   1.305  0.00  0.00    +0.154 A 
ATOM      3  N   UNL     1       2.259  -1.212   2.524  0.00  0.00    -0.132 NA
ATOM      4  N   UNL     1       1.154  -1.227   3.180  0.00  0.00    -0.122 NA
ATOM      5  C   UNL     1       0.172  -0.819   2.410  0.00  0.00    +0.192 A 
ENDROOT
BRANCH   1   7
ATOM      6  C   UNL     1      -0.003   1.475  -0.000  0.00  0.00    +0.027 C 
ATOM      7  C   UNL     1       0.007  -0.055  -0.002  0.00  0.00    +0.122 C 
ENDBRANCH   1   7
BRANCH   2   8
ATOM      8  C   UNL     1       3.089  -0.645   0.225  0.00  0.00    +0.138 C 
ATOM      9  C   UNL     1       3.482  -2.025  -0.308  0.00  0.00    +0.036 C 
BRANCH   8  10
ATOM     10  N   UNL     1       4.271   0.021   0.777  0.00  0.00    -0.302 N 
ATOM     11  C   UNL     1       5.095   0.712  -0.035  0.00  0.00    +0.246 C 
ATOM     12  O   UNL     1       4.858   0.783  -1.225  0.00  0.00    -0.270 OA
ATOM     13  H   UNL     1       4.460  -0.036   1.727  0.00  0.00    +0.150 HD
BRANCH  11  14
ATOM     14  C   UNL     1       6.288   1.384   0.522  0.00  0.00    +0.051 A 
ATOM     15  C   UNL     1       6.567   1.300   1.888  0.00  0.00    +0.014 A 
ATOM     16  C   UNL     1       7.681   1.929   2.401  0.00  0.00    +0.001 A 
ATOM     17  C   UNL     1       8.523   2.643   1.567  0.00  0.00    +0.001 A 
ATOM     18  C   UNL     1       8.254   2.732   0.213  0.00  0.00    +0.016 A 
ATOM     19  C   UNL     1       7.144   2.102  -0.316  0.00  0.00    +0.030 A 
ATOM     20 BR   UNL     1       6.782   2.216  -2.168  0.00  0.00    -0.050 Br
ENDBRANCH  11  14
ENDBRANCH   8  10
ENDBRANCH   2   8
BRANCH   5  21
ATOM     21  S   UNL     1      -1.523  -0.665   2.866  0.00  0.00    -0.074 S 
BRANCH  21  22
ATOM     22  C   UNL     1      -1.559  -1.188   4.603  0.00  0.00    +0.137 C 
ATOM     23  C   UNL     1      -1.182  -2.668   4.697  0.00  0.00    +0.029 C 
BRANCH  22  24
ATOM     24  C   UNL     1      -2.945  -0.986   5.159  0.00  0.00    +0.230 C 
ATOM     25  O   UNL     1      -3.903  -0.980   4.414  0.00  0.00    -0.274 OA
ATOM     26  N   UNL     1      -3.121  -0.813   6.484  0.00  0.00    -0.282 N 
ATOM     27  H   UNL     1      -2.364  -0.882   7.087  0.00  0.00    +0.155 HD
BRANCH  26  28
ATOM     28  C   UNL     1      -4.397  -0.533   6.991  0.00  0.00    +0.075 A 
ATOM     29  C   UNL     1      -5.519  -1.094   6.399  0.00  0.00    +0.027 A 
ATOM     30  C   UNL     1      -6.776  -0.817   6.901  0.00  0.00    +0.002 A 
ATOM     31  C   UNL     1      -6.919   0.021   7.992  0.00  0.00    +0.004 A 
ATOM     32  C   UNL     1      -5.806   0.584   8.587  0.00  0.00    +0.047 A 
ATOM     33  C   UNL     1      -4.541   0.306   8.094  0.00  0.00    +0.138 A 
BRANCH  33  34
ATOM     34  O   UNL     1      -3.445   0.855   8.681  0.00  0.00    -0.505 OA
ATOM     35  H   UNL     1      -3.188   1.711   8.312  0.00  0.00    +0.292 HD
ENDBRANCH  33  34
ENDBRANCH  26  28
ENDBRANCH  22  24
ENDBRANCH  21  22
ENDBRANCH   5  21
TORSDOF 9
