REMARK  Name = ZINC22219895
REMARK  15 active torsions:
REMARK  status: ('A' for Active; 'I' for Inactive)
REMARK    1  A    between atoms: C_1  and  C_2
REMARK    2  A    between atoms: C_7  and  C_9
REMARK    3  A    between atoms: C_7  and  C_10
REMARK    4  A    between atoms: N_13  and  C_17
REMARK    5  A    between atoms: C_17  and  C_18
REMARK    6  A    between atoms: C_18  and  O_20
REMARK    7  A    between atoms: O_20  and  C_21
REMARK    8  A    between atoms: C_21  and  C_22
REMARK    9  A    between atoms: C_23  and  C_32
REMARK   10  A    between atoms: C_24  and  N_31
REMARK   11  A    between atoms: C_26  and  C_27
REMARK   12  A    between atoms: C_27  and  O_29
REMARK   13  A    between atoms: O_29  and  C_30
REMARK   14  A    between atoms: C_32  and  O_34
REMARK   15  A    between atoms: O_34  and  C_35
REMARK                            x       y       z     vdW  Elec       q    Type
REMARK                         _______ _______ _______ _____ _____    ______ ____
ROOT
ATOM      1  C   UNL     1       0.970  -4.657  -4.537  0.00  0.00    +0.326 C 
ATOM      2  O   UNL     1       1.178  -5.173  -3.465  0.00  0.00    -0.249 OA
ENDROOT
BRANCH   1   3
ATOM      3  C   UNL     1       0.458  -3.241  -4.606  0.00  0.00    +0.238 C 
BRANCH   3  15
ATOM      4  C   UNL     1      -0.061   1.649   0.498  0.00  0.00    +0.007 C 
ATOM      5  C   UNL     1      -0.046   0.132   0.299  0.00  0.00    -0.011 C 
ATOM      6  C   UNL     1       0.612  -0.200  -1.042  0.00  0.00    +0.038 C 
ATOM      7  C   UNL     1       0.646  -1.713  -1.232  0.00  0.00    +0.113 C 
ATOM      8  C   UNL     1       1.417  -2.381  -0.099  0.00  0.00    +0.041 C 
ATOM      9  C   UNL     1       0.756  -2.041   1.240  0.00  0.00    -0.032 C 
ATOM     10  C   UNL     1       0.748  -0.523   1.431  0.00  0.00    +0.009 C 
ATOM     11  C   UNL     1      -0.682  -2.564   1.246  0.00  0.00    +0.011 C 
ATOM     12  C   UNL     1       1.542  -2.695   2.378  0.00  0.00    +0.011 C 
ATOM     13  C   UNL     1       1.261  -2.063  -2.567  0.00  0.00    +0.247 C 
ATOM     14  O   UNL     1       2.385  -1.813  -2.946  0.00  0.00    -0.273 OA
ATOM     15  N   UNL     1       0.296  -2.715  -3.249  0.00  0.00    -0.213 N 
ATOM     16  C   UNL     1      -0.829  -2.819  -2.531  0.00  0.00    +0.310 C 
ATOM     17  O   UNL     1      -1.838  -3.366  -2.931  0.00  0.00    -0.252 OA
ATOM     18  N   UNL     1      -0.717  -2.252  -1.315  0.00  0.00    -0.285 N 
ATOM     19  H   UNL     1      -1.402  -2.208  -0.629  0.00  0.00    +0.151 HD
ENDBRANCH   3  15
ENDBRANCH   1   3
BRANCH   1  20
ATOM     20  O   UNL     1       1.196  -5.345  -5.668  0.00  0.00    -0.459 OA
BRANCH  20  21
ATOM     21  C   UNL     1       1.681  -6.682  -5.528  0.00  0.00    +0.269 C 
BRANCH  21  22
ATOM     22  C   UNL     1       1.873  -7.291  -6.893  0.00  0.00    +0.027 A 
ATOM     23  C   UNL     1       0.856  -7.983  -7.536  0.00  0.00    +0.094 A 
ATOM     24  C   UNL     1       1.132  -8.512  -8.800  0.00  0.00    +0.078 A 
ATOM     25  S   UNL     1       2.728  -8.070  -9.082  0.00  0.00    -0.066 S 
ATOM     26  C   UNL     1       3.059  -7.188  -7.570  0.00  0.00    +0.105 A 
BRANCH  24  27
ATOM     27  N   UNL     1       0.293  -9.228  -9.622  0.00  0.00    -0.352 N 
ATOM     28  H   UNL     1      -0.615  -9.419  -9.340  0.00  0.00    +0.143 HD
ATOM     29  H   UNL     1       0.610  -9.542 -10.483  0.00  0.00    +0.143 HD
ENDBRANCH  24  27
BRANCH  26  30
ATOM     30  C   UNL     1       4.292  -6.523  -7.153  0.00  0.00    +0.346 C 
ATOM     31  O   UNL     1       4.347  -5.964  -6.074  0.00  0.00    -0.244 OA
BRANCH  30  32
ATOM     32  O   UNL     1       5.369  -6.529  -7.966  0.00  0.00    -0.464 OA
ATOM     33  C   UNL     1       6.541  -5.859  -7.495  0.00  0.00    +0.280 C 
ENDBRANCH  30  32
ENDBRANCH  26  30
BRANCH  23  34
ATOM     34  C   UNL     1      -0.460  -8.153  -6.912  0.00  0.00    +0.342 C 
ATOM     35  O   UNL     1      -1.333  -7.327  -7.099  0.00  0.00    -0.245 OA
BRANCH  34  36
ATOM     36  O   UNL     1      -0.702  -9.225  -6.130  0.00  0.00    -0.464 OA
ATOM     37  C   UNL     1      -2.006  -9.327  -5.554  0.00  0.00    +0.280 C 
ENDBRANCH  34  36
ENDBRANCH  23  34
ENDBRANCH  21  22
ENDBRANCH  20  21
ENDBRANCH   1  20
TORSDOF 10
