REMARK  Name = ZINC39597922
REMARK  10 active torsions:
REMARK  status: ('A' for Active; 'I' for Inactive)
REMARK    1  A    between atoms: C_1  and  C_2
REMARK    2  A    between atoms: C_2  and  C_3
REMARK    3  A    between atoms: C_2  and  C_4
REMARK    4  A    between atoms: C_4  and  C_6
REMARK    5  A    between atoms: C_4  and  O_33
REMARK    6  A    between atoms: C_10  and  C_19
REMARK    7  A    between atoms: N_21  and  C_22
REMARK    8  A    between atoms: C_22  and  C_23
REMARK    9  A    between atoms: C_23  and  C_24
REMARK   10  A    between atoms: O_33  and  C_34
REMARK                            x       y       z     vdW  Elec       q    Type
REMARK                         _______ _______ _______ _____ _____    ______ ____
ROOT
ATOM      1  C   UNL     1      -1.639  -2.226   1.311  0.00  0.00    +0.257 C 
ATOM      2  O   UNL     1      -1.905  -3.097   0.510  0.00  0.00    -0.272 OA
ATOM      3  N   UNL     1      -1.056  -2.545   2.484  0.00  0.00    -0.297 N 
ATOM      4  C   UNL     1      -0.767  -1.648   3.628  0.00  0.00    +0.121 C 
ATOM      5  C   UNL     1      -1.082  -2.498   4.879  0.00  0.00    +0.100 C 
ATOM      6  C   UNL     1      -0.942  -3.956   4.409  0.00  0.00    -0.004 C 
ATOM      7  C   UNL     1      -0.564  -3.873   2.923  0.00  0.00    +0.115 C 
ATOM      8  C   UNL     1      -2.268  -4.693   4.570  0.00  0.00    -0.010 C 
ATOM      9  C   UNL     1      -2.088  -6.154   4.149  0.00  0.00    -0.082 C 
ATOM     10  N   UNL     1      -1.053  -6.781   4.981  0.00  0.00    +0.379 N 
ATOM     11  C   UNL     1       0.240  -6.125   4.751  0.00  0.00    -0.082 C 
ATOM     12  C   UNL     1       0.159  -4.662   5.196  0.00  0.00    -0.010 C 
ATOM     13  H   UNL     1      -1.305  -6.691   5.954  0.00  0.00    -0.086 HD
ATOM     14  H   UNL     1      -0.979  -7.759   4.744  0.00  0.00    -0.086 HD
ENDROOT
BRANCH   5  15
ATOM     15  C   UNL     1      -2.487  -2.231   5.355  0.00  0.00    +0.218 C 
ATOM     16  O   UNL     1      -3.358  -1.965   4.554  0.00  0.00    -0.275 OA
ATOM     17  N   UNL     1      -2.775  -2.288   6.670  0.00  0.00    -0.315 N 
ATOM     18  H   UNL     1      -2.078  -2.501   7.311  0.00  0.00    +0.149 HD
BRANCH  17  19
ATOM     19  C   UNL     1      -4.140  -2.028   7.133  0.00  0.00    +0.109 C 
BRANCH  19  20
ATOM     20  C   UNL     1      -4.196  -2.156   8.657  0.00  0.00    +0.056 C 
BRANCH  20  21
ATOM     21  C   UNL     1      -5.600  -1.888   9.133  0.00  0.00    -0.021 A 
ATOM     22  C   UNL     1      -6.695  -2.859   9.206  0.00  0.00    +0.003 A 
ATOM     23  C   UNL     1      -6.811  -4.216   8.898  0.00  0.00    +0.010 A 
ATOM     24  C   UNL     1      -8.005  -4.854   9.085  0.00  0.00    +0.001 A 
ATOM     25  C   UNL     1      -9.104  -4.164   9.578  0.00  0.00    +0.002 A 
ATOM     26  C   UNL     1      -9.011  -2.825   9.888  0.00  0.00    +0.026 A 
ATOM     27  C   UNL     1      -7.806  -2.155   9.707  0.00  0.00    +0.047 A 
ATOM     28  N   UNL     1      -7.402  -0.856   9.917  0.00  0.00    -0.360 N 
ATOM     29  C   UNL     1      -6.084  -0.717   9.575  0.00  0.00    +0.087 A 
ATOM     30  H   UNL     1      -7.966  -0.145  10.260  0.00  0.00    +0.165 HD
ENDBRANCH  20  21
ENDBRANCH  19  20
ENDBRANCH  17  19
ENDBRANCH   5  15
BRANCH   1  31
ATOM     31  C   UNL     1      -1.960  -0.788   0.996  0.00  0.00    +0.261 C 
BRANCH  31  33
ATOM     32  C   UNL     1      -1.023   1.378   0.176  0.00  0.00    +0.011 C 
ATOM     33  C   UNL     1      -0.713  -0.096   0.442  0.00  0.00    +0.033 C 
ATOM     34  C   UNL     1       0.424  -0.203   1.460  0.00  0.00    +0.011 C 
ENDBRANCH  31  33
BRANCH  31  35
ATOM     35  O   UNL     1      -3.005  -0.736   0.023  0.00  0.00    -0.479 OA
BRANCH  35  36
ATOM     36  C   UNL     1      -3.975   0.198   0.209  0.00  0.00    +0.122 A 
ATOM     37  C   UNL     1      -5.085   0.223  -0.623  0.00  0.00    +0.045 A 
ATOM     38  C   UNL     1      -6.069   1.173  -0.432  0.00  0.00    +0.004 A 
ATOM     39  C   UNL     1      -5.949   2.099   0.587  0.00  0.00    +0.000 A 
ATOM     40  C   UNL     1      -4.843   2.078   1.417  0.00  0.00    +0.004 A 
ATOM     41  C   UNL     1      -3.859   1.125   1.234  0.00  0.00    +0.045 A 
ENDBRANCH  35  36
ENDBRANCH  31  35
ENDBRANCH   1  31
TORSDOF 8
