REMARK  Name = ZINC36316505
REMARK  16 active torsions:
REMARK  status: ('A' for Active; 'I' for Inactive)
REMARK    1  A    between atoms: C_1  and  C_2
REMARK    2  A    between atoms: C_2  and  C_3
REMARK    3  A    between atoms: C_3  and  N_4
REMARK    4  A    between atoms: N_4  and  C_5
REMARK    5  A    between atoms: N_4  and  C_27
REMARK    6  A    between atoms: C_5  and  C_6
REMARK    7  A    between atoms: C_7  and  C_25
REMARK    8  A    between atoms: N_9  and  C_19
REMARK    9  A    between atoms: C_10  and  O_11
REMARK   10  A    between atoms: O_11  and  C_12
REMARK   11  A    between atoms: C_25  and  C_26
REMARK   12  A    between atoms: C_27  and  C_28
REMARK   13  A    between atoms: C_28  and  C_30
REMARK   14  A    between atoms: C_28  and  O_33
REMARK   15  A    between atoms: C_30  and  C_31
REMARK   16  A    between atoms: C_30  and  C_32
REMARK                            x       y       z     vdW  Elec       q    Type
REMARK                         _______ _______ _______ _____ _____    ______ ____
ROOT
ATOM      1  C   UNL     1       0.617  -1.415  -0.690  0.00  0.00    +0.021 A 
ATOM      2  C   UNL     1      -0.717  -1.754  -0.941  0.00  0.00    +0.068 A 
ATOM      3  N   UNL     1      -1.324  -0.706  -1.437  0.00  0.00    -0.168 NA
ATOM      4  N   UNL     1      -0.399   0.342  -1.520  0.00  0.00    -0.200 N 
ATOM      5  C   UNL     1       0.792  -0.115  -1.049  0.00  0.00    +0.225 A 
ENDROOT
BRANCH   4   6
ATOM      6  C   UNL     1      -0.656   1.634  -1.999  0.00  0.00    +0.069 A 
ATOM      7  C   UNL     1      -0.112   2.737  -1.354  0.00  0.00    +0.028 A 
ATOM      8  C   UNL     1      -0.366   4.008  -1.828  0.00  0.00    +0.002 A 
ATOM      9  C   UNL     1      -1.162   4.185  -2.945  0.00  0.00    +0.000 A 
ATOM     10  C   UNL     1      -1.706   3.089  -3.590  0.00  0.00    +0.002 A 
ATOM     11  C   UNL     1      -1.450   1.814  -3.124  0.00  0.00    +0.028 A 
ENDBRANCH   4   6
BRANCH   2  12
ATOM     12  C   UNL     1      -1.347  -3.098  -0.685  0.00  0.00    +0.054 C 
ATOM     13  C   UNL     1      -2.205  -3.026   0.580  0.00  0.00    +0.010 C 
ENDBRANCH   2  12
BRANCH   1  14
ATOM     14  C   UNL     1       1.671  -2.327  -0.117  0.00  0.00    -0.036 C 
BRANCH  14  15
ATOM     15  N   UNL     1       2.022  -1.880   1.237  0.00  0.00    +0.384 N 
ATOM     16  H   UNL     1       2.322  -0.917   1.206  0.00  0.00    -0.081 HD
BRANCH  15  17
ATOM     17  C   UNL     1       3.110  -2.715   1.762  0.00  0.00    -0.079 C 
BRANCH  17  19
ATOM     18  C   UNL     1       5.541  -3.255   1.557  0.00  0.00    +0.002 C 
ATOM     19  C   UNL     1       4.376  -2.483   0.934  0.00  0.00    -0.022 C 
ENDBRANCH  17  19
ENDBRANCH  15  17
BRANCH  15  20
ATOM     20  C   UNL     1       0.848  -1.999   2.112  0.00  0.00    -0.046 C 
BRANCH  20  21
ATOM     21  C   UNL     1       1.171  -1.403   3.483  0.00  0.00    +0.101 C 
BRANCH  21  22
ATOM     22  C   UNL     1      -0.048  -1.538   4.399  0.00  0.00    +0.010 C 
ATOM     23  C   UNL     1       0.288  -0.975   5.781  0.00  0.00    +0.010 C 
ATOM     24  C   UNL     1      -1.222  -0.758   3.802  0.00  0.00    +0.010 C 
ENDBRANCH  21  22
BRANCH  21  25
ATOM     25  O   UNL     1       1.505  -0.021   3.335  0.00  0.00    -0.393 OA
ATOM     26  H   UNL     1       0.798   0.515   2.950  0.00  0.00    +0.210 HD
ENDBRANCH  21  25
ENDBRANCH  20  21
ENDBRANCH  15  20
ENDBRANCH  14  15
ENDBRANCH   1  14
BRANCH   5  27
ATOM     27  O   UNL     1       1.945   0.594  -0.956  0.00  0.00    -0.438 OA
BRANCH  27  28
ATOM     28  C   UNL     1       2.751   0.648  -2.050  0.00  0.00    +0.131 A 
ATOM     29  C   UNL     1       2.333   0.088  -3.248  0.00  0.00    +0.049 A 
ATOM     30  C   UNL     1       3.152   0.144  -4.359  0.00  0.00    +0.042 A 
ATOM     31  C   UNL     1       4.390   0.760  -4.277  0.00  0.00    +0.124 A 
ATOM     32  C   UNL     1       4.808   1.320  -3.081  0.00  0.00    +0.042 A 
ATOM     33  C   UNL     1       3.989   1.270  -1.970  0.00  0.00    +0.049 A 
ATOM     34  F   UNL     1       5.190   0.814  -5.364  0.00  0.00    -0.205 F 
ENDBRANCH  27  28
ENDBRANCH   5  27
TORSDOF 12
