REMARK  Name = ZINC38574029
REMARK  7 active torsions:
REMARK  status: ('A' for Active; 'I' for Inactive)
REMARK    1  A    between atoms: C_1  and  C_2
REMARK    2  A    between atoms: C_2  and  C_3
REMARK    3  A    between atoms: N_18  and  N_19
REMARK    4  A    between atoms: N_19  and  C_20
REMARK    5  A    between atoms: N_19  and  C_21
REMARK    6  A    between atoms: C_28  and  C_30
REMARK    7  A    between atoms: C_28  and  C_31
REMARK                            x       y       z     vdW  Elec       q    Type
REMARK                         _______ _______ _______ _____ _____    ______ ____
ROOT
ATOM      1  C   UNL     1      -1.404  -0.525  -0.083  0.00  0.00    +0.047 C 
ATOM      2  N   UNL     1      -2.435   0.302  -0.111  0.00  0.00    -0.256 NA
ATOM      3  C   UNL     1      -3.697  -0.093  -0.238  0.00  0.00    +0.049 C 
ATOM      4  C   UNL     1      -4.068  -1.426  -0.107  0.00  0.00    +0.023 C 
ATOM      5  C   UNL     1      -3.042  -2.393   0.388  0.00  0.00    +0.146 C 
ATOM      6  C   UNL     1      -1.671  -1.881  -0.033  0.00  0.00    +0.010 C 
ATOM      7  C   UNL     1      -0.960  -3.014  -0.342  0.00  0.00    +0.005 A 
ATOM      8  C   UNL     1       0.415  -3.231  -0.582  0.00  0.00    +0.010 A 
ATOM      9  C   UNL     1       0.790  -4.499  -0.922  0.00  0.00    +0.001 A 
ATOM     10  C   UNL     1      -0.108  -5.559  -1.032  0.00  0.00    +0.002 A 
ATOM     11  C   UNL     1      -1.445  -5.438  -0.796  0.00  0.00    +0.026 A 
ATOM     12  C   UNL     1      -1.916  -4.152  -0.417  0.00  0.00    +0.044 A 
ATOM     13  N   UNL     1      -3.111  -3.761  -0.076  0.00  0.00    -0.373 N 
ATOM     14  C   UNL     1      -5.370  -1.853  -0.389  0.00  0.00    +0.067 C 
ATOM     15  N   UNL     1      -5.667  -3.128  -0.329  0.00  0.00    -0.184 NA
ATOM     16  C   UNL     1      -6.432  -0.849  -0.760  0.00  0.00    +0.064 C 
ATOM     17  C   UNL     1      -6.120   0.463  -0.029  0.00  0.00    -0.024 C 
ATOM     18  C   UNL     1      -4.749   0.961  -0.484  0.00  0.00    +0.062 C 
ATOM     19  C   UNL     1      -6.103   0.217   1.481  0.00  0.00    +0.011 C 
ATOM     20  C   UNL     1      -7.185   1.507  -0.371  0.00  0.00    +0.011 C 
ATOM     21  H   UNL     1      -3.912  -4.306  -0.130  0.00  0.00    +0.161 HD
ENDROOT
BRANCH   1  23
ATOM     22  C   UNL     1      -0.004   1.519  -0.166  0.00  0.00    +0.010 C 
ATOM     23  C   UNL     1       0.011  -0.009  -0.112  0.00  0.00    +0.052 C 
ENDBRANCH   1  23
BRANCH  15  24
ATOM     24  N   UNL     1      -6.989  -3.549  -0.523  0.00  0.00    -0.227 N 
ATOM     25  C   UNL     1      -7.619  -3.404  -1.837  0.00  0.00    +0.158 C 
BRANCH  24  26
ATOM     26  C   UNL     1      -7.705  -4.106   0.535  0.00  0.00    +0.051 A 
ATOM     27  C   UNL     1      -7.111  -4.240   1.785  0.00  0.00    +0.025 A 
ATOM     28  C   UNL     1      -7.824  -4.793   2.831  0.00  0.00    +0.002 A 
ATOM     29  C   UNL     1      -9.127  -5.213   2.636  0.00  0.00    +0.000 A 
ATOM     30  C   UNL     1      -9.722  -5.082   1.394  0.00  0.00    +0.002 A 
ATOM     31  C   UNL     1      -9.018  -4.524   0.345  0.00  0.00    +0.025 A 
ENDBRANCH  24  26
ENDBRANCH  15  24
TORSDOF 3
