REMARK  Name = ZINC09884571
REMARK  14 active torsions:
REMARK  status: ('A' for Active; 'I' for Inactive)
REMARK    1  A    between atoms: C_1  and  C_2
REMARK    2  A    between atoms: C_2  and  C_3
REMARK    3  A    between atoms: C_2  and  C_4
REMARK    4  A    between atoms: C_4  and  C_6
REMARK    5  A    between atoms: C_4  and  N_25
REMARK    6  A    between atoms: C_6  and  O_8
REMARK    7  A    between atoms: O_8  and  C_9
REMARK    8  A    between atoms: C_9  and  C_10
REMARK    9  A    between atoms: N_12  and  C_13
REMARK   10  A    between atoms: C_13  and  C_14
REMARK   11  A    between atoms: C_14  and  C_15
REMARK   12  A    between atoms: C_18  and  S_21
REMARK   13  A    between atoms: S_21  and  N_24
REMARK   14  A    between atoms: C_26  and  C_28
REMARK                            x       y       z     vdW  Elec       q    Type
REMARK                         _______ _______ _______ _____ _____    ______ ____
ROOT
ATOM      1  C   UNL     1      -3.003  -6.383  -1.297  0.00  0.00    +0.327 C 
ENDROOT
BRANCH   1   2
ATOM      2  C   UNL     1      -4.257  -7.218  -1.324  0.00  0.00    +0.251 C 
ATOM      3  O   UNL     1      -5.294  -6.769  -0.882  0.00  0.00    -0.272 OA
ATOM      4  N   UNL     1      -4.228  -8.463  -1.838  0.00  0.00    -0.312 N 
ATOM      5  H   UNL     1      -3.398  -8.822  -2.192  0.00  0.00    +0.149 HD
BRANCH   4   6
ATOM      6  C   UNL     1      -5.447  -9.275  -1.864  0.00  0.00    +0.109 C 
BRANCH   6   7
ATOM      7  C   UNL     1      -5.141 -10.635  -2.494  0.00  0.00    +0.054 C 
BRANCH   7   8
ATOM      8  C   UNL     1      -6.396 -11.470  -2.520  0.00  0.00    -0.046 A 
ATOM      9  C   UNL     1      -6.698 -12.297  -1.455  0.00  0.00    +0.005 A 
ATOM     10  C   UNL     1      -7.851 -13.059  -1.477  0.00  0.00    +0.029 A 
ATOM     11  C   UNL     1      -8.697 -13.002  -2.569  0.00  0.00    +0.105 A 
ATOM     12  C   UNL     1      -8.392 -12.179  -3.637  0.00  0.00    +0.029 A 
ATOM     13  C   UNL     1      -7.241 -11.413  -3.613  0.00  0.00    +0.005 A 
BRANCH  11  14
ATOM     14  S   UNL     1     -10.164 -13.977  -2.599  0.00  0.00    +0.056 S 
ATOM     15  O   UNL     1     -10.499 -14.248  -1.245  0.00  0.00    -0.153 OA
ATOM     16  O   UNL     1     -11.062 -13.332  -3.492  0.00  0.00    -0.153 OA
BRANCH  14  17
ATOM     17  N   UNL     1      -9.772 -15.430  -3.290  0.00  0.00    -0.204 NA
ATOM     18  H   UNL     1      -8.864 -15.597  -3.586  0.00  0.00    +0.144 HD
ATOM     19  H   UNL     1     -10.451 -16.114  -3.399  0.00  0.00    +0.144 HD
ENDBRANCH  14  17
ENDBRANCH  11  14
ENDBRANCH   7   8
ENDBRANCH   6   7
ENDBRANCH   4   6
ENDBRANCH   1   2
BRANCH   1  20
ATOM     20  O   UNL     1      -3.293  -5.092  -0.699  0.00  0.00    -0.454 OA
BRANCH  20  21
ATOM     21  C   UNL     1      -2.275  -4.224  -0.600  0.00  0.00    +0.328 C 
ATOM     22  O   UNL     1      -1.177  -4.532  -1.000  0.00  0.00    -0.249 OA
BRANCH  21  23
ATOM     23  C   UNL     1      -2.500  -2.864   0.010  0.00  0.00    +0.185 C 
BRANCH  23  24
ATOM     24  N   UNL     1      -1.244  -2.111   0.002  0.00  0.00    -0.298 N 
ATOM     25  C   UNL     1      -1.265  -0.764   0.010  0.00  0.00    +0.246 C 
ATOM     26  O   UNL     1      -2.328  -0.173   0.022  0.00  0.00    -0.270 OA
ATOM     27  H   UNL     1      -0.396  -2.583  -0.008  0.00  0.00    +0.150 HD
BRANCH  25  28
ATOM     28  C   UNL     1       0.002  -0.004   0.002  0.00  0.00    +0.055 A 
ATOM     29  C   UNL     1       1.224  -0.679  -0.013  0.00  0.00    +0.014 A 
ATOM     30  C   UNL     1       2.403   0.036  -0.021  0.00  0.00    +0.001 A 
ATOM     31  C   UNL     1       2.378   1.420  -0.013  0.00  0.00    +0.001 A 
ATOM     32  C   UNL     1       1.172   2.096   0.002  0.00  0.00    +0.021 A 
ATOM     33  C   UNL     1      -0.017   1.393   0.010  0.00  0.00    +0.053 A 
ATOM     34 CL   UNL     1      -1.530   2.243   0.021  0.00  0.00    -0.083 Cl
ENDBRANCH  25  28
ENDBRANCH  23  24
BRANCH  23  36
ATOM     35  C   UNL     1      -3.218  -1.646   2.070  0.00  0.00    +0.009 C 
ATOM     36  C   UNL     1      -2.989  -3.026   1.450  0.00  0.00    +0.014 C 
ATOM     37  C   UNL     1      -4.301  -3.813   1.458  0.00  0.00    +0.009 C 
ENDBRANCH  23  36
ENDBRANCH  21  23
ENDBRANCH  20  21
ENDBRANCH   1  20
TORSDOF 12
