REMARK  Name = ZINC09497960
REMARK  9 active torsions:
REMARK  status: ('A' for Active; 'I' for Inactive)
REMARK    1  A    between atoms: C_1  and  C_2
REMARK    2  A    between atoms: C_2  and  C_4
REMARK    3  A    between atoms: C_2  and  N_51
REMARK    4  A    between atoms: N_6  and  C_7
REMARK    5  A    between atoms: C_10  and  S_13
REMARK    6  A    between atoms: S_13  and  N_16
REMARK    7  A    between atoms: C_17  and  C_19
REMARK    8  A    between atoms: C_17  and  C_25
REMARK    9  A    between atoms: C_17  and  N_51
REMARK                            x       y       z     vdW  Elec       q    Type
REMARK                         _______ _______ _______ _____ _____    ______ ____
ROOT
ATOM      1  C   UNL     1       5.600   0.721  -0.413  0.00  0.00    -0.004 C 
ATOM      2  C   UNL     1       4.452   0.816  -1.420  0.00  0.00    +0.014 C 
ENDROOT
BRANCH   2   3
ATOM      3  C   UNL     1       4.978   1.326  -2.736  0.00  0.00    +0.203 C 
ATOM      4  O   UNL     1       4.545   2.358  -3.204  0.00  0.00    -0.277 OA
ATOM      5  N   UNL     1       5.931   0.636  -3.394  0.00  0.00    -0.287 N 
ATOM      6  H   UNL     1       6.326  -0.152  -2.989  0.00  0.00    +0.155 HD
BRANCH   5   7
ATOM      7  C   UNL     1       6.351   1.057  -4.660  0.00  0.00    +0.033 A 
ATOM      8  C   UNL     1       6.711   0.121  -5.621  0.00  0.00    +0.025 A 
ATOM      9  C   UNL     1       7.119   0.540  -6.872  0.00  0.00    +0.030 A 
ATOM     10  C   UNL     1       7.181   1.890  -7.165  0.00  0.00    +0.105 A 
ATOM     11  C   UNL     1       6.829   2.825  -6.209  0.00  0.00    +0.030 A 
ATOM     12  C   UNL     1       6.414   2.412  -4.958  0.00  0.00    +0.025 A 
BRANCH  10  13
ATOM     13  S   UNL     1       7.709   2.420  -8.761  0.00  0.00    +0.056 S 
ATOM     14  O   UNL     1       7.461   1.340  -9.650  0.00  0.00    -0.153 OA
ATOM     15  O   UNL     1       7.159   3.714  -8.961  0.00  0.00    -0.153 OA
BRANCH  13  16
ATOM     16  N   UNL     1       9.353   2.609  -8.694  0.00  0.00    -0.204 NA
ATOM     17  H   UNL     1       9.829   2.430  -7.868  0.00  0.00    +0.144 HD
ATOM     18  H   UNL     1       9.840   2.899  -9.481  0.00  0.00    +0.144 HD
ENDBRANCH  13  16
ENDBRANCH  10  13
ENDBRANCH   5   7
ENDBRANCH   2   3
BRANCH   2  19
ATOM     19  N   UNL     1       3.429   1.750  -0.912  0.00  0.00    +0.394 N 
ATOM     20  H   UNL     1       2.903   2.139  -1.704  0.00  0.00    -0.083 HD
ATOM     21  H   UNL     1       3.890   2.511  -0.400  0.00  0.00    -0.083 HD
BRANCH  19  22
ATOM     22  C   UNL     1       2.498   1.049  -0.008  0.00  0.00    -0.009 C 
BRANCH  22  23
ATOM     23  C   UNL     1       1.180   1.779   0.009  0.00  0.00    -0.057 A 
ATOM     24  C   UNL     1      -0.004   1.066   0.024  0.00  0.00    +0.004 A 
ATOM     25  C   UNL     1      -1.214   1.735   0.033  0.00  0.00    +0.020 A 
ATOM     26  C   UNL     1      -1.239   3.118   0.039  0.00  0.00    +0.041 A 
ATOM     27  C   UNL     1      -0.053   3.831   0.024  0.00  0.00    +0.020 A 
ATOM     28  C   UNL     1       1.156   3.161   0.010  0.00  0.00    +0.004 A 
ATOM     29 CL   UNL     1      -2.757   3.959   0.057  0.00  0.00    -0.084 Cl
ENDBRANCH  22  23
BRANCH  22  30
ATOM     30  C   UNL     1       3.075   1.021   1.384  0.00  0.00    -0.057 A 
ATOM     31  C   UNL     1       3.739   2.127   1.879  0.00  0.00    +0.002 A 
ATOM     32  C   UNL     1       4.264   2.104   3.158  0.00  0.00    +0.000 A 
ATOM     33  C   UNL     1       4.133   0.970   3.938  0.00  0.00    +0.000 A 
ATOM     34  C   UNL     1       3.473  -0.138   3.441  0.00  0.00    +0.000 A 
ATOM     35  C   UNL     1       2.944  -0.113   2.164  0.00  0.00    +0.002 A 
ENDBRANCH  22  30
ENDBRANCH  19  22
ENDBRANCH   2  19
TORSDOF 8
