REMARK  Name = ZINC01075255
REMARK  9 active torsions:
REMARK  status: ('A' for Active; 'I' for Inactive)
REMARK    1  A    between atoms: C_1  and  C_2
REMARK    2  A    between atoms: C_2  and  C_3
REMARK    3  A    between atoms: C_11  and  C_30
REMARK    4  A    between atoms: N_13  and  C_24
REMARK    5  A    between atoms: C_16  and  N_23
REMARK    6  A    between atoms: C_17  and  C_18
REMARK    7  A    between atoms: C_18  and  O_20
REMARK    8  A    between atoms: O_20  and  C_21
REMARK    9  A    between atoms: C_21  and  C_22
REMARK                            x       y       z     vdW  Elec       q    Type
REMARK                         _______ _______ _______ _____ _____    ______ ____
ROOT
ATOM      1  C   UNL     1      -0.329   4.737  -3.324  0.00  0.00    -0.047 A 
ATOM      2  C   UNL     1       0.789   5.444  -2.931  0.00  0.00    +0.005 A 
ATOM      3  C   UNL     1       1.211   5.473  -1.611  0.00  0.00    +0.024 A 
ATOM      4  C   UNL     1       0.457   4.754  -0.682  0.00  0.00    +0.038 A 
ATOM      5  C   UNL     1      -0.676   4.041  -1.095  0.00  0.00    -0.002 A 
ATOM      6  C   UNL     1      -1.090   4.017  -2.409  0.00  0.00    +0.010 A 
ATOM      7  C   UNL     1      -1.234   3.398   0.134  0.00  0.00    +0.142 C 
ATOM      8  C   UNL     1      -2.632   3.871   0.415  0.00  0.00    +0.061 A 
ATOM      9  C   UNL     1      -3.083   5.122   0.814  0.00  0.00    +0.069 A 
ATOM     10  N   UNL     1      -4.388   5.070   0.937  0.00  0.00    -0.168 NA
ATOM     11  N   UNL     1      -4.813   3.771   0.616  0.00  0.00    -0.200 N 
ATOM     12  C   UNL     1      -3.719   3.047   0.298  0.00  0.00    +0.230 A 
ATOM     13  O   UNL     1      -3.615   1.748  -0.076  0.00  0.00    -0.423 OA
ATOM     14  C   UNL     1      -2.390   1.189  -0.089  0.00  0.00    +0.198 C 
ATOM     15  C   UNL     1      -1.238   1.899   0.012  0.00  0.00    +0.117 C 
ATOM     16  C   UNL     1      -2.220   6.332   1.065  0.00  0.00    +0.068 C 
ATOM     17  C   UNL     1      -0.300   3.830   1.244  0.00  0.00    +0.237 C 
ATOM     18  O   UNL     1      -0.386   3.532   2.416  0.00  0.00    -0.274 OA
ATOM     19  N   UNL     1       0.647   4.610   0.681  0.00  0.00    -0.284 N 
ATOM     20  H   UNL     1       1.374   5.021   1.173  0.00  0.00    +0.155 HD
ENDROOT
BRANCH  11  21
ATOM     21  C   UNL     1      -6.137   3.309   0.624  0.00  0.00    +0.069 A 
ATOM     22  C   UNL     1      -6.555   2.379  -0.318  0.00  0.00    +0.028 A 
ATOM     23  C   UNL     1      -7.858   1.922  -0.304  0.00  0.00    +0.002 A 
ATOM     24  C   UNL     1      -8.749   2.397   0.640  0.00  0.00    +0.000 A 
ATOM     25  C   UNL     1      -8.337   3.328   1.576  0.00  0.00    +0.002 A 
ATOM     26  C   UNL     1      -7.034   3.785   1.571  0.00  0.00    +0.028 A 
ENDBRANCH  11  21
BRANCH  14  27
ATOM     27  N   UNL     1      -2.301  -0.173  -0.205  0.00  0.00    -0.329 N 
ATOM     28  H   UNL     1      -1.438  -0.610  -0.136  0.00  0.00    +0.145 HD
ATOM     29  H   UNL     1      -3.102  -0.700  -0.356  0.00  0.00    +0.145 HD
ENDBRANCH  14  27
BRANCH   1  31
ATOM     30  C   UNL     1      -0.054   3.584  -5.502  0.00  0.00    +0.009 C 
ATOM     31  C   UNL     1      -0.735   4.746  -4.775  0.00  0.00    +0.032 C 
ENDBRANCH   1  31
BRANCH  15  32
ATOM     32  C   UNL     1      -0.014   1.215  -0.004  0.00  0.00    +0.342 C 
ATOM     33  O   UNL     1       0.649   1.177  -1.025  0.00  0.00    -0.245 OA
BRANCH  32  34
ATOM     34  O   UNL     1       0.432   0.603   1.115  0.00  0.00    -0.462 OA
BRANCH  34  35
ATOM     35  C   UNL     1       1.690  -0.070   1.029  0.00  0.00    +0.229 C 
ATOM     36  C   UNL     1       2.026  -0.697   2.383  0.00  0.00    +0.048 C 
ENDBRANCH  34  35
ENDBRANCH  32  34
ENDBRANCH  15  32
TORSDOF 6
