REMARK  Name = ZINC64470370
REMARK  5 active torsions:
REMARK  status: ('A' for Active; 'I' for Inactive)
REMARK    1  A    between atoms: C_1  and  C_2
REMARK    2  A    between atoms: C_5  and  N_8
REMARK    3  A    between atoms: C_11  and  C_33
REMARK    4  A    between atoms: C_13  and  N_16
REMARK    5  A    between atoms: C_17  and  C_19
REMARK                            x       y       z     vdW  Elec       q    Type
REMARK                         _______ _______ _______ _____ _____    ______ ____
ROOT
ATOM      1  N   UNL     1       0.058  -4.142  -0.021  0.00  0.00    -0.226 NA
ATOM      2  C   UNL     1       0.875  -4.793   0.776  0.00  0.00    +0.157 C 
ATOM      3  N   UNL     1       1.778  -4.283   1.688  0.00  0.00    -0.310 N 
ATOM      4  C   UNL     1       2.030  -5.070   2.883  0.00  0.00    +0.189 C 
ATOM      5  C   UNL     1       1.731  -6.574   2.678  0.00  0.00    +0.168 C 
ATOM      6  S   UNL     1       1.089  -6.559   0.956  0.00  0.00    -0.066 S 
ATOM      7  H   UNL     1       2.225  -3.436   1.536  0.00  0.00    +0.149 HD
ENDROOT
BRANCH   1  12
ATOM      8  C   UNL     1      -0.018   1.503   0.010  0.00  0.00    +0.044 C 
ATOM      9  C   UNL     1       0.002  -0.004   0.002  0.00  0.00    -0.050 A 
ATOM     10  C   UNL     1       0.006  -0.686  -1.202  0.00  0.00    +0.005 A 
ATOM     11  C   UNL     1       0.024  -2.065  -1.217  0.00  0.00    +0.028 A 
ATOM     12  C   UNL     1       0.040  -2.773  -0.013  0.00  0.00    +0.067 A 
ATOM     13  C   UNL     1       0.036  -2.079   1.198  0.00  0.00    +0.028 A 
ATOM     14  C   UNL     1       0.023  -0.699   1.198  0.00  0.00    +0.005 A 
ENDBRANCH   1  12
BRANCH   4  15
ATOM     15  C   UNL     1       1.161  -4.551   4.000  0.00  0.00    +0.233 C 
ATOM     16  O   UNL     1       0.191  -3.868   3.747  0.00  0.00    -0.274 OA
ATOM     17  N   UNL     1       1.462  -4.846   5.280  0.00  0.00    -0.328 N 
ATOM     18  H   UNL     1       2.237  -5.392   5.483  0.00  0.00    +0.145 HD
ATOM     19  H   UNL     1       0.903  -4.512   5.999  0.00  0.00    +0.145 HD
ENDBRANCH   4  15
BRANCH   5  20
ATOM     20  N   UNL     1       2.951  -7.376   2.787  0.00  0.00    -0.299 N 
ATOM     21  C   UNL     1       2.947  -8.516   3.506  0.00  0.00    +0.245 C 
ATOM     22  O   UNL     1       1.932  -8.877   4.064  0.00  0.00    -0.273 OA
ATOM     23  H   UNL     1       3.763  -7.087   2.341  0.00  0.00    +0.150 HD
BRANCH  21  24
ATOM     24  C   UNL     1       4.203  -9.341   3.618  0.00  0.00    +0.241 C 
ATOM     25  C   UNL     1       4.366 -10.227   2.417  0.00  0.00    -0.007 C 
ATOM     26  C   UNL     1       4.347 -11.488   2.916  0.00  0.00    +0.095 C 
ATOM     27  C   UNL     1       4.500 -12.642   1.994  0.00  0.00    +0.005 A 
ATOM     28  C   UNL     1       4.215 -13.938   2.397  0.00  0.00    +0.010 A 
ATOM     29  C   UNL     1       4.342 -14.977   1.493  0.00  0.00    +0.001 A 
ATOM     30  C   UNL     1       4.748 -14.716   0.197  0.00  0.00    +0.000 A 
ATOM     31  C   UNL     1       5.045 -13.426  -0.202  0.00  0.00    +0.004 A 
ATOM     32  C   UNL     1       4.940 -12.379   0.695  0.00  0.00    -0.038 A 
ATOM     33  C   UNL     1       5.345 -10.992   0.277  0.00  0.00    +0.040 C 
ATOM     34  C   UNL     1       4.504  -9.913   0.960  0.00  0.00    +0.040 C 
ATOM     35  N   UNL     1       4.183 -11.451   4.255  0.00  0.00    -0.153 NA
ATOM     36  N   UNL     1       4.096 -10.307   4.731  0.00  0.00    -0.170 NA
ENDBRANCH  21  24
ENDBRANCH   5  20
TORSDOF 4
