REMARK  Name = ZINC36027299
REMARK  10 active torsions:
REMARK  status: ('A' for Active; 'I' for Inactive)
REMARK    1  A    between atoms: C_1  and  C_2
REMARK    2  A    between atoms: C_2  and  C_3
REMARK    3  A    between atoms: C_3  and  C_5
REMARK    4  A    between atoms: C_3  and  N_6
REMARK    5  A    between atoms: C_9  and  C_29
REMARK    6  A    between atoms: N_15  and  S_18
REMARK    7  A    between atoms: S_18  and  C_21
REMARK    8  A    between atoms: C_24  and  O_27
REMARK    9  A    between atoms: O_27  and  C_28
REMARK   10  A    between atoms: C_29  and  C_30
REMARK                            x       y       z     vdW  Elec       q    Type
REMARK                         _______ _______ _______ _____ _____    ______ ____
ROOT
ATOM      1  N   UNL     1      -2.336  -0.180  -1.085  0.00  0.00    -0.311 N 
ATOM      2  C   UNL     1      -2.247  -0.649  -2.348  0.00  0.00    +0.201 C 
ATOM      3  O   UNL     1      -1.415  -1.430  -2.757  0.00  0.00    -0.277 OA
ATOM      4  C   UNL     1      -3.362  -0.035  -3.167  0.00  0.00    +0.023 C 
ATOM      5  N   UNL     1      -3.827   1.123  -2.365  0.00  0.00    +0.401 N 
ATOM      6  C   UNL     1      -3.479   0.731  -0.981  0.00  0.00    +0.006 C 
ATOM      7  C   UNL     1      -4.663   0.021  -0.328  0.00  0.00    +0.023 C 
ATOM      8  C   UNL     1      -4.277  -0.412   1.090  0.00  0.00    +0.109 C 
ATOM      9  N   UNL     1      -3.785   0.761   1.825  0.00  0.00    -0.177 NA
ATOM     10  C   UNL     1      -2.695   1.554   1.242  0.00  0.00    +0.109 C 
ATOM     11  C   UNL     1      -3.094   1.972  -0.177  0.00  0.00    +0.023 C 
ATOM     12  H   UNL     1      -3.339   1.963  -2.635  0.00  0.00    -0.082 HD
ATOM     13  H   UNL     1      -4.825   1.243  -2.459  0.00  0.00    -0.082 HD
ENDROOT
BRANCH   9  14
ATOM     14  S   UNL     1      -4.447   1.180   3.284  0.00  0.00    +0.061 S 
ATOM     15  O   UNL     1      -4.199   2.568   3.458  0.00  0.00    -0.153 OA
ATOM     16  O   UNL     1      -5.757   0.631   3.309  0.00  0.00    -0.153 OA
BRANCH  14  17
ATOM     17  C   UNL     1      -3.527   0.344   4.533  0.00  0.00    +0.106 A 
ATOM     18  C   UNL     1      -3.913  -0.918   4.946  0.00  0.00    +0.032 A 
ATOM     19  C   UNL     1      -3.193  -1.576   5.925  0.00  0.00    +0.047 A 
ATOM     20  C   UNL     1      -2.083  -0.969   6.494  0.00  0.00    +0.120 A 
ATOM     21  C   UNL     1      -1.697   0.297   6.077  0.00  0.00    +0.047 A 
ATOM     22  C   UNL     1      -2.417   0.948   5.094  0.00  0.00    +0.032 A 
BRANCH  20  23
ATOM     23  O   UNL     1      -1.373  -1.614   7.457  0.00  0.00    -0.495 OA
ATOM     24  C   UNL     1      -0.242  -0.929   7.997  0.00  0.00    +0.277 C 
ENDBRANCH  20  23
ENDBRANCH  14  17
ENDBRANCH   9  14
BRANCH   1  25
ATOM     25  C   UNL     1      -1.433  -0.534   0.013  0.00  0.00    +0.071 C 
ATOM     26  C   UNL     1      -1.213  -2.048   0.025  0.00  0.00    +0.028 C 
BRANCH  25  28
ATOM     27  C   UNL     1      -0.293   1.688  -0.070  0.00  0.00    +0.005 C 
ATOM     28  C   UNL     1      -0.091   0.175  -0.182  0.00  0.00    +0.019 C 
ENDBRANCH  25  28
ENDBRANCH   1  25
BRANCH   4  29
ATOM     29  C   UNL     1      -2.830   0.433  -4.523  0.00  0.00    +0.028 C 
BRANCH  29  30
ATOM     30  C   UNL     1      -3.971   0.961  -5.355  0.00  0.00    -0.048 A 
ATOM     31  C   UNL     1      -4.678   0.106  -6.181  0.00  0.00    +0.003 A 
ATOM     32  C   UNL     1      -5.724   0.590  -6.943  0.00  0.00    +0.000 A 
ATOM     33  C   UNL     1      -6.064   1.928  -6.880  0.00  0.00    +0.000 A 
ATOM     34  C   UNL     1      -5.358   2.783  -6.054  0.00  0.00    +0.000 A 
ATOM     35  C   UNL     1      -4.314   2.298  -5.288  0.00  0.00    +0.003 A 
ENDBRANCH  29  30
ENDBRANCH   4  29
TORSDOF 7
