REMARK  Name = ZINC39676928
REMARK  8 active torsions:
REMARK  status: ('A' for Active; 'I' for Inactive)
REMARK    1  A    between atoms: C_1  and  C_2
REMARK    2  A    between atoms: C_5  and  C_37
REMARK    3  A    between atoms: C_6  and  C_8
REMARK    4  A    between atoms: C_8  and  C_9
REMARK    5  A    between atoms: C_9  and  N_10
REMARK    6  A    between atoms: C_11  and  C_13
REMARK    7  A    between atoms: C_24  and  C_26
REMARK    8  A    between atoms: C_30  and  C_32
REMARK                            x       y       z     vdW  Elec       q    Type
REMARK                         _______ _______ _______ _____ _____    ______ ____
ROOT
ATOM      1  C   UNL     1       2.881  -4.430   5.938  0.00  0.00    +0.100 C 
ATOM      2  C   UNL     1       2.284  -3.812   7.223  0.00  0.00    +0.121 C 
ATOM      3  N   UNL     1       3.152  -4.311   8.316  0.00  0.00    -0.296 N 
ATOM      4  C   UNL     1       4.521  -4.267   7.749  0.00  0.00    +0.115 C 
ATOM      5  C   UNL     1       4.349  -4.727   6.288  0.00  0.00    -0.004 C 
ATOM      6  C   UNL     1       4.629  -6.222   6.168  0.00  0.00    -0.010 C 
ATOM      7  C   UNL     1       6.108  -6.485   6.465  0.00  0.00    -0.082 C 
ATOM      8  N   UNL     1       6.940  -5.734   5.518  0.00  0.00    +0.379 N 
ATOM      9  C   UNL     1       6.733  -4.292   5.702  0.00  0.00    -0.082 C 
ATOM     10  C   UNL     1       5.280  -3.937   5.374  0.00  0.00    -0.010 C 
ATOM     11  C   UNL     1       2.780  -4.713   9.547  0.00  0.00    +0.247 C 
ATOM     12  O   UNL     1       1.600  -4.813   9.824  0.00  0.00    -0.270 OA
ATOM     13  H   UNL     1       7.911  -5.956   5.676  0.00  0.00    -0.086 HD
ATOM     14  H   UNL     1       6.688  -5.990   4.575  0.00  0.00    -0.086 HD
ENDROOT
BRANCH  11  15
ATOM     15  C   UNL     1       3.806  -5.032  10.561  0.00  0.00    +0.038 A 
ATOM     16  C   UNL     1       5.102  -4.528  10.430  0.00  0.00    +0.016 A 
ATOM     17  C   UNL     1       6.055  -4.829  11.379  0.00  0.00    +0.039 A 
ATOM     18  C   UNL     1       5.729  -5.631  12.462  0.00  0.00    +0.135 A 
ATOM     19  C   UNL     1       4.444  -6.135  12.597  0.00  0.00    +0.091 A 
ATOM     20  C   UNL     1       3.482  -5.835  11.657  0.00  0.00    +0.028 A 
ATOM     21  F   UNL     1       6.668  -5.924  13.389  0.00  0.00    -0.205 F 
BRANCH  19  22
ATOM     22  C   UNL     1       4.098  -7.006  13.777  0.00  0.00    +0.420 C 
ATOM     23  F   UNL     1       2.755  -7.389  13.695  0.00  0.00    -0.166 F 
ATOM     24  F   UNL     1       4.909  -8.146  13.769  0.00  0.00    -0.166 F 
ATOM     25  F   UNL     1       4.309  -6.292  14.962  0.00  0.00    -0.166 F 
ENDBRANCH  19  22
ENDBRANCH  11  15
BRANCH   1  27
ATOM     26  N   UNL     1       2.676  -3.895   3.532  0.00  0.00    -0.315 N 
ATOM     27  C   UNL     1       2.801  -3.449   4.798  0.00  0.00    +0.218 C 
ATOM     28  O   UNL     1       2.849  -2.257   5.019  0.00  0.00    -0.275 OA
ATOM     29  H   UNL     1       2.637  -4.848   3.356  0.00  0.00    +0.149 HD
BRANCH  26  30
ATOM     30  C   UNL     1       2.598  -2.941   2.423  0.00  0.00    +0.109 C 
BRANCH  30  31
ATOM     31  C   UNL     1       2.461  -3.703   1.103  0.00  0.00    +0.054 C 
BRANCH  31  37
ATOM     32  C   UNL     1      -0.268  -0.988  -2.095  0.00  0.00    +0.044 C 
ATOM     33  C   UNL     1       1.075  -1.423  -1.568  0.00  0.00    -0.050 A 
ATOM     34  C   UNL     1       2.234  -0.921  -2.131  0.00  0.00    +0.003 A 
ATOM     35  C   UNL     1       3.466  -1.320  -1.647  0.00  0.00    +0.004 A 
ATOM     36  C   UNL     1       3.539  -2.220  -0.600  0.00  0.00    -0.047 A 
ATOM     37  C   UNL     1       2.381  -2.721  -0.037  0.00  0.00    -0.043 A 
ATOM     38  C   UNL     1       1.149  -2.319  -0.518  0.00  0.00    +0.007 A 
ATOM     39  C   UNL     1       4.882  -2.655  -0.073  0.00  0.00    +0.044 C 
ENDBRANCH  31  37
ENDBRANCH  30  31
ENDBRANCH  26  30
ENDBRANCH   1  27
TORSDOF 6
