REMARK  Name = ZINC20615230
REMARK  13 active torsions:
REMARK  status: ('A' for Active; 'I' for Inactive)
REMARK    1  A    between atoms: C_1  and  C_2
REMARK    2  A    between atoms: C_2  and  O_3
REMARK    3  A    between atoms: O_3  and  C_4
REMARK    4  A    between atoms: N_12  and  N_13
REMARK    5  A    between atoms: C_14  and  C_16
REMARK    6  A    between atoms: C_21  and  C_23
REMARK    7  A    between atoms: N_25  and  C_26
REMARK    8  A    between atoms: C_26  and  C_27
REMARK    9  A    between atoms: C_27  and  C_28
REMARK   10  A    between atoms: C_31  and  O_36
REMARK   11  A    between atoms: C_32  and  O_34
REMARK   12  A    between atoms: O_34  and  C_35
REMARK   13  A    between atoms: O_36  and  C_37
REMARK                            x       y       z     vdW  Elec       q    Type
REMARK                         _______ _______ _______ _____ _____    ______ ____
ROOT
ATOM      1  C   UNL     1       5.337  11.412  -4.879  0.00  0.00    +0.163 A 
ATOM      2  C   UNL     1       6.690  11.685  -5.002  0.00  0.00    +0.049 A 
ATOM      3  C   UNL     1       7.606  11.115  -4.130  0.00  0.00    +0.004 A 
ATOM      4  C   UNL     1       7.183  10.267  -3.131  0.00  0.00    +0.012 A 
ATOM      5  C   UNL     1       5.820   9.979  -2.995  0.00  0.00    +0.022 A 
ATOM      6  C   UNL     1       4.892  10.559  -3.876  0.00  0.00    +0.179 A 
ATOM      7  O   UNL     1       3.569  10.285  -3.739  0.00  0.00    -0.434 OA
ATOM      8  C   UNL     1       3.246   9.082  -3.179  0.00  0.00    +0.224 A 
ATOM      9  N   UNL     1       2.260   8.363  -3.641  0.00  0.00    -0.273 N 
ATOM     10  C   UNL     1       4.051   8.622  -2.025  0.00  0.00    +0.098 A 
ATOM     11  C   UNL     1       5.346   9.076  -1.940  0.00  0.00    +0.030 A 
ATOM     12  H   UNL     1       2.015   7.399  -3.172  0.00  0.00    +0.188 HD
ENDROOT
BRANCH   9  13
ATOM     13  N   UNL     1       1.512   8.820  -4.735  0.00  0.00    -0.223 N 
ATOM     14  C   UNL     1       0.494   8.078  -5.212  0.00  0.00    +0.268 C 
ATOM     15  O   UNL     1       0.223   7.010  -4.693  0.00  0.00    -0.268 OA
ATOM     16  H   UNL     1       1.757   9.784  -5.204  0.00  0.00    +0.175 HD
BRANCH  14  17
ATOM     17  C   UNL     1      -0.288   8.556  -6.357  0.00  0.00    +0.075 A 
ATOM     18  C   UNL     1      -1.361   7.954  -6.994  0.00  0.00    +0.021 A 
ATOM     19  C   UNL     1      -1.917   8.627  -8.054  0.00  0.00    +0.008 A 
ATOM     20  C   UNL     1      -1.398   9.827  -8.423  0.00  0.00    +0.046 A 
ATOM     21  S   UNL     1      -0.110  10.067  -7.287  0.00  0.00    -0.092 S 
ENDBRANCH  14  17
ENDBRANCH   9  13
BRANCH  10  22
ATOM     22  C   UNL     1       3.489   7.712  -1.012  0.00  0.00    +0.249 C 
ATOM     23  O   UNL     1       4.175   7.346  -0.077  0.00  0.00    -0.270 OA
ATOM     24  N   UNL     1       2.216   7.285  -1.123  0.00  0.00    -0.311 N 
ATOM     25  H   UNL     1       1.596   7.616  -1.969  0.00  0.00    +0.149 HD
BRANCH  24  26
ATOM     26  C   UNL     1       1.657   6.379  -0.116  0.00  0.00    +0.109 C 
BRANCH  26  27
ATOM     27  C   UNL     1       0.206   6.050  -0.474  0.00  0.00    +0.054 C 
BRANCH  27  28
ATOM     28  C   UNL     1      -0.368   5.119   0.562  0.00  0.00    -0.042 A 
ATOM     29  C   UNL     1      -1.003   5.634   1.677  0.00  0.00    +0.007 A 
ATOM     30  C   UNL     1      -1.532   4.784   2.629  0.00  0.00    +0.049 A 
ATOM     31  C   UNL     1      -1.427   3.411   2.468  0.00  0.00    +0.161 A 
ATOM     32  C   UNL     1      -0.787   2.893   1.346  0.00  0.00    +0.162 A 
ATOM     33  C   UNL     1      -0.254   3.751   0.398  0.00  0.00    +0.053 A 
BRANCH  32  34
ATOM     34  O   UNL     1      -0.682   1.547   1.184  0.00  0.00    -0.491 OA
ATOM     35  C   UNL     1      -0.013   1.086   0.008  0.00  0.00    +0.277 C 
ENDBRANCH  32  34
BRANCH  31  36
ATOM     36  O   UNL     1      -1.946   2.574   3.405  0.00  0.00    -0.491 OA
ATOM     37  C   UNL     1      -2.588   3.176   4.530  0.00  0.00    +0.277 C 
ENDBRANCH  31  36
ENDBRANCH  27  28
ENDBRANCH  26  27
ENDBRANCH  24  26
ENDBRANCH  10  22
BRANCH   1  38
ATOM     38  O   UNL     1       4.448  11.977  -5.739  0.00  0.00    -0.489 OA
BRANCH  38  40
ATOM     39  C   UNL     1       3.835  13.379  -7.609  0.00  0.00    +0.048 C 
ATOM     40  C   UNL     1       4.977  12.842  -6.745  0.00  0.00    +0.226 C 
ENDBRANCH  38  40
ENDBRANCH   1  38
TORSDOF 10
