REMARK  Name = ZINC39926565
REMARK  9 active torsions:
REMARK  status: ('A' for Active; 'I' for Inactive)
REMARK    1  A    between atoms: C_1  and  O_2
REMARK    2  A    between atoms: O_2  and  C_3
REMARK    3  A    between atoms: C_6  and  N_9
REMARK    4  A    between atoms: C_10  and  C_32
REMARK    5  A    between atoms: C_14  and  S_16
REMARK    6  A    between atoms: S_16  and  C_17
REMARK    7  A    between atoms: C_17  and  C_18
REMARK    8  A    between atoms: N_20  and  N_21
REMARK    9  A    between atoms: C_22  and  C_23
REMARK                            x       y       z     vdW  Elec       q    Type
REMARK                         _______ _______ _______ _____ _____    ______ ____
ROOT
ATOM      1  N   UNL     1       2.485  -2.505  -4.173  0.00  0.00    -0.284 N 
ATOM      2  C   UNL     1       2.580  -3.952  -4.432  0.00  0.00    +0.188 C 
ATOM      3  N   UNL     1       3.369  -4.108  -5.675  0.00  0.00    -0.230 NA
ATOM      4  N   UNL     1       3.205  -2.824  -6.375  0.00  0.00    -0.226 NA
ATOM      5  C   UNL     1       3.212  -1.835  -5.269  0.00  0.00    +0.218 C 
ATOM      6  H   UNL     1       3.018  -4.872  -6.233  0.00  0.00    +0.143 HD
ATOM      7  H   UNL     1       2.330  -2.795  -6.876  0.00  0.00    +0.143 HD
ENDROOT
BRANCH   1  11
ATOM      8  C   UNL     1       0.530  -0.665  -0.984  0.00  0.00    +0.120 A 
ATOM      9  C   UNL     1       1.276   0.096  -1.872  0.00  0.00    +0.047 A 
ATOM     10  C   UNL     1       1.924  -0.513  -2.928  0.00  0.00    +0.027 A 
ATOM     11  C   UNL     1       1.829  -1.887  -3.102  0.00  0.00    +0.033 A 
ATOM     12  C   UNL     1       1.081  -2.648  -2.213  0.00  0.00    +0.027 A 
ATOM     13  C   UNL     1       0.439  -2.039  -1.153  0.00  0.00    +0.047 A 
BRANCH   8  15
ATOM     14  C   UNL     1       0.029   1.353   0.170  0.00  0.00    +0.277 C 
ATOM     15  O   UNL     1      -0.108  -0.065   0.057  0.00  0.00    -0.495 OA
ENDBRANCH   8  15
ENDBRANCH   1  11
BRANCH   2  16
ATOM     16  C   UNL     1       3.280  -4.637  -3.286  0.00  0.00    -0.012 A 
ATOM     17  C   UNL     1       3.633  -3.915  -2.162  0.00  0.00    +0.007 A 
ATOM     18  C   UNL     1       4.275  -4.543  -1.111  0.00  0.00    +0.000 A 
ATOM     19  C   UNL     1       4.562  -5.893  -1.184  0.00  0.00    +0.000 A 
ATOM     20  C   UNL     1       4.208  -6.615  -2.308  0.00  0.00    +0.000 A 
ATOM     21  C   UNL     1       3.562  -5.988  -3.357  0.00  0.00    +0.007 A 
ENDBRANCH   2  16
BRANCH   5  22
ATOM     22  S   UNL     1       4.915  -1.463  -4.767  0.00  0.00    -0.112 S 
BRANCH  22  23
ATOM     23  C   UNL     1       5.688  -3.095  -4.594  0.00  0.00    +0.169 C 
BRANCH  23  24
ATOM     24  C   UNL     1       7.157  -2.927  -4.306  0.00  0.00    +0.242 C 
ATOM     25  O   UNL     1       7.636  -1.816  -4.225  0.00  0.00    -0.273 OA
ATOM     26  N   UNL     1       7.939  -4.012  -4.138  0.00  0.00    -0.206 N 
ATOM     27  H   UNL     1       7.556  -4.900  -4.202  0.00  0.00    +0.177 HD
BRANCH  26  28
ATOM     28  N   UNL     1       9.306  -3.855  -3.870  0.00  0.00    -0.188 NA
ATOM     29  C   UNL     1      10.065  -4.909  -3.707  0.00  0.00    +0.136 C 
BRANCH  29  30
ATOM     30  C   UNL     1      11.433  -4.753  -3.438  0.00  0.00    +0.000 C 
ATOM     31  C   UNL     1      12.374  -5.761  -3.245  0.00  0.00    +0.004 A 
ATOM     32  C   UNL     1      12.278  -7.171  -3.254  0.00  0.00    +0.010 A 
ATOM     33  C   UNL     1      13.385  -7.922  -3.030  0.00  0.00    +0.001 A 
ATOM     34  C   UNL     1      14.631  -7.336  -2.788  0.00  0.00    +0.002 A 
ATOM     35  C   UNL     1      14.798  -5.992  -2.765  0.00  0.00    +0.026 A 
ATOM     36  C   UNL     1      13.685  -5.139  -2.991  0.00  0.00    +0.043 A 
ATOM     37  N   UNL     1      13.585  -3.827  -3.021  0.00  0.00    -0.380 N 
ATOM     38  C   UNL     1      12.196  -3.453  -3.304  0.00  0.00    +0.150 C 
ATOM     39  H   UNL     1      14.316  -3.205  -2.881  0.00  0.00    +0.160 HD
ENDBRANCH  29  30
ENDBRANCH  26  28
ENDBRANCH  23  24
ENDBRANCH  22  23
ENDBRANCH   5  22
TORSDOF 8
