REMARK  Name = ZINC63684125
REMARK  10 active torsions:
REMARK  status: ('A' for Active; 'I' for Inactive)
REMARK    1  A    between atoms: C_1  and  C_2
REMARK    2  A    between atoms: C_2  and  O_3
REMARK    3  A    between atoms: O_3  and  C_4
REMARK    4  A    between atoms: C_4  and  C_6
REMARK    5  A    between atoms: C_9  and  N_12
REMARK    6  A    between atoms: C_13  and  C_15
REMARK    7  A    between atoms: C_15  and  C_17
REMARK    8  A    between atoms: C_15  and  N_27
REMARK    9  A    between atoms: C_17  and  C_18
REMARK   10  A    between atoms: C_28  and  C_30
REMARK                            x       y       z     vdW  Elec       q    Type
REMARK                         _______ _______ _______ _____ _____    ______ ____
ROOT
ATOM      1  C   UNL     1       4.172  -5.762   7.201  0.00  0.00    +0.163 C 
ENDROOT
BRANCH   1   3
ATOM      2  N   UNL     1       3.819  -3.873   5.644  0.00  0.00    -0.284 N 
ATOM      3  C   UNL     1       3.869  -5.207   5.834  0.00  0.00    +0.238 C 
ATOM      4  O   UNL     1       3.671  -5.959   4.904  0.00  0.00    -0.273 OA
ATOM      5  H   UNL     1       4.047  -3.271   6.370  0.00  0.00    +0.155 HD
BRANCH   2   9
ATOM      6  C   UNL     1       2.687  -2.337   1.941  0.00  0.00    +0.059 A 
ATOM      7  C   UNL     1       2.133  -3.536   2.402  0.00  0.00    +0.017 A 
ATOM      8  C   UNL     1       2.510  -4.040   3.626  0.00  0.00    +0.024 A 
ATOM      9  C   UNL     1       3.440  -3.359   4.404  0.00  0.00    +0.033 A 
ATOM     10  C   UNL     1       3.993  -2.166   3.950  0.00  0.00    +0.024 A 
ATOM     11  C   UNL     1       3.626  -1.659   2.724  0.00  0.00    +0.017 A 
BRANCH   6  12
ATOM     12  C   UNL     1       2.286  -1.794   0.630  0.00  0.00    +0.339 C 
ATOM     13  O   UNL     1       2.772  -0.755   0.229  0.00  0.00    -0.245 OA
BRANCH  12  14
ATOM     14  O   UNL     1       1.381  -2.449  -0.123  0.00  0.00    -0.461 OA
BRANCH  14  16
ATOM     15  C   UNL     1       0.007  -2.745  -2.088  0.00  0.00    +0.048 C 
ATOM     16  C   UNL     1       1.040  -1.865  -1.382  0.00  0.00    +0.229 C 
ENDBRANCH  14  16
ENDBRANCH  12  14
ENDBRANCH   6  12
ENDBRANCH   2   9
ENDBRANCH   1   3
BRANCH   1  17
ATOM     17  N   UNL     1       4.169  -7.226   7.145  0.00  0.00    -0.303 N 
ATOM     18  C   UNL     1       5.139  -7.926   7.767  0.00  0.00    +0.220 C 
ATOM     19  O   UNL     1       6.014  -7.344   8.373  0.00  0.00    -0.275 OA
ATOM     20  H   UNL     1       3.470  -7.692   6.661  0.00  0.00    +0.149 HD
BRANCH  18  21
ATOM     21  C   UNL     1       5.136  -9.432   7.709  0.00  0.00    +0.048 C 
ATOM     22  C   UNL     1       5.229  -9.887   6.252  0.00  0.00    +0.019 C 
ATOM     23  C   UNL     1       5.226 -11.416   6.193  0.00  0.00    -0.009 C 
ATOM     24  C   UNL     1       6.425 -11.958   6.974  0.00  0.00    +0.007 C 
ATOM     25  C   UNL     1       6.332 -11.503   8.431  0.00  0.00    -0.009 C 
ATOM     26  C   UNL     1       6.335  -9.974   8.490  0.00  0.00    +0.019 C 
ATOM     27  C   UNL     1       5.038 -12.035   9.050  0.00  0.00    +0.007 C 
ATOM     28  C   UNL     1       3.839 -11.492   8.270  0.00  0.00    -0.009 C 
ATOM     29  C   UNL     1       3.932 -11.947   6.812  0.00  0.00    +0.007 C 
ATOM     30  C   UNL     1       3.842  -9.964   8.328  0.00  0.00    +0.019 C 
ENDBRANCH  18  21
ENDBRANCH   1  17
BRANCH   1  31
ATOM     31  C   UNL     1       3.107  -5.288   8.192  0.00  0.00    +0.065 C 
BRANCH  31  32
ATOM     32  C   UNL     1       3.497  -5.703   9.587  0.00  0.00    -0.039 C 
ATOM     33  C   UNL     1       4.150  -4.954  10.505  0.00  0.00    -0.001 A 
ATOM     34  C   UNL     1       4.672  -3.583  10.481  0.00  0.00    +0.010 A 
ATOM     35  C   UNL     1       5.294  -3.098  11.580  0.00  0.00    +0.001 A 
ATOM     36  C   UNL     1       5.452  -3.871  12.738  0.00  0.00    +0.002 A 
ATOM     37  C   UNL     1       5.000  -5.139  12.836  0.00  0.00    +0.026 A 
ATOM     38  C   UNL     1       4.330  -5.750  11.741  0.00  0.00    +0.043 A 
ATOM     39  N   UNL     1       3.809  -6.944  11.592  0.00  0.00    -0.380 N 
ATOM     40  C   UNL     1       3.234  -7.038  10.245  0.00  0.00    +0.144 C 
ATOM     41  H   UNL     1       3.802  -7.645  12.261  0.00  0.00    +0.160 HD
ENDBRANCH  31  32
ENDBRANCH   1  31
TORSDOF 9
