REMARK  Name = ZINC36560524
REMARK  11 active torsions:
REMARK  status: ('A' for Active; 'I' for Inactive)
REMARK    1  A    between atoms: C_1  and  C_2
REMARK    2  A    between atoms: C_2  and  C_3
REMARK    3  A    between atoms: C_3  and  N_4
REMARK    4  A    between atoms: N_4  and  C_5
REMARK    5  A    between atoms: C_5  and  C_7
REMARK    6  A    between atoms: C_5  and  C_16
REMARK    7  A    between atoms: C_8  and  O_15
REMARK    8  A    between atoms: C_10  and  O_14
REMARK    9  A    between atoms: C_12  and  O_13
REMARK   10  A    between atoms: N_18  and  C_19
REMARK   11  A    between atoms: C_25  and  C_27
REMARK                            x       y       z     vdW  Elec       q    Type
REMARK                         _______ _______ _______ _____ _____    ______ ____
ROOT
ATOM      1  C   UNL     1      -1.680  -2.840   1.096  0.00  0.00    +0.199 C 
ENDROOT
BRANCH   1   2
ATOM      2  C   UNL     1      -3.005  -2.207   1.432  0.00  0.00    +0.065 A 
ATOM      3  C   UNL     1      -3.211  -1.654   2.687  0.00  0.00    +0.129 A 
ATOM      4  C   UNL     1      -4.431  -1.071   2.996  0.00  0.00    +0.091 A 
ATOM      5  C   UNL     1      -5.444  -1.040   2.050  0.00  0.00    +0.124 A 
ATOM      6  C   UNL     1      -5.238  -1.593   0.795  0.00  0.00    +0.091 A 
ATOM      7  C   UNL     1      -4.017  -2.172   0.484  0.00  0.00    +0.129 A 
BRANCH   7   8
ATOM      8  O   UNL     1      -3.814  -2.709  -0.747  0.00  0.00    -0.506 OA
ATOM      9  H   UNL     1      -4.053  -3.643  -0.813  0.00  0.00    +0.292 HD
ENDBRANCH   7   8
BRANCH   5  10
ATOM     10  O   UNL     1      -6.640  -0.470   2.354  0.00  0.00    -0.507 OA
ATOM     11  H   UNL     1      -6.689   0.474   2.148  0.00  0.00    +0.292 HD
ENDBRANCH   5  10
BRANCH   3  12
ATOM     12  O   UNL     1      -2.218  -1.683   3.614  0.00  0.00    -0.506 OA
ATOM     13  H   UNL     1      -1.687  -0.876   3.647  0.00  0.00    +0.292 HD
ENDBRANCH   3  12
ENDBRANCH   1   2
BRANCH   1  14
ATOM     14  C   UNL     1      -0.619  -2.309   2.025  0.00  0.00    +0.239 C 
ATOM     15  O   UNL     1       0.025  -1.329   1.713  0.00  0.00    -0.273 OA
ATOM     16  N   UNL     1      -0.386  -2.922   3.202  0.00  0.00    -0.311 N 
ATOM     17  H   UNL     1      -0.858  -3.739   3.426  0.00  0.00    +0.149 HD
BRANCH  16  18
ATOM     18  C   UNL     1       0.582  -2.353   4.145  0.00  0.00    +0.073 C 
ATOM     19  C   UNL     1       1.989  -2.833   3.783  0.00  0.00    +0.022 C 
ATOM     20  C   UNL     1       2.998  -2.240   4.768  0.00  0.00    +0.002 C 
ATOM     21  C   UNL     1       2.654  -2.694   6.188  0.00  0.00    +0.000 C 
ATOM     22  C   UNL     1       1.247  -2.214   6.549  0.00  0.00    +0.002 C 
ATOM     23  C   UNL     1       0.237  -2.808   5.565  0.00  0.00    +0.022 C 
ENDBRANCH  16  18
ENDBRANCH   1  14
BRANCH   1  24
ATOM     24  N   UNL     1      -1.322  -2.520  -0.288  0.00  0.00    -0.285 N 
ATOM     25  C   UNL     1      -1.305  -1.237  -0.700  0.00  0.00    +0.220 C 
ATOM     26  O   UNL     1      -1.601  -0.348   0.071  0.00  0.00    -0.275 OA
BRANCH  25  27
ATOM     27  C   UNL     1      -0.917  -0.905  -2.118  0.00  0.00    +0.075 C 
ATOM     28  C   UNL     1       0.540  -1.309  -2.355  0.00  0.00    +0.013 C 
ATOM     29  C   UNL     1       0.934  -0.973  -3.795  0.00  0.00    +0.001 C 
ATOM     30  C   UNL     1       0.777   0.531  -4.029  0.00  0.00    +0.000 C 
ATOM     31  C   UNL     1      -0.680   0.935  -3.791  0.00  0.00    +0.001 C 
ATOM     32  C   UNL     1      -1.074   0.599  -2.351  0.00  0.00    +0.013 C 
ENDBRANCH  25  27
BRANCH  24  33
ATOM     33  C   UNL     1      -0.984  -3.594  -1.225  0.00  0.00    +0.108 C 
BRANCH  33  35
ATOM     34  C   UNL     1       0.790  -5.210  -1.921  0.00  0.00    +0.005 C 
ATOM     35  C   UNL     1       0.429  -4.102  -0.929  0.00  0.00    +0.016 C 
ENDBRANCH  33  35
ENDBRANCH  24  33
ENDBRANCH   1  24
TORSDOF 10
