REMARK  Name = ZINC39344974
REMARK  10 active torsions:
REMARK  status: ('A' for Active; 'I' for Inactive)
REMARK    1  A    between atoms: C_1  and  O_2
REMARK    2  A    between atoms: O_2  and  C_3
REMARK    3  A    between atoms: C_3  and  C_5
REMARK    4  A    between atoms: C_7  and  N_34
REMARK    5  A    between atoms: C_11  and  N_27
REMARK    6  A    between atoms: N_15  and  C_16
REMARK    7  A    between atoms: C_16  and  C_17
REMARK    8  A    between atoms: C_17  and  C_18
REMARK    9  A    between atoms: N_27  and  C_28
REMARK   10  A    between atoms: C_35  and  C_37
REMARK                            x       y       z     vdW  Elec       q    Type
REMARK                         _______ _______ _______ _____ _____    ______ ____
ROOT
ATOM      1  C   UNL     1       0.657  -2.104  -1.120  0.00  0.00    +0.208 C 
ATOM      2  C   UNL     1      -0.669  -2.663  -1.660  0.00  0.00    +0.138 C 
ATOM      3  C   UNL     1      -0.285  -3.379  -2.934  0.00  0.00    +0.015 A 
ATOM      4  C   UNL     1      -1.047  -4.074  -3.854  0.00  0.00    +0.033 A 
ATOM      5  C   UNL     1      -0.406  -4.640  -4.955  0.00  0.00    +0.044 A 
ATOM      6  C   UNL     1       0.966  -4.482  -5.081  0.00  0.00    +0.107 A 
ATOM      7  N   UNL     1       1.658  -3.812  -4.184  0.00  0.00    -0.348 N 
ATOM      8  C   UNL     1       1.085  -3.256  -3.117  0.00  0.00    +0.105 A 
ATOM      9  N   UNL     1       1.675  -2.523  -2.086  0.00  0.00    -0.301 N 
ATOM     10  H   UNL     1       2.616  -3.721  -4.303  0.00  0.00    +0.167 HD
ENDROOT
BRANCH   2  11
ATOM     11  N   UNL     1      -1.258  -3.601  -0.701  0.00  0.00    -0.306 N 
ATOM     12  C   UNL     1      -2.588  -3.818  -0.700  0.00  0.00    +0.219 C 
ATOM     13  O   UNL     1      -3.297  -3.238  -1.494  0.00  0.00    -0.275 OA
ATOM     14  H   UNL     1      -0.690  -4.065  -0.066  0.00  0.00    +0.149 HD
BRANCH  12  15
ATOM     15  C   UNL     1      -3.193  -4.783   0.287  0.00  0.00    +0.103 C 
ATOM     16  C   UNL     1      -4.732  -4.830   0.124  0.00  0.00    +0.043 C 
ATOM     17  C   UNL     1      -5.212  -4.888   1.597  0.00  0.00    +0.160 C 
ATOM     18  O   UNL     1      -4.279  -4.030   2.289  0.00  0.00    -0.379 OA
ATOM     19  C   UNL     1      -2.977  -4.285   1.729  0.00  0.00    +0.172 C 
ENDBRANCH  12  15
ENDBRANCH   2  11
BRANCH   1  20
ATOM     20  C   UNL     1       0.598  -0.600  -1.043  0.00  0.00    +0.330 C 
ATOM     21  O   UNL     1       1.088   0.070  -1.921  0.00  0.00    -0.249 OA
BRANCH  20  23
ATOM     22  C   UNL     1      -0.017   1.425   0.010  0.00  0.00    +0.280 C 
ATOM     23  O   UNL     1       0.002  -0.004   0.002  0.00  0.00    -0.467 OA
ENDBRANCH  20  23
ENDBRANCH   1  20
BRANCH   5  24
ATOM     24  N   UNL     1      -1.133  -5.355  -5.914  0.00  0.00    -0.340 N 
ATOM     25  H   UNL     1      -2.093  -5.460  -5.816  0.00  0.00    +0.146 HD
BRANCH  24  26
ATOM     26  C   UNL     1      -0.446  -5.944  -7.066  0.00  0.00    +0.075 C 
ATOM     27  C   UNL     1      -0.314  -4.896  -8.175  0.00  0.00    +0.050 C 
ATOM     28  C   UNL     1       0.334  -5.542  -9.402  0.00  0.00    +0.161 C 
ATOM     29  O   UNL     1      -0.453  -6.658  -9.823  0.00  0.00    -0.380 OA
ATOM     30  C   UNL     1      -0.572  -7.691  -8.844  0.00  0.00    +0.161 C 
ATOM     31  C   UNL     1      -1.256  -7.132  -7.594  0.00  0.00    +0.050 C 
ENDBRANCH  24  26
ENDBRANCH   5  24
BRANCH   9  32
ATOM     32  C   UNL     1       3.104  -2.217  -1.985  0.00  0.00    +0.112 C 
BRANCH  32  33
ATOM     33  C   UNL     1       3.810  -3.326  -1.202  0.00  0.00    +0.056 C 
BRANCH  33  34
ATOM     34  C   UNL     1       5.280  -3.011  -1.098  0.00  0.00    -0.021 A 
ATOM     35  C   UNL     1       5.919  -2.161  -0.091  0.00  0.00    +0.003 A 
ATOM     36  C   UNL     1       5.450  -1.429   1.001  0.00  0.00    +0.010 A 
ATOM     37  C   UNL     1       6.328  -0.718   1.769  0.00  0.00    +0.001 A 
ATOM     38  C   UNL     1       7.684  -0.717   1.473  0.00  0.00    +0.002 A 
ATOM     39  C   UNL     1       8.169  -1.433   0.400  0.00  0.00    +0.026 A 
ATOM     40  C   UNL     1       7.293  -2.164  -0.396  0.00  0.00    +0.047 A 
ATOM     41  N   UNL     1       7.461  -2.960  -1.506  0.00  0.00    -0.360 N 
ATOM     42  C   UNL     1       6.252  -3.460  -1.907  0.00  0.00    +0.087 A 
ATOM     43  H   UNL     1       8.310  -3.143  -1.938  0.00  0.00    +0.165 HD
ENDBRANCH  33  34
ENDBRANCH  32  33
ENDBRANCH   9  32
TORSDOF 9
