REMARK  Name = ZINC12250076
REMARK  11 active torsions:
REMARK  status: ('A' for Active; 'I' for Inactive)
REMARK    1  A    between atoms: C_1  and  C_2
REMARK    2  A    between atoms: C_6  and  C_38
REMARK    3  A    between atoms: C_7  and  N_8
REMARK    4  A    between atoms: C_9  and  C_11
REMARK    5  A    between atoms: C_12  and  C_37
REMARK    6  A    between atoms: C_14  and  S_25
REMARK    7  A    between atoms: C_15  and  C_23
REMARK    8  A    between atoms: C_16  and  C_18
REMARK    9  A    between atoms: S_25  and  C_26
REMARK   10  A    between atoms: C_26  and  C_27
REMARK   11  A    between atoms: N_29  and  C_30
REMARK                            x       y       z     vdW  Elec       q    Type
REMARK                         _______ _______ _______ _____ _____    ______ ____
ROOT
ATOM      1  C   UNL     1      10.983  -1.935  -1.509  0.00  0.00    +0.047 C 
ATOM      2  C   UNL     1       9.718  -1.871  -1.954  0.00  0.00    +0.015 C 
ATOM      3  N   UNL     1       8.837  -0.955  -1.447  0.00  0.00    -0.312 N 
ATOM      4  C   UNL     1       9.300   0.139  -0.750  0.00  0.00    +0.080 C 
ATOM      5  C   UNL     1      10.567   0.156  -0.255  0.00  0.00    +0.072 C 
ATOM      6  C   UNL     1      11.489  -1.017  -0.432  0.00  0.00    +0.134 C 
ATOM      7  C   UNL     1       9.261  -2.822  -3.030  0.00  0.00    +0.061 C 
ATOM      8  H   UNL     1       7.755  -1.092  -1.595  0.00  0.00    +0.152 HD
ENDROOT
BRANCH   6   9
ATOM      9  C   UNL     1      11.583  -1.779   0.864  0.00  0.00    +0.118 A 
ATOM     10  C   UNL     1      12.703  -1.973   1.583  0.00  0.00    +0.045 A 
ATOM     11  C   UNL     1      12.336  -2.735   2.716  0.00  0.00    +0.041 A 
ATOM     12  C   UNL     1      11.013  -2.961   2.622  0.00  0.00    +0.195 A 
ATOM     13  O   UNL     1      10.561  -2.375   1.501  0.00  0.00    -0.467 OA
ENDBRANCH   6   9
BRANCH   1  15
ATOM     14  N   UNL     1      13.137  -2.971  -1.633  0.00  0.00    -0.281 N 
ATOM     15  C   UNL     1      11.863  -2.892  -2.068  0.00  0.00    +0.247 C 
ATOM     16  O   UNL     1      11.470  -3.644  -2.941  0.00  0.00    -0.270 OA
ATOM     17  H   UNL     1      13.466  -2.359  -0.781  0.00  0.00    +0.155 HD
BRANCH  14  24
ATOM     18  C   UNL     1      12.476  -5.735  -1.785  0.00  0.00    +0.045 C 
ATOM     19  C   UNL     1      13.757  -5.188  -2.363  0.00  0.00    -0.029 A 
ATOM     20  C   UNL     1      14.647  -6.035  -2.993  0.00  0.00    +0.005 A 
ATOM     21  C   UNL     1      15.825  -5.535  -3.518  0.00  0.00    +0.001 A 
ATOM     22  C   UNL     1      16.111  -4.185  -3.420  0.00  0.00    +0.005 A 
ATOM     23  C   UNL     1      15.222  -3.333  -2.796  0.00  0.00    -0.029 A 
ATOM     24  C   UNL     1      14.039  -3.832  -2.267  0.00  0.00    +0.040 A 
ATOM     25  C   UNL     1      15.535  -1.862  -2.689  0.00  0.00    +0.045 C 
ENDBRANCH  14  24
ENDBRANCH   1  15
BRANCH   5  26
ATOM     26  C   UNL     1      11.029   1.311   0.453  0.00  0.00    +0.098 C 
ATOM     27  N   UNL     1      11.395   2.228   1.015  0.00  0.00    -0.191 NA
ENDBRANCH   5  26
BRANCH   4  28
ATOM     28  S   UNL     1       8.246   1.529  -0.503  0.00  0.00    -0.100 S 
BRANCH  28  29
ATOM     29  C   UNL     1       6.758   0.950  -1.356  0.00  0.00    +0.171 C 
BRANCH  29  30
ATOM     30  C   UNL     1       5.688   2.008  -1.273  0.00  0.00    +0.227 C 
ATOM     31  O   UNL     1       5.910   3.051  -0.694  0.00  0.00    -0.275 OA
ATOM     32  N   UNL     1       4.484   1.796  -1.841  0.00  0.00    -0.285 N 
ATOM     33  H   UNL     1       4.263   0.827  -2.313  0.00  0.00    +0.155 HD
BRANCH  32  34
ATOM     34  C   UNL     1       3.517   2.808  -1.831  0.00  0.00    +0.034 A 
ATOM     35  C   UNL     1       3.902   4.139  -1.924  0.00  0.00    +0.026 A 
ATOM     36  C   UNL     1       2.946   5.136  -1.914  0.00  0.00    +0.040 A 
ATOM     37  C   UNL     1       1.605   4.809  -1.810  0.00  0.00    +0.124 A 
ATOM     38  C   UNL     1       1.218   3.482  -1.718  0.00  0.00    +0.040 A 
ATOM     39  C   UNL     1       2.171   2.482  -1.728  0.00  0.00    +0.026 A 
ATOM     40  F   UNL     1       0.671   5.785  -1.794  0.00  0.00    -0.205 F 
ENDBRANCH  32  34
ENDBRANCH  29  30
ENDBRANCH  28  29
ENDBRANCH   4  28
TORSDOF 8
