REMARK  Name = ZINC39450418
REMARK  4 active torsions:
REMARK  status: ('A' for Active; 'I' for Inactive)
REMARK    1  A    between atoms: C_4  and  O_7
REMARK    2  A    between atoms: O_7  and  S_8
REMARK    3  A    between atoms: S_8  and  C_11
REMARK    4  A    between atoms: C_24  and  O_27
REMARK                            x       y       z     vdW  Elec       q    Type
REMARK                         _______ _______ _______ _____ _____    ______ ____
ROOT
ATOM      1  C   UNL     1       3.192  -2.273   2.002  0.00  0.00    +0.147 A 
ATOM      2  C   UNL     1       2.049  -2.018   2.739  0.00  0.00    +0.047 A 
ATOM      3  C   UNL     1       1.333  -3.108   3.236  0.00  0.00    +0.069 A 
ATOM      4  C   UNL     1       1.796  -4.415   2.972  0.00  0.00    +0.099 A 
ATOM      5  C   UNL     1       1.025  -5.545   3.508  0.00  0.00    +0.084 A 
ATOM      6  C   UNL     1      -0.120  -5.308   4.243  0.00  0.00    +0.122 A 
ATOM      7  N   UNL     1      -0.554  -4.011   4.490  0.00  0.00    -0.237 N 
ATOM      8  C   UNL     1       0.108  -2.934   4.029  0.00  0.00    +0.271 A 
ATOM      9  O   UNL     1      -0.309  -1.816   4.268  0.00  0.00    -0.266 OA
ATOM     10 BR   UNL     1      -2.091  -3.757   5.487  0.00  0.00    +0.058 Br
ATOM     11  C   UNL     1      -0.869  -6.396   4.750  0.00  0.00    +0.186 C 
ATOM     12  O   UNL     1      -1.848  -6.184   5.437  0.00  0.00    -0.290 OA
ATOM     13  C   UNL     1      -0.463  -7.814   4.445  0.00  0.00    +0.132 C 
ATOM     14  C   UNL     1       1.056  -7.878   4.255  0.00  0.00    +0.207 C 
ATOM     15  N   UNL     1       1.443  -6.843   3.284  0.00  0.00    -0.316 N 
ATOM     16  N   UNL     1       2.900  -4.601   2.260  0.00  0.00    -0.251 NA
ATOM     17  C   UNL     1       3.585  -3.586   1.778  0.00  0.00    +0.142 A 
ATOM     18  H   UNL     1       1.977  -7.067   2.505  0.00  0.00    +0.149 HD
ENDROOT
BRANCH   1  19
ATOM     19  S   UNL     1       4.140  -0.941   1.346  0.00  0.00    +0.152 S 
ATOM     20  O   UNL     1       5.458  -1.436   1.154  0.00  0.00    -0.131 OA
ATOM     21  O   UNL     1       3.863   0.192   2.158  0.00  0.00    -0.131 OA
BRANCH  19  22
ATOM     22  O   UNL     1       3.586  -0.632  -0.037  0.00  0.00    -0.342 OA
BRANCH  22  26
ATOM     23  C   UNL     1      -0.017   1.378   0.010  0.00  0.00    +0.000 A 
ATOM     24  C   UNL     1       1.170   2.088   0.002  0.00  0.00    +0.004 A 
ATOM     25  C   UNL     1       2.377   1.417  -0.013  0.00  0.00    +0.048 A 
ATOM     26  C   UNL     1       2.399   0.030  -0.021  0.00  0.00    +0.157 A 
ATOM     27  C   UNL     1       1.207  -0.680  -0.013  0.00  0.00    +0.048 A 
ATOM     28  C   UNL     1       0.002  -0.004   0.002  0.00  0.00    +0.004 A 
ENDBRANCH  22  26
ENDBRANCH  19  22
ENDBRANCH   1  19
BRANCH  14  29
ATOM     29  O   UNL     1       1.709  -7.637   5.503  0.00  0.00    -0.374 OA
ATOM     30  H   UNL     1       2.674  -7.663   5.454  0.00  0.00    +0.212 HD
ENDBRANCH  14  29
TORSDOF 4
