REMARK  Name = ZINC63671337
REMARK  9 active torsions:
REMARK  status: ('A' for Active; 'I' for Inactive)
REMARK    1  A    between atoms: C_1  and  N_2
REMARK    2  A    between atoms: C_4  and  C_11
REMARK    3  A    between atoms: N_21  and  C_22
REMARK    4  A    between atoms: C_22  and  C_23
REMARK    5  A    between atoms: C_23  and  C_24
REMARK    6  A    between atoms: C_24  and  C_25
REMARK    7  A    between atoms: N_27  and  C_28
REMARK    8  A    between atoms: C_28  and  C_29
REMARK    9  A    between atoms: C_29  and  C_30
REMARK                            x       y       z     vdW  Elec       q    Type
REMARK                         _______ _______ _______ _____ _____    ______ ____
ROOT
ATOM      1  C   UNL     1       0.040  -3.247  -1.694  0.00  0.00    +0.050 C 
ATOM      2  C   UNL     1       0.054  -4.539  -1.312  0.00  0.00    +0.037 C 
ATOM      3  C   UNL     1       0.039  -5.335  -2.589  0.00  0.00    +0.189 C 
ATOM      4  N   UNL     1      -0.476  -4.324  -3.561  0.00  0.00    -0.204 NA
ATOM      5  N   UNL     1       0.033  -3.162  -3.098  0.00  0.00    -0.275 N 
ATOM      6  C   UNL     1      -0.188  -4.765  -4.908  0.00  0.00    +0.117 C 
ATOM      7  C   UNL     1      -0.695  -6.196  -5.103  0.00  0.00    +0.113 C 
ATOM      8  C   UNL     1      -1.356  -6.760  -3.880  0.00  0.00    +0.218 C 
ATOM      9  O   UNL     1      -2.264  -7.553  -4.011  0.00  0.00    -0.276 OA
ATOM     10  N   UNL     1      -0.952  -6.415  -2.620  0.00  0.00    -0.281 N 
ATOM     11  H   UNL     1       0.337  -2.413  -3.633  0.00  0.00    +0.167 HD
ENDROOT
BRANCH   1  15
ATOM     12  C   UNL     1      -0.018   1.461   0.010  0.00  0.00    +0.149 C 
ATOM     13  N   UNL     1       0.002  -0.004   0.002  0.00  0.00    -0.349 N 
ATOM     14  C   UNL     1       0.008  -0.778  -1.121  0.00  0.00    +0.096 A 
ATOM     15  C   UNL     1       0.028  -2.090  -0.774  0.00  0.00    +0.022 A 
ATOM     16  C   UNL     1       0.035  -2.136   0.698  0.00  0.00    +0.009 A 
ATOM     17  C   UNL     1       0.024  -0.799   1.128  0.00  0.00    +0.049 A 
ATOM     18  C   UNL     1       0.032  -0.520   2.491  0.00  0.00    +0.026 A 
ATOM     19  C   UNL     1       0.055  -1.552   3.404  0.00  0.00    +0.002 A 
ATOM     20  C   UNL     1       0.070  -2.872   2.978  0.00  0.00    +0.001 A 
ATOM     21  C   UNL     1       0.053  -3.170   1.633  0.00  0.00    +0.010 A 
ENDBRANCH   1  15
BRANCH  10  22
ATOM     22  C   UNL     1      -1.469  -7.055  -1.408  0.00  0.00    +0.110 C 
BRANCH  22  23
ATOM     23  C   UNL     1      -2.712  -6.305  -0.925  0.00  0.00    +0.028 C 
BRANCH  23  24
ATOM     24  C   UNL     1      -3.251  -6.974   0.340  0.00  0.00    +0.097 C 
BRANCH  24  25
ATOM     25  C   UNL     1      -4.476  -6.235   0.816  0.00  0.00    +0.213 C 
ATOM     26  O   UNL     1      -4.877  -5.268   0.203  0.00  0.00    -0.276 OA
ATOM     27  N   UNL     1      -5.124  -6.648   1.923  0.00  0.00    -0.315 N 
ATOM     28  H   UNL     1      -4.803  -7.421   2.413  0.00  0.00    +0.149 HD
BRANCH  27  29
ATOM     29  C   UNL     1      -6.314  -5.930   2.385  0.00  0.00    +0.110 C 
BRANCH  29  30
ATOM     30  C   UNL     1      -6.854  -6.598   3.651  0.00  0.00    +0.073 C 
BRANCH  30  31
ATOM     31  C   UNL     1      -8.078  -5.860   4.127  0.00  0.00    +0.035 A 
ATOM     32  H   UNL     1     -11.095  -5.084   4.296  0.00  0.00    +0.166 HD
ATOM     33  C   UNL     1      -9.339  -6.057   3.696  0.00  0.00    +0.105 A 
ATOM     34  N   UNL     1     -10.134  -5.182   4.386  0.00  0.00    -0.352 N 
ATOM     35  C   UNL     1      -9.332  -4.480   5.215  0.00  0.00    +0.171 A 
ATOM     36  N   UNL     1      -8.104  -4.894   5.058  0.00  0.00    -0.350 N 
ATOM     37  H   UNL     1      -7.332  -4.556   5.538  0.00  0.00    +0.166 HD
ENDBRANCH  30  31
ENDBRANCH  29  30
ENDBRANCH  27  29
ENDBRANCH  24  25
ENDBRANCH  23  24
ENDBRANCH  22  23
ENDBRANCH  10  22
TORSDOF 8
