REMARK  Name = ZINC04001716
REMARK  13 active torsions:
REMARK  status: ('A' for Active; 'I' for Inactive)
REMARK    1  A    between atoms: C_1  and  C_2
REMARK    2  A    between atoms: C_2  and  C_3
REMARK    3  A    between atoms: N_5  and  C_6
REMARK    4  A    between atoms: C_6  and  C_7
REMARK    5  A    between atoms: C_6  and  C_12
REMARK    6  A    between atoms: C_6  and  N_16
REMARK    7  A    between atoms: C_7  and  O_9
REMARK    8  A    between atoms: O_9  and  C_10
REMARK    9  A    between atoms: C_10  and  C_11
REMARK   10  A    between atoms: N_16  and  C_17
REMARK   11  A    between atoms: C_20  and  S_23
REMARK   12  A    between atoms: S_23  and  N_26
REMARK   13  A    between atoms: C_29  and  C_32
REMARK                            x       y       z     vdW  Elec       q    Type
REMARK                         _______ _______ _______ _____ _____    ______ ____
ROOT
ATOM      1  N   UNL     1      -0.374   1.721  -5.000  0.00  0.00    -0.307 N 
ATOM      2  H   UNL     1       0.503   1.320  -5.100  0.00  0.00    +0.149 HD
ENDROOT
BRANCH   1   3
ATOM      3  C   UNL     1      -1.047   2.218  -6.119  0.00  0.00    +0.029 A 
ATOM      4  C   UNL     1      -2.241   2.911  -5.962  0.00  0.00    +0.025 A 
ATOM      5  C   UNL     1      -2.901   3.405  -7.070  0.00  0.00    +0.030 A 
ATOM      6  C   UNL     1      -2.380   3.201  -8.335  0.00  0.00    +0.109 A 
ATOM      7  C   UNL     1      -1.194   2.508  -8.495  0.00  0.00    +0.030 A 
ATOM      8  C   UNL     1      -0.526   2.016  -7.391  0.00  0.00    +0.025 A 
BRANCH   6   9
ATOM      9  S   UNL     1      -3.229   3.828  -9.746  0.00  0.00    +0.074 S 
ATOM     10  O   UNL     1      -4.030   4.910  -9.291  0.00  0.00    -0.150 OA
ATOM     11  O   UNL     1      -2.256   3.978 -10.771  0.00  0.00    -0.150 OA
BRANCH   9  12
ATOM     12  N   UNL     1      -4.273   2.647 -10.254  0.00  0.00    -0.197 N 
ATOM     13  C   UNL     1      -5.331   2.257  -9.440  0.00  0.00    +0.181 A 
ATOM     14  C   UNL     1      -6.309   1.266  -9.727  0.00  0.00    +0.092 A 
ATOM     15  C   UNL     1      -7.104   1.266  -8.633  0.00  0.00    +0.136 A 
ATOM     16  O   UNL     1      -6.606   2.189  -7.797  0.00  0.00    -0.358 OA
ATOM     17  N   UNL     1      -5.624   2.725  -8.254  0.00  0.00    -0.062 NA
ATOM     18  C   UNL     1      -8.312   0.397  -8.399  0.00  0.00    +0.089 C 
ATOM     19  H   UNL     1      -4.146   2.227 -11.119  0.00  0.00    +0.175 HD
ENDBRANCH   9  12
ENDBRANCH   6   9
ENDBRANCH   1   3
BRANCH   1  20
ATOM     20  C   UNL     1      -0.993   1.807  -3.675  0.00  0.00    +0.295 C 
BRANCH  20  23
ATOM     21  C   UNL     1      -3.174   1.393  -2.669  0.00  0.00    +0.215 C 
ATOM     22  O   UNL     1      -2.738   1.813  -1.618  0.00  0.00    -0.276 OA
ATOM     23  N   UNL     1      -2.365   1.299  -3.744  0.00  0.00    -0.278 N 
ATOM     24  H   UNL     1      -2.692   0.894  -4.562  0.00  0.00    +0.152 HD
BRANCH  21  26
ATOM     25  C   UNL     1      -5.307   1.183  -1.423  0.00  0.00    +0.013 C 
ATOM     26  C   UNL     1      -4.618   0.977  -2.774  0.00  0.00    +0.092 C 
ENDBRANCH  21  26
ENDBRANCH  20  23
BRANCH  20  27
ATOM     27  C   UNL     1      -0.188   0.968  -2.681  0.00  0.00    +0.438 C 
ATOM     28  F   UNL     1      -0.099  -0.348  -3.146  0.00  0.00    -0.166 F 
ATOM     29  F   UNL     1       1.098   1.504  -2.551  0.00  0.00    -0.166 F 
ATOM     30  F   UNL     1      -0.826   0.981  -1.436  0.00  0.00    -0.166 F 
ENDBRANCH  20  27
BRANCH  20  31
ATOM     31  C   UNL     1      -1.011   3.244  -3.221  0.00  0.00    +0.359 C 
ATOM     32  O   UNL     1      -1.989   3.690  -2.668  0.00  0.00    -0.246 OA
BRANCH  31  33
ATOM     33  O   UNL     1       0.058   4.027  -3.430  0.00  0.00    -0.462 OA
BRANCH  33  34
ATOM     34  C   UNL     1      -0.030   5.401  -2.966  0.00  0.00    +0.229 C 
ATOM     35  C   UNL     1       1.273   6.133  -3.291  0.00  0.00    +0.048 C 
ENDBRANCH  33  34
ENDBRANCH  31  33
ENDBRANCH  20  31
ENDBRANCH   1  20
TORSDOF 10
