REMARK  Name = ZINC31173483
REMARK  11 active torsions:
REMARK  status: ('A' for Active; 'I' for Inactive)
REMARK    1  A    between atoms: C_1  and  C_2
REMARK    2  A    between atoms: C_2  and  N_3
REMARK    3  A    between atoms: N_3  and  C_4
REMARK    4  A    between atoms: N_3  and  C_16
REMARK    5  A    between atoms: C_4  and  C_5
REMARK    6  A    between atoms: C_16  and  C_17
REMARK    7  A    between atoms: N_19  and  C_20
REMARK    8  A    between atoms: C_20  and  C_21
REMARK    9  A    between atoms: C_21  and  C_22
REMARK   10  A    between atoms: C_25  and  S_28
REMARK   11  A    between atoms: S_28  and  N_31
REMARK                            x       y       z     vdW  Elec       q    Type
REMARK                         _______ _______ _______ _____ _____    ______ ____
ROOT
ATOM      1  C   UNL     1       0.405   1.273  -2.152  0.00  0.00    +0.196 C 
ATOM      2  O   UNL     1       0.626   1.894  -1.134  0.00  0.00    -0.278 OA
ATOM      3  N   UNL     1       0.065   1.927  -3.280  0.00  0.00    -0.317 N 
ATOM      4  H   UNL     1      -0.135   1.363  -4.203  0.00  0.00    +0.149 HD
ENDROOT
BRANCH   1   5
ATOM      5  C   UNL     1       0.512  -0.231  -2.155  0.00  0.00    +0.019 C 
BRANCH   5   6
ATOM      6  N   UNL     1       0.797  -0.704  -0.794  0.00  0.00    +0.388 N 
ATOM      7  H   UNL     1       1.525  -0.015  -0.342  0.00  0.00    -0.081 HD
BRANCH   6   9
ATOM      8  C   UNL     1      -1.414  -1.715  -0.502  0.00  0.00    -0.017 C 
ATOM      9  C   UNL     1      -0.416  -0.687   0.034  0.00  0.00    -0.081 C 
ENDBRANCH   6   9
BRANCH   6  10
ATOM     10  C   UNL     1       1.399  -2.044  -0.818  0.00  0.00    -0.030 C 
BRANCH  10  11
ATOM     11  C   UNL     1       2.155  -2.287   0.489  0.00  0.00    +0.195 C 
ATOM     12  C   UNL     1       2.894  -3.630   0.418  0.00  0.00    +0.271 C 
ATOM     13  O   UNL     1       3.578  -3.832   1.659  0.00  0.00    -0.485 OA
ATOM     14  C   UNL     1       2.869  -3.589   2.795  0.00  0.00    +0.162 A 
ATOM     15  C   UNL     1       3.325  -4.093   4.004  0.00  0.00    +0.049 A 
ATOM     16  C   UNL     1       2.618  -3.850   5.166  0.00  0.00    +0.004 A 
ATOM     17  C   UNL     1       1.454  -3.105   5.128  0.00  0.00    +0.004 A 
ATOM     18  C   UNL     1       0.993  -2.602   3.926  0.00  0.00    +0.049 A 
ATOM     19  C   UNL     1       1.697  -2.842   2.756  0.00  0.00    +0.162 A 
ATOM     20  O   UNL     1       1.229  -2.342   1.580  0.00  0.00    -0.484 OA
ENDBRANCH  10  11
ENDBRANCH   6  10
ENDBRANCH   5   6
ENDBRANCH   1   5
BRANCH   3  21
ATOM     21  C   UNL     1      -0.039   3.388  -3.276  0.00  0.00    +0.109 C 
BRANCH  21  22
ATOM     22  C   UNL     1      -0.437   3.874  -4.672  0.00  0.00    +0.054 C 
BRANCH  22  23
ATOM     23  C   UNL     1      -0.543   5.377  -4.668  0.00  0.00    -0.046 A 
ATOM     24  C   UNL     1      -1.749   5.984  -4.371  0.00  0.00    +0.005 A 
ATOM     25  C   UNL     1      -1.846   7.363  -4.364  0.00  0.00    +0.029 A 
ATOM     26  C   UNL     1      -0.739   8.135  -4.663  0.00  0.00    +0.105 A 
ATOM     27  C   UNL     1       0.466   7.528  -4.965  0.00  0.00    +0.029 A 
ATOM     28  C   UNL     1       0.564   6.149  -4.968  0.00  0.00    +0.005 A 
BRANCH  26  29
ATOM     29  S   UNL     1      -0.864   9.893  -4.660  0.00  0.00    +0.056 S 
ATOM     30  O   UNL     1      -1.957  10.221  -3.813  0.00  0.00    -0.153 OA
ATOM     31  O   UNL     1       0.448  10.393  -4.439  0.00  0.00    -0.153 OA
BRANCH  29  32
ATOM     32  N   UNL     1      -1.295  10.355  -6.190  0.00  0.00    -0.204 NA
ATOM     33  H   UNL     1      -1.384  11.451  -6.231  0.00  0.00    +0.144 HD
ATOM     34  H   UNL     1      -2.261   9.899  -6.453  0.00  0.00    +0.144 HD
ENDBRANCH  29  32
ENDBRANCH  26  29
ENDBRANCH  22  23
ENDBRANCH  21  22
ENDBRANCH   3  21
TORSDOF 10
