REMARK  Name = ZINC43773496
REMARK  8 active torsions:
REMARK  status: ('A' for Active; 'I' for Inactive)
REMARK    1  A    between atoms: C_1  and  O_2
REMARK    2  A    between atoms: O_2  and  C_3
REMARK    3  A    between atoms: C_7  and  C_11
REMARK    4  A    between atoms: C_8  and  O_9
REMARK    5  A    between atoms: O_9  and  C_10
REMARK    6  A    between atoms: C_22  and  S_27
REMARK    7  A    between atoms: S_27  and  N_30
REMARK    8  A    between atoms: N_30  and  C_31
REMARK                            x       y       z     vdW  Elec       q    Type
REMARK                         _______ _______ _______ _____ _____    ______ ____
ROOT
ATOM      1  C   UNL     1      -3.156  -4.660   1.265  0.00  0.00    +0.109 C 
ATOM      2  C   UNL     1      -2.887  -4.977  -0.191  0.00  0.00    +0.029 C 
ATOM      3  C   UNL     1      -1.385  -5.354  -0.333  0.00  0.00    +0.033 C 
ATOM      4  C   UNL     1      -1.364  -6.859  -0.186  0.00  0.00    -0.030 C 
ATOM      5  C   UNL     1      -2.558  -7.364  -0.371  0.00  0.00    -0.023 C 
ATOM      6  C   UNL     1      -3.562  -6.257  -0.679  0.00  0.00    +0.049 C 
ATOM      7  C   UNL     1      -4.906  -6.513  -0.085  0.00  0.00    -0.018 A 
ATOM      8  C   UNL     1      -5.742  -7.444  -0.685  0.00  0.00    +0.034 A 
ATOM      9  C   UNL     1      -6.997  -7.695  -0.169  0.00  0.00    +0.109 A 
ATOM     10  C   UNL     1      -7.436  -7.017   0.954  0.00  0.00    +0.030 A 
ATOM     11  C   UNL     1      -6.611  -6.093   1.562  0.00  0.00    +0.025 A 
ATOM     12  C   UNL     1      -5.343  -5.844   1.049  0.00  0.00    +0.031 A 
ATOM     13  N   UNL     1      -4.505  -4.955   1.695  0.00  0.00    -0.336 N 
ATOM     14  H   UNL     1      -4.854  -4.487   2.470  0.00  0.00    +0.147 HD
ENDROOT
BRANCH   1  19
ATOM     15  C   UNL     1      -3.635  -0.910   1.458  0.00  0.00    +0.162 A 
ATOM     16  C   UNL     1      -2.392  -0.502   1.915  0.00  0.00    +0.049 A 
ATOM     17  C   UNL     1      -1.404  -1.437   2.159  0.00  0.00    +0.004 A 
ATOM     18  C   UNL     1      -1.652  -2.780   1.949  0.00  0.00    +0.009 A 
ATOM     19  C   UNL     1      -2.889  -3.195   1.494  0.00  0.00    +0.018 A 
ATOM     20  C   UNL     1      -3.886  -2.264   1.253  0.00  0.00    +0.166 A 
BRANCH  15  22
ATOM     21  C   UNL     1      -4.279   1.379   1.451  0.00  0.00    +0.277 C 
ATOM     22  O   UNL     1      -4.609   0.008   1.218  0.00  0.00    -0.491 OA
ENDBRANCH  15  22
BRANCH  20  23
ATOM     23  O   UNL     1      -5.106  -2.670   0.810  0.00  0.00    -0.491 OA
ATOM     24  C   UNL     1      -5.340  -2.607  -0.598  0.00  0.00    +0.277 C 
ENDBRANCH  20  23
ENDBRANCH   1  19
BRANCH   9  25
ATOM     25  S   UNL     1      -8.044  -8.882  -0.944  0.00  0.00    +0.072 S 
ATOM     26  O   UNL     1      -9.368  -8.599  -0.511  0.00  0.00    -0.150 OA
ATOM     27  O   UNL     1      -7.681  -8.909  -2.317  0.00  0.00    -0.150 OA
BRANCH  25  28
ATOM     28  N   UNL     1      -7.650 -10.364  -0.320  0.00  0.00    -0.216 N 
ATOM     29  H   UNL     1      -8.307 -10.870   0.183  0.00  0.00    +0.174 HD
BRANCH  28  30
ATOM     30  C   UNL     1      -6.368 -10.887  -0.518  0.00  0.00    +0.048 A 
ATOM     31  C   UNL     1      -5.785 -10.840  -1.778  0.00  0.00    +0.027 A 
ATOM     32  C   UNL     1      -4.519 -11.357  -1.971  0.00  0.00    +0.040 A 
ATOM     33  C   UNL     1      -3.831 -11.921  -0.910  0.00  0.00    +0.124 A 
ATOM     34  C   UNL     1      -4.410 -11.969   0.347  0.00  0.00    +0.040 A 
ATOM     35  C   UNL     1      -5.674 -11.448   0.546  0.00  0.00    +0.027 A 
ATOM     36  F   UNL     1      -2.593 -12.427  -1.101  0.00  0.00    -0.205 F 
ENDBRANCH  28  30
ENDBRANCH  25  28
ENDBRANCH   9  25
TORSDOF 6
