REMARK  Name = ZINC39287174
REMARK  9 active torsions:
REMARK  status: ('A' for Active; 'I' for Inactive)
REMARK    1  A    between atoms: C_4  and  C_7
REMARK    2  A    between atoms: C_7  and  N_8
REMARK    3  A    between atoms: N_8  and  C_9
REMARK    4  A    between atoms: C_16  and  N_18
REMARK    5  A    between atoms: N_18  and  C_19
REMARK    6  A    between atoms: N_18  and  C_26
REMARK    7  A    between atoms: C_19  and  C_20
REMARK    8  A    between atoms: C_26  and  N_28
REMARK    9  A    between atoms: N_28  and  C_29
REMARK                            x       y       z     vdW  Elec       q    Type
REMARK                         _______ _______ _______ _____ _____    ______ ____
ROOT
ATOM      1  N   UNL     1       7.241  -0.973   2.715  0.00  0.00    -0.305 N 
ENDROOT
BRANCH   1   8
ATOM      2  C   UNL     1       6.044  -2.623   4.030  0.00  0.00    -0.028 C 
ATOM      3  C   UNL     1       4.734  -2.409   4.821  0.00  0.00    +0.152 C 
ATOM      4  S   UNL     1       4.136  -0.816   4.105  0.00  0.00    -0.031 S 
ATOM      5  O   UNL     1       2.716  -0.831   4.046  0.00  0.00    -0.174 OA
ATOM      6  O   UNL     1       4.805   0.265   4.739  0.00  0.00    -0.174 OA
ATOM      7  C   UNL     1       4.821  -1.049   2.407  0.00  0.00    +0.186 C 
ATOM      8  C   UNL     1       6.088  -1.877   2.705  0.00  0.00    +0.084 C 
BRANCH   2   9
ATOM      9  N   UNL     1       6.203  -4.059   3.765  0.00  0.00    +0.386 N 
ATOM     10  H   UNL     1       7.024  -4.207   3.198  0.00  0.00    -0.085 HD
ATOM     11  H   UNL     1       5.390  -4.403   3.277  0.00  0.00    -0.085 HD
BRANCH   9  12
ATOM     12  C   UNL     1       6.350  -4.778   5.038  0.00  0.00    -0.046 C 
BRANCH  12  16
ATOM     13  C   UNL     1       6.812  -8.954   4.270  0.00  0.00    +0.000 A 
ATOM     14  C   UNL     1       7.925  -8.137   4.336  0.00  0.00    +0.000 A 
ATOM     15  C   UNL     1       7.775  -6.785   4.584  0.00  0.00    +0.002 A 
ATOM     16  C   UNL     1       6.513  -6.251   4.766  0.00  0.00    -0.064 A 
ATOM     17  C   UNL     1       5.401  -7.069   4.699  0.00  0.00    +0.002 A 
ATOM     18  C   UNL     1       5.551  -8.421   4.452  0.00  0.00    +0.000 A 
ENDBRANCH  12  16
ENDBRANCH   9  12
ENDBRANCH   2   9
ENDBRANCH   1   8
BRANCH   1  19
ATOM     19  C   UNL     1       8.266  -1.179   1.865  0.00  0.00    +0.134 C 
ATOM     20  S   UNL     1       8.172  -2.428   0.697  0.00  0.00    -0.019 S 
BRANCH  19  21
ATOM     21  N   UNL     1       9.365  -0.403   1.933  0.00  0.00    -0.322 N 
ATOM     22  H   UNL     1       9.418   0.305   2.595  0.00  0.00    +0.148 HD
BRANCH  21  23
ATOM     23  C   UNL     1      10.479  -0.627   1.009  0.00  0.00    +0.094 C 
ATOM     24  C   UNL     1      11.422  -1.699   1.582  0.00  0.00    +0.046 C 
ATOM     25  C   UNL     1      12.749  -1.714   0.787  0.00  0.00    +0.168 C 
ATOM     26  S   UNL     1      12.882   0.021   0.189  0.00  0.00    -0.029 S 
ATOM     27  O   UNL     1      13.958   0.660   0.860  0.00  0.00    -0.174 OA
ATOM     28  O   UNL     1      12.842   0.024  -1.232  0.00  0.00    -0.174 OA
ATOM     29  C   UNL     1      11.291   0.689   0.836  0.00  0.00    +0.188 C 
ENDBRANCH  21  23
ENDBRANCH  19  21
ENDBRANCH   1  19
BRANCH   1  30
ATOM     30  C   UNL     1       7.279   0.155   3.649  0.00  0.00    +0.142 C 
BRANCH  30  31
ATOM     31  C   UNL     1       7.925  -0.283   4.938  0.00  0.00    -0.030 A 
ATOM     32  C   UNL     1       7.140  -0.682   6.003  0.00  0.00    +0.005 A 
ATOM     33  C   UNL     1       7.733  -1.084   7.186  0.00  0.00    +0.000 A 
ATOM     34  C   UNL     1       9.110  -1.085   7.303  0.00  0.00    +0.000 A 
ATOM     35  C   UNL     1       9.895  -0.686   6.238  0.00  0.00    +0.000 A 
ATOM     36  C   UNL     1       9.303  -0.289   5.054  0.00  0.00    +0.005 A 
ENDBRANCH  30  31
ENDBRANCH   1  30
TORSDOF 9
