REMARK  Name = ZINC39657748
REMARK  8 active torsions:
REMARK  status: ('A' for Active; 'I' for Inactive)
REMARK    1  A    between atoms: C_4  and  S_30
REMARK    2  A    between atoms: C_5  and  C_7
REMARK    3  A    between atoms: C_7  and  N_8
REMARK    4  A    between atoms: C_9  and  C_11
REMARK    5  A    between atoms: C_22  and  C_24
REMARK    6  A    between atoms: S_30  and  C_31
REMARK    7  A    between atoms: C_36  and  C_37
REMARK    8  A    between atoms: C_37  and  O_38
REMARK                            x       y       z     vdW  Elec       q    Type
REMARK                         _______ _______ _______ _____ _____    ______ ____
ROOT
ATOM      1  N   UNL     1       0.511  -3.619   1.416  0.00  0.00    -0.311 N 
ATOM      2  C   UNL     1       1.751  -3.696   1.940  0.00  0.00    +0.218 C 
ATOM      3  O   UNL     1       2.721  -3.561   1.224  0.00  0.00    -0.275 OA
ATOM      4  H   UNL     1      -0.265  -3.727   1.988  0.00  0.00    +0.149 HD
ENDROOT
BRANCH   2   5
ATOM      5  C   UNL     1       1.931  -3.951   3.414  0.00  0.00    +0.100 C 
ATOM      6  C   UNL     1       3.229  -3.282   3.920  0.00  0.00    +0.121 C 
ATOM      7  N   UNL     1       3.778  -4.235   4.913  0.00  0.00    -0.296 N 
ATOM      8  C   UNL     1       3.528  -5.571   4.320  0.00  0.00    +0.115 C 
ATOM      9  C   UNL     1       2.132  -5.453   3.677  0.00  0.00    -0.004 C 
ATOM     10  C   UNL     1       2.088  -6.230   2.365  0.00  0.00    -0.010 C 
ATOM     11  C   UNL     1       2.231  -7.726   2.658  0.00  0.00    -0.082 C 
ATOM     12  N   UNL     1       1.143  -8.159   3.543  0.00  0.00    +0.379 N 
ATOM     13  C   UNL     1       1.248  -7.475   4.837  0.00  0.00    -0.082 C 
ATOM     14  C   UNL     1       1.063  -5.968   4.636  0.00  0.00    -0.010 C 
ATOM     15  C   UNL     1       4.371  -3.952   6.090  0.00  0.00    +0.248 C 
ATOM     16  O   UNL     1       4.415  -2.804   6.488  0.00  0.00    -0.270 OA
ATOM     17  H   UNL     1       0.256  -7.937   3.117  0.00  0.00    -0.086 HD
ATOM     18  H   UNL     1       1.204  -9.156   3.685  0.00  0.00    -0.086 HD
BRANCH  15  19
ATOM     19  C   UNL     1       4.968  -5.037   6.897  0.00  0.00    +0.055 A 
ATOM     20  C   UNL     1       5.370  -6.235   6.293  0.00  0.00    +0.016 A 
ATOM     21  C   UNL     1       5.924  -7.219   7.093  0.00  0.00    +0.020 A 
ATOM     22  C   UNL     1       6.061  -6.991   8.450  0.00  0.00    +0.111 A 
ATOM     23  N   UNL     1       5.673  -5.852   8.992  0.00  0.00    -0.263 NA
ATOM     24  C   UNL     1       5.146  -4.883   8.272  0.00  0.00    +0.123 A 
ENDBRANCH  15  19
ENDBRANCH   2   5
BRANCH   1  25
ATOM     25  C   UNL     1       0.336  -3.371  -0.017  0.00  0.00    +0.140 C 
BRANCH  25  30
ATOM     26  C   UNL     1      -3.101  -4.400  -1.196  0.00  0.00    +0.000 A 
ATOM     27  C   UNL     1      -3.838  -3.257  -0.944  0.00  0.00    +0.001 A 
ATOM     28  C   UNL     1      -3.228  -2.148  -0.393  0.00  0.00    +0.015 A 
ATOM     29  C   UNL     1      -1.872  -2.180  -0.090  0.00  0.00    +0.017 A 
ATOM     30  C   UNL     1      -1.135  -3.331  -0.344  0.00  0.00    -0.017 A 
ATOM     31  C   UNL     1      -1.751  -4.436  -0.896  0.00  0.00    +0.006 A 
BRANCH  29  32
ATOM     32  S   UNL     1      -1.090  -0.767   0.613  0.00  0.00    -0.089 S 
BRANCH  32  33
ATOM     33  C   UNL     1      -2.347   0.468   0.596  0.00  0.00    +0.018 A 
ATOM     34  C   UNL     1      -2.995   0.818   1.775  0.00  0.00    +0.015 A 
ATOM     35  C   UNL     1      -3.979   1.786   1.758  0.00  0.00    +0.001 A 
ATOM     36  C   UNL     1      -4.319   2.408   0.571  0.00  0.00    +0.000 A 
ATOM     37  C   UNL     1      -3.676   2.063  -0.604  0.00  0.00    +0.007 A 
ATOM     38  C   UNL     1      -2.687   1.099  -0.594  0.00  0.00    -0.008 A 
BRANCH  38  39
ATOM     39  C   UNL     1      -1.983   0.728  -1.873  0.00  0.00    +0.192 C 
BRANCH  39  40
ATOM     40  O   UNL     1      -2.506   1.509  -2.949  0.00  0.00    -0.390 OA
ATOM     41  H   UNL     1      -2.098   1.322  -3.806  0.00  0.00    +0.210 HD
ENDBRANCH  39  40
ENDBRANCH  38  39
ENDBRANCH  32  33
ENDBRANCH  29  32
ENDBRANCH  25  30
ENDBRANCH   1  25
TORSDOF 8
