REMARK  Name = ZINC15898719
REMARK  11 active torsions:
REMARK  status: ('A' for Active; 'I' for Inactive)
REMARK    1  A    between atoms: C_4  and  C_27
REMARK    2  A    between atoms: C_6  and  S_7
REMARK    3  A    between atoms: S_7  and  N_10
REMARK    4  A    between atoms: N_10  and  C_11
REMARK    5  A    between atoms: C_11  and  C_12
REMARK    6  A    between atoms: C_12  and  C_13
REMARK    7  A    between atoms: N_15  and  N_16
REMARK    8  A    between atoms: N_16  and  C_17
REMARK    9  A    between atoms: C_17  and  N_19
REMARK   10  A    between atoms: N_19  and  C_20
REMARK   11  A    between atoms: C_20  and  C_21
REMARK                            x       y       z     vdW  Elec       q    Type
REMARK                         _______ _______ _______ _____ _____    ______ ____
ROOT
ATOM      1  C   UNL     1      -0.018   1.461   0.010  0.00  0.00    +0.115 C 
ENDROOT
BRANCH   1   2
ATOM      2  N   UNL     1       0.002  -0.004   0.002  0.00  0.00    -0.189 NA
ATOM      3  H   UNL     1       0.818  -0.477  -0.226  0.00  0.00    +0.148 HD
BRANCH   2   4
ATOM      4  S   UNL     1      -1.368  -0.853   0.382  0.00  0.00    +0.058 S 
ATOM      5  O   UNL     1      -1.040  -2.230   0.260  0.00  0.00    -0.153 OA
ATOM      6  O   UNL     1      -1.871  -0.293   1.587  0.00  0.00    -0.153 OA
BRANCH   4  12
ATOM      7  C   UNL     1      -3.430   0.557  -0.720  0.00  0.00    +0.030 A 
ATOM      8  C   UNL     1      -4.360   0.832  -1.704  0.00  0.00    +0.022 A 
ATOM      9  C   UNL     1      -4.428   0.037  -2.834  0.00  0.00    +0.053 A 
ATOM     10  C   UNL     1      -3.561  -1.031  -2.981  0.00  0.00    +0.075 A 
ATOM     11  C   UNL     1      -2.626  -1.302  -1.999  0.00  0.00    +0.042 A 
ATOM     12  C   UNL     1      -2.559  -0.506  -0.870  0.00  0.00    +0.106 A 
ATOM     13 CL   UNL     1      -5.602   0.378  -4.067  0.00  0.00    -0.083 Cl
BRANCH  10  14
ATOM     14  C   UNL     1      -3.634  -1.898  -4.211  0.00  0.00    +0.419 C 
ATOM     15  F   UNL     1      -2.664  -2.903  -4.132  0.00  0.00    -0.166 F 
ATOM     16  F   UNL     1      -4.903  -2.480  -4.296  0.00  0.00    -0.166 F 
ATOM     17  F   UNL     1      -3.402  -1.115  -5.347  0.00  0.00    -0.166 F 
ENDBRANCH  10  14
ENDBRANCH   4  12
ENDBRANCH   2   4
ENDBRANCH   1   2
BRANCH   1  18
ATOM     18  C   UNL     1       1.418   1.990  -0.001  0.00  0.00    +0.114 C 
BRANCH  18  19
ATOM     19  C   UNL     1       1.397   3.497   0.007  0.00  0.00    +0.230 C 
ATOM     20  O   UNL     1       0.339   4.089   0.021  0.00  0.00    -0.274 OA
ATOM     21  N   UNL     1       2.555   4.187   0.000  0.00  0.00    -0.235 N 
ATOM     22  H   UNL     1       3.402   3.713  -0.011  0.00  0.00    +0.173 HD
BRANCH  21  23
ATOM     23  N   UNL     1       2.536   5.588   0.008  0.00  0.00    -0.246 N 
ATOM     24  H   UNL     1       1.690   6.061   0.018  0.00  0.00    +0.172 HD
BRANCH  23  25
ATOM     25  C   UNL     1       3.694   6.277   0.001  0.00  0.00    +0.147 C 
ATOM     26  S   UNL     1       3.671   7.989   0.010  0.00  0.00    -0.017 S 
BRANCH  25  27
ATOM     27  N   UNL     1       4.870   5.620  -0.014  0.00  0.00    -0.323 N 
ATOM     28  H   UNL     1       4.883   4.650  -0.020  0.00  0.00    +0.148 HD
BRANCH  27  29
ATOM     29  C   UNL     1       6.129   6.369  -0.022  0.00  0.00    +0.134 C 
BRANCH  29  30
ATOM     30  C   UNL     1       7.305   5.391  -0.039  0.00  0.00    +0.135 C 
ATOM     31  C   UNL     1       8.634   6.170  -0.047  0.00  0.00    +0.035 C 
ATOM     32  C   UNL     1       9.370   5.679   1.224  0.00  0.00    +0.031 C 
ATOM     33  C   UNL     1       8.665   4.328   1.506  0.00  0.00    +0.160 C 
ATOM     34  O   UNL     1       7.289   4.587   1.153  0.00  0.00    -0.375 OA
ENDBRANCH  29  30
ENDBRANCH  27  29
ENDBRANCH  25  27
ENDBRANCH  23  25
ENDBRANCH  21  23
ENDBRANCH  18  19
ENDBRANCH   1  18
TORSDOF 11
