REMARK  Name = ZINC27518895
REMARK  11 active torsions:
REMARK  status: ('A' for Active; 'I' for Inactive)
REMARK    1  A    between atoms: C_1  and  C_2
REMARK    2  A    between atoms: C_2  and  N_3
REMARK    3  A    between atoms: N_3  and  C_4
REMARK    4  A    between atoms: C_9  and  N_10
REMARK    5  A    between atoms: N_13  and  C_16
REMARK    6  A    between atoms: C_16  and  C_17
REMARK    7  A    between atoms: C_17  and  C_31
REMARK    8  A    between atoms: C_21  and  C_30
REMARK    9  A    between atoms: C_22  and  O_29
REMARK   10  A    between atoms: C_23  and  C_28
REMARK   11  A    between atoms: C_24  and  C_27
REMARK                            x       y       z     vdW  Elec       q    Type
REMARK                         _______ _______ _______ _____ _____    ______ ____
ROOT
ATOM      1  N   UNL     1       5.380  -1.092   0.667  0.00  0.00    -0.313 N 
ATOM      2  C   UNL     1       3.942  -0.835   0.511  0.00  0.00    +0.122 C 
ATOM      3  C   UNL     1       3.574   0.455   1.249  0.00  0.00    +0.103 C 
ATOM      4  N   UNL     1       3.932   0.324   2.668  0.00  0.00    -0.296 NA
ATOM      5  C   UNL     1       5.370   0.067   2.824  0.00  0.00    +0.103 C 
ATOM      6  C   UNL     1       5.738  -1.223   2.087  0.00  0.00    +0.122 C 
ENDROOT
BRANCH   1  12
ATOM      7  C   UNL     1       7.019  -2.255  -0.669  0.00  0.00    +0.066 A 
ATOM      8  C   UNL     1       7.389  -3.390  -1.377  0.00  0.00    +0.028 A 
ATOM      9  C   UNL     1       6.490  -4.446  -1.451  0.00  0.00    +0.019 A 
ATOM     10  C   UNL     1       5.268  -4.340  -0.819  0.00  0.00    +0.084 A 
ATOM     11  N   UNL     1       4.942  -3.251  -0.148  0.00  0.00    -0.348 N 
ATOM     12  C   UNL     1       5.766  -2.221  -0.051  0.00  0.00    +0.120 A 
ATOM     13  H   UNL     1       3.963  -3.184   0.349  0.00  0.00    +0.167 HD
BRANCH   7  14
ATOM     14  N   UNL     1       7.889  -1.162  -0.571  0.00  0.00    -0.341 N 
ATOM     15  H   UNL     1       7.624  -0.303   0.062  0.00  0.00    +0.146 HD
BRANCH  14  17
ATOM     16  C   UNL     1       9.910   0.136  -1.034  0.00  0.00    +0.024 C 
ATOM     17  C   UNL     1       9.153  -1.164  -1.313  0.00  0.00    +0.098 C 
ENDBRANCH  14  17
ENDBRANCH   7  14
ENDBRANCH   1  12
BRANCH   4  18
ATOM     18  C   UNL     1       3.524   1.515   3.426  0.00  0.00    +0.132 C 
BRANCH  18  19
ATOM     19  C   UNL     1       2.017   1.466   3.680  0.00  0.00    +0.121 C 
ATOM     20  C   UNL     1       1.610   2.627   4.597  0.00  0.00    +0.054 C 
ATOM     21  C   UNL     1       0.120   2.485   4.920  0.00  0.00    +0.043 C 
ATOM     22  C   UNL     1      -0.654   2.242   3.650  0.00  0.00    +0.001 A 
ATOM     23  C   UNL     1      -2.023   2.456   3.654  0.00  0.00    -0.002 A 
ATOM     24  C   UNL     1      -2.767   2.238   2.506  0.00  0.00    +0.123 A 
ATOM     25  C   UNL     1      -2.138   1.809   1.346  0.00  0.00    -0.002 A 
ATOM     26  C   UNL     1      -0.776   1.592   1.342  0.00  0.00    -0.002 A 
ATOM     27  C   UNL     1      -0.027   1.812   2.494  0.00  0.00    +0.128 A 
ATOM     28  O   UNL     1       1.315   1.601   2.444  0.00  0.00    -0.484 OA
ATOM     29  C   UNL     1      -0.095   1.121   0.083  0.00  0.00    +0.048 C 
ATOM     30  C   UNL     1      -2.943   1.575   0.094  0.00  0.00    +0.048 C 
ATOM     31  C   UNL     1      -2.705   2.927   4.912  0.00  0.00    +0.048 C 
ATOM     32  C   UNL     1       1.648   0.136   4.340  0.00  0.00    +0.057 C 
BRANCH  24  33
ATOM     33  O   UNL     1      -4.110   2.450   2.515  0.00  0.00    -0.506 OA
ATOM     34  H   UNL     1      -4.700   2.277   1.602  0.00  0.00    +0.292 HD
ENDBRANCH  24  33
ENDBRANCH  18  19
ENDBRANCH   4  18
TORSDOF 6
