REMARK  Name = ZINC39916333
REMARK  7 active torsions:
REMARK  status: ('A' for Active; 'I' for Inactive)
REMARK    1  A    between atoms: C_1  and  C_2
REMARK    2  A    between atoms: C_2  and  O_3
REMARK    3  A    between atoms: O_3  and  C_4
REMARK    4  A    between atoms: C_6  and  C_11
REMARK    5  A    between atoms: C_9  and  O_10
REMARK    6  A    between atoms: C_26  and  N_30
REMARK    7  A    between atoms: C_27  and  C_28
REMARK                            x       y       z     vdW  Elec       q    Type
REMARK                         _______ _______ _______ _____ _____    ______ ____
ROOT
ATOM      1  C   UNL     1      -0.217  -4.963  -0.535  0.00  0.00    +0.084 C 
ATOM      2  C   UNL     1       0.895  -5.825  -1.142  0.00  0.00    +0.154 C 
ATOM      3  C   UNL     1       0.180  -6.963  -1.852  0.00  0.00    +0.129 C 
ATOM      4  C   UNL     1       0.389  -7.114  -3.215  0.00  0.00    +0.035 A 
ATOM      5  C   UNL     1      -0.225  -8.158  -3.938  0.00  0.00    +0.013 A 
ATOM      6  C   UNL     1       0.009  -8.278  -5.273  0.00  0.00    +0.001 A 
ATOM      7  C   UNL     1       0.842  -7.389  -5.945  0.00  0.00    +0.002 A 
ATOM      8  C   UNL     1       1.461  -6.360  -5.301  0.00  0.00    +0.024 A 
ATOM      9  C   UNL     1       1.265  -6.173  -3.923  0.00  0.00    +0.044 A 
ATOM     10  N   UNL     1       1.865  -5.156  -3.293  0.00  0.00    -0.284 N 
ATOM     11  C   UNL     1       1.758  -4.914  -1.986  0.00  0.00    +0.229 C 
ATOM     12  O   UNL     1       2.334  -3.972  -1.472  0.00  0.00    -0.275 OA
ATOM     13  O   UNL     1      -0.624  -7.754  -1.139  0.00  0.00    -0.444 OA
ATOM     14  C   UNL     1      -1.407  -7.148  -0.215  0.00  0.00    +0.198 C 
ATOM     15  C   UNL     1      -1.249  -5.847   0.109  0.00  0.00    +0.095 C 
ATOM     16  H   UNL     1       2.422  -4.560  -3.818  0.00  0.00    +0.155 HD
ENDROOT
BRANCH   1  19
ATOM     17  C   UNL     1       0.802  -1.825   1.306  0.00  0.00    +0.162 A 
ATOM     18  C   UNL     1       0.261  -2.673   0.353  0.00  0.00    +0.053 A 
ATOM     19  C   UNL     1       0.372  -4.043   0.502  0.00  0.00    -0.034 A 
ATOM     20  C   UNL     1       1.024  -4.570   1.602  0.00  0.00    +0.008 A 
ATOM     21  C   UNL     1       1.566  -3.730   2.557  0.00  0.00    +0.049 A 
ATOM     22  C   UNL     1       1.462  -2.356   2.410  0.00  0.00    +0.158 A 
BRANCH  22  23
ATOM     23  O   UNL     1       2.000  -1.528   3.345  0.00  0.00    -0.503 OA
ATOM     24  H   UNL     1       1.395  -1.301   4.064  0.00  0.00    +0.292 HD
ENDBRANCH  22  23
BRANCH  17  25
ATOM     25  O   UNL     1       0.693  -0.477   1.160  0.00  0.00    -0.489 OA
BRANCH  25  27
ATOM     26  C   UNL     1      -0.019   1.526   0.010  0.00  0.00    +0.048 C 
ATOM     27  C   UNL     1       0.002  -0.004   0.002  0.00  0.00    +0.226 C 
ENDBRANCH  25  27
ENDBRANCH  17  25
ENDBRANCH   1  19
BRANCH  14  28
ATOM     28  N   UNL     1      -2.388  -7.877   0.409  0.00  0.00    -0.328 N 
ATOM     29  H   UNL     1      -2.513  -8.813   0.187  0.00  0.00    +0.145 HD
ATOM     30  H   UNL     1      -2.957  -7.457   1.073  0.00  0.00    +0.145 HD
ENDBRANCH  14  28
BRANCH  15  31
ATOM     31  C   UNL     1      -2.104  -5.284   1.110  0.00  0.00    +0.100 C 
ATOM     32  N   UNL     1      -2.783  -4.837   1.904  0.00  0.00    -0.191 NA
ENDBRANCH  15  31
TORSDOF 6
