REMARK  Name = ZINC39425965
REMARK  5 active torsions:
REMARK  status: ('A' for Active; 'I' for Inactive)
REMARK    1  A    between atoms: C_1  and  S_2
REMARK    2  A    between atoms: S_2  and  C_3
REMARK    3  A    between atoms: C_11  and  C_18
REMARK    4  A    between atoms: C_13  and  C_16
REMARK    5  A    between atoms: C_14  and  N_15
REMARK                            x       y       z     vdW  Elec       q    Type
REMARK                         _______ _______ _______ _____ _____    ______ ____
ROOT
ATOM      1  C   UNL     1      -1.887  -0.152  -0.484  0.00  0.00    +0.160 A 
ATOM      2  N   UNL     1      -2.304  -0.428   0.743  0.00  0.00    -0.133 NA
ATOM      3  N   UNL     1      -3.373  -1.063   0.956  0.00  0.00    -0.124 NA
ATOM      4  C   UNL     1      -4.143  -1.492  -0.031  0.00  0.00    +0.194 A 
ATOM      5  S   UNL     1      -3.207  -0.897  -1.437  0.00  0.00    -0.024 S 
ATOM      6  N   UNL     1      -5.343  -2.199   0.012  0.00  0.00    -0.237 N 
ATOM      7  C   UNL     1      -6.528  -1.520   0.119  0.00  0.00    +0.026 C 
ATOM      8  C   UNL     1      -7.693  -2.112  -0.221  0.00  0.00    +0.025 C 
ATOM      9  C   UNL     1      -7.721  -3.526  -0.742  0.00  0.00    +0.100 C 
ATOM     10  C   UNL     1      -6.450  -4.251  -0.409  0.00  0.00    +0.077 C 
ATOM     11  C   UNL     1      -5.328  -3.574  -0.061  0.00  0.00    +0.108 C 
ATOM     12  C   UNL     1      -8.916  -1.429  -0.097  0.00  0.00    +0.162 C 
ATOM     13  O   UNL     1      -9.946  -1.988  -0.419  0.00  0.00    -0.292 OA
ATOM     14  C   UNL     1      -8.974  -0.021   0.427  0.00  0.00    +0.080 C 
ATOM     15  C   UNL     1      -7.793   0.208   1.377  0.00  0.00    +0.014 C 
ATOM     16  C   UNL     1      -6.497  -0.098   0.623  0.00  0.00    +0.052 C 
ENDROOT
BRANCH   9  17
ATOM     17  C   UNL     1      -7.894  -3.498  -2.239  0.00  0.00    +0.002 A 
ATOM     18  C   UNL     1      -6.954  -2.868  -3.032  0.00  0.00    +0.022 A 
ATOM     19  C   UNL     1      -7.113  -2.841  -4.406  0.00  0.00    +0.018 A 
ATOM     20  C   UNL     1      -8.213  -3.446  -4.987  0.00  0.00    +0.018 A 
ATOM     21  C   UNL     1      -9.154  -4.076  -4.195  0.00  0.00    +0.040 A 
ATOM     22  C   UNL     1      -8.992  -4.108  -2.820  0.00  0.00    +0.128 A 
ATOM     23  F   UNL     1      -9.909  -4.729  -2.046  0.00  0.00    -0.205 F 
ATOM     24 BR   UNL     1      -5.827  -1.978  -5.490  0.00  0.00    -0.050 Br
ENDBRANCH   9  17
BRANCH  11  25
ATOM     25  N   UNL     1      -4.174  -4.263   0.226  0.00  0.00    -0.345 N 
ATOM     26  H   UNL     1      -3.400  -3.792   0.572  0.00  0.00    +0.144 HD
ATOM     27  H   UNL     1      -4.134  -5.222   0.084  0.00  0.00    +0.144 HD
ENDBRANCH  11  25
BRANCH   1  29
ATOM     28  C   UNL     1       0.399   1.159   0.517  0.00  0.00    +0.092 C 
ATOM     29  S   UNL     1      -0.448   0.710  -1.024  0.00  0.00    -0.100 S 
ENDBRANCH   1  29
BRANCH  10  30
ATOM     30  C   UNL     1      -6.420  -5.682  -0.466  0.00  0.00    +0.099 C 
ATOM     31  N   UNL     1      -6.397  -6.817  -0.511  0.00  0.00    -0.191 NA
ENDBRANCH  10  30
TORSDOF 4
