REMARK  Name = ZINC21981335
REMARK  14 active torsions:
REMARK  status: ('A' for Active; 'I' for Inactive)
REMARK    1  A    between atoms: C_1  and  C_2
REMARK    2  A    between atoms: C_2  and  C_3
REMARK    3  A    between atoms: C_2  and  N_4
REMARK    4  A    between atoms: N_4  and  C_5
REMARK    5  A    between atoms: C_5  and  C_6
REMARK    6  A    between atoms: C_6  and  C_8
REMARK    7  A    between atoms: C_6  and  O_20
REMARK    8  A    between atoms: C_8  and  O_9
REMARK    9  A    between atoms: O_9  and  C_10
REMARK   10  A    between atoms: O_20  and  C_21
REMARK   11  A    between atoms: C_23  and  O_37
REMARK   12  A    between atoms: C_25  and  O_36
REMARK   13  A    between atoms: C_27  and  O_35
REMARK   14  A    between atoms: C_29  and  C_32
REMARK                            x       y       z     vdW  Elec       q    Type
REMARK                         _______ _______ _______ _____ _____    ______ ____
ROOT
ATOM      1  C   UNL     1       3.663  -2.333  -0.046  0.00  0.00    +0.142 C 
ENDROOT
BRANCH   1   2
ATOM      2  C   UNL     1       2.781  -2.761  -1.221  0.00  0.00    -0.047 C 
BRANCH   2   3
ATOM      3  N   UNL     1       2.652  -4.225  -1.227  0.00  0.00    +0.382 N 
ATOM      4  H   UNL     1       2.199  -4.543  -0.277  0.00  0.00    -0.085 HD
ATOM      5  H   UNL     1       3.655  -4.667  -1.322  0.00  0.00    -0.085 HD
BRANCH   3   7
ATOM      6  C   UNL     1       2.176  -6.114  -2.712  0.00  0.00    -0.014 C 
ATOM      7  C   UNL     1       1.811  -4.674  -2.345  0.00  0.00    -0.078 C 
ATOM      8  C   UNL     1       0.339  -4.611  -1.932  0.00  0.00    -0.014 C 
ENDBRANCH   3   7
ENDBRANCH   2   3
ENDBRANCH   1   2
BRANCH   1   9
ATOM      9  C   UNL     1       3.797  -0.808  -0.040  0.00  0.00    +0.258 C 
BRANCH   9  10
ATOM     10  O   UNL     1       2.498  -0.215  -0.023  0.00  0.00    -0.489 OA
BRANCH  10  11
ATOM     11  C   UNL     1       2.439   1.141  -0.016  0.00  0.00    +0.128 A 
ATOM     12  C   UNL     1       3.589   1.880  -0.023  0.00  0.00    +0.046 A 
ATOM     13  C   UNL     1       3.546   3.271  -0.015  0.00  0.00    +0.004 A 
ATOM     14  C   UNL     1       2.358   3.937   0.000  0.00  0.00    +0.009 A 
ATOM     15  C   UNL     1       1.153   3.214   0.008  0.00  0.00    -0.014 A 
ATOM     16  C   UNL     1       1.192   1.798   0.000  0.00  0.00    +0.024 A 
ATOM     17  C   UNL     1      -0.013   1.076   0.008  0.00  0.00    +0.012 A 
ATOM     18  C   UNL     1      -1.199   1.744   0.017  0.00  0.00    +0.001 A 
ATOM     19  C   UNL     1      -1.237   3.137   0.032  0.00  0.00    +0.001 A 
ATOM     20  C   UNL     1      -0.090   3.869   0.024  0.00  0.00    +0.008 A 
ENDBRANCH  10  11
ENDBRANCH   9  10
ENDBRANCH   1   9
BRANCH   1  21
ATOM     21  O   UNL     1       3.066  -2.763   1.179  0.00  0.00    -0.344 OA
BRANCH  21  22
ATOM     22  C   UNL     1       3.476  -4.066   1.599  0.00  0.00    +0.283 C 
ATOM     23  C   UNL     1       2.601  -4.524   2.769  0.00  0.00    +0.201 C 
ATOM     24  C   UNL     1       3.086  -5.895   3.252  0.00  0.00    +0.179 C 
ATOM     25  C   UNL     1       4.565  -5.794   3.637  0.00  0.00    +0.185 C 
ATOM     26  C   UNL     1       5.364  -5.287   2.434  0.00  0.00    +0.265 C 
ATOM     27  O   UNL     1       4.843  -4.024   2.016  0.00  0.00    -0.331 OA
BRANCH  26  28
ATOM     28  C   UNL     1       6.812  -5.129   2.822  0.00  0.00    +0.387 C 
ATOM     29  O   UNL     1       7.318  -4.032   2.835  0.00  0.00    -0.243 OA
ATOM     30  O   UNL     1       7.539  -6.207   3.155  0.00  0.00    -0.243 OA
ENDBRANCH  26  28
BRANCH  25  31
ATOM     31  O   UNL     1       5.047  -7.083   4.021  0.00  0.00    -0.386 OA
ATOM     32  H   UNL     1       6.095  -7.209   4.332  0.00  0.00    +0.210 HD
ENDBRANCH  25  31
BRANCH  24  33
ATOM     33  O   UNL     1       2.321  -6.299   4.389  0.00  0.00    -0.386 OA
ATOM     34  H   UNL     1       2.527  -7.263   4.877  0.00  0.00    +0.210 HD
ENDBRANCH  24  33
BRANCH  23  35
ATOM     35  O   UNL     1       1.242  -4.622   2.339  0.00  0.00    -0.384 OA
ATOM     36  H   UNL     1       0.462  -4.939   3.047  0.00  0.00    +0.210 HD
ENDBRANCH  23  35
ENDBRANCH  21  22
ENDBRANCH   1  21
TORSDOF 12
