REMARK  Name = ZINC15980113
REMARK  14 active torsions:
REMARK  status: ('A' for Active; 'I' for Inactive)
REMARK    1  A    between atoms: C_1  and  C_2
REMARK    2  A    between atoms: C_2  and  C_3
REMARK    3  A    between atoms: C_3  and  C_4
REMARK    4  A    between atoms: C_4  and  N_5
REMARK    5  A    between atoms: N_5  and  C_6
REMARK    6  A    between atoms: C_7  and  N_22
REMARK    7  A    between atoms: N_8  and  C_15
REMARK    8  A    between atoms: C_15  and  C_16
REMARK    9  A    between atoms: C_23  and  C_25
REMARK   10  A    between atoms: C_25  and  O_26
REMARK   11  A    between atoms: O_26  and  C_27
REMARK   12  A    between atoms: C_27  and  C_29
REMARK   13  A    between atoms: C_32  and  N_35
REMARK   14  A    between atoms: C_36  and  C_38
REMARK                            x       y       z     vdW  Elec       q    Type
REMARK                         _______ _______ _______ _____ _____    ______ ____
ROOT
ATOM      1  N   UNL     1       1.698  11.703   0.552  0.00  0.00    -0.261 N 
ATOM      2  C   UNL     1       1.535  10.384   0.321  0.00  0.00    +0.258 C 
ATOM      3  O   UNL     1       2.501   9.683   0.099  0.00  0.00    -0.272 OA
ENDROOT
BRANCH   1   4
ATOM      4  C   UNL     1       2.977  12.288   0.431  0.00  0.00    +0.140 A 
ATOM      5  C   UNL     1       3.983  11.963   1.317  0.00  0.00    +0.128 A 
ATOM      6  N   UNL     1       5.221  12.546   1.171  0.00  0.00    -0.276 N 
ATOM      7  C   UNL     1       5.444  13.430   0.182  0.00  0.00    +0.331 A 
ATOM      8  O   UNL     1       6.543  13.937   0.072  0.00  0.00    -0.246 OA
ATOM      9  N   UNL     1       4.473  13.762  -0.688  0.00  0.00    -0.273 N 
ATOM     10  H   UNL     1       4.666  14.422  -1.415  0.00  0.00    +0.173 HD
ATOM     11  C   UNL     1       3.245  13.217  -0.592  0.00  0.00    +0.277 A 
ATOM     12  O   UNL     1       2.373  13.525  -1.386  0.00  0.00    -0.266 OA
BRANCH   5  13
ATOM     13  N   UNL     1       3.753  11.065   2.332  0.00  0.00    -0.343 N 
ATOM     14  H   UNL     1       2.896  10.617   2.397  0.00  0.00    +0.144 HD
ATOM     15  H   UNL     1       4.449  10.879   2.982  0.00  0.00    +0.144 HD
ENDBRANCH   5  13
BRANCH   6  16
ATOM     16  C   UNL     1       6.300  12.206   2.101  0.00  0.00    +0.163 C 
BRANCH  16  17
ATOM     17  C   UNL     1       6.266  13.150   3.276  0.00  0.00    -0.028 A 
ATOM     18  C   UNL     1       6.989  14.327   3.238  0.00  0.00    +0.005 A 
ATOM     19  C   UNL     1       6.953  15.195   4.314  0.00  0.00    +0.000 A 
ATOM     20  C   UNL     1       6.203  14.880   5.432  0.00  0.00    +0.000 A 
ATOM     21  C   UNL     1       5.484  13.700   5.472  0.00  0.00    +0.000 A 
ATOM     22  C   UNL     1       5.516  12.835   4.394  0.00  0.00    +0.005 A 
ENDBRANCH  16  17
ENDBRANCH   6  16
ENDBRANCH   1   4
BRANCH   1  23
ATOM     23  C   UNL     1       0.548  12.529   0.927  0.00  0.00    +0.114 C 
BRANCH  23  24
ATOM     24  C   UNL     1       0.469  12.631   2.452  0.00  0.00    +0.019 C 
BRANCH  24  26
ATOM     25  C   UNL     1      -0.810  13.595   4.369  0.00  0.00    +0.004 C 
ATOM     26  C   UNL     1      -0.732  13.493   2.845  0.00  0.00    -0.002 C 
ENDBRANCH  24  26
ENDBRANCH  23  24
ENDBRANCH   1  23
BRANCH   2  27
ATOM     27  C   UNL     1       0.154   9.780   0.339  0.00  0.00    +0.328 C 
BRANCH  27  28
ATOM     28  O   UNL     1       0.244   8.357   0.065  0.00  0.00    -0.452 OA
BRANCH  28  29
ATOM     29  C   UNL     1      -0.911   7.664   0.044  0.00  0.00    +0.340 C 
ATOM     30  O   UNL     1      -1.965   8.233   0.250  0.00  0.00    -0.245 OA
BRANCH  29  31
ATOM     31  C   UNL     1      -0.897   6.215  -0.227  0.00  0.00    +0.059 A 
ATOM     32  C   UNL     1      -2.094   5.494  -0.249  0.00  0.00    +0.017 A 
ATOM     33  C   UNL     1      -2.077   4.141  -0.503  0.00  0.00    +0.024 A 
ATOM     34  C   UNL     1      -0.870   3.491  -0.739  0.00  0.00    +0.033 A 
ATOM     35  C   UNL     1       0.325   4.205  -0.714  0.00  0.00    +0.024 A 
ATOM     36  C   UNL     1       0.315   5.559  -0.465  0.00  0.00    +0.017 A 
BRANCH  34  37
ATOM     37  N   UNL     1      -0.856   2.121  -0.996  0.00  0.00    -0.286 N 
ATOM     38  C   UNL     1       0.070   1.600  -1.825  0.00  0.00    +0.214 C 
ATOM     39  O   UNL     1       0.830   2.333  -2.422  0.00  0.00    -0.276 OA
ATOM     40  C   UNL     1       0.158   0.108  -2.015  0.00  0.00    +0.109 C 
ATOM     41  H   UNL     1      -1.513   1.543  -0.578  0.00  0.00    +0.155 HD
ENDBRANCH  34  37
ENDBRANCH  29  31
ENDBRANCH  28  29
ENDBRANCH  27  28
ENDBRANCH   2  27
TORSDOF 12
