REMARK  Name = ZINC39532689
REMARK  13 active torsions:
REMARK  status: ('A' for Active; 'I' for Inactive)
REMARK    1  A    between atoms: C_1  and  C_2
REMARK    2  A    between atoms: C_2  and  C_3
REMARK    3  A    between atoms: C_3  and  C_4
REMARK    4  A    between atoms: C_7  and  C_10
REMARK    5  A    between atoms: C_10  and  C_12
REMARK    6  A    between atoms: C_10  and  N_20
REMARK    7  A    between atoms: C_12  and  N_13
REMARK    8  A    between atoms: N_13  and  S_14
REMARK    9  A    between atoms: S_14  and  C_17
REMARK   10  A    between atoms: C_17  and  C_18
REMARK   11  A    between atoms: C_17  and  C_19
REMARK   12  A    between atoms: C_24  and  C_27
REMARK   13  A    between atoms: C_32  and  O_33
REMARK                            x       y       z     vdW  Elec       q    Type
REMARK                         _______ _______ _______ _____ _____    ______ ____
ROOT
ATOM      1  C   UNL     1       0.797  -6.276  -1.289  0.00  0.00    +0.102 C 
ENDROOT
BRANCH   1   2
ATOM      2  N   UNL     1      -0.532  -6.786  -0.926  0.00  0.00    -0.297 NA
ATOM      3  C   UNL     1      -1.537  -6.396  -1.925  0.00  0.00    +0.066 C 
ATOM      4  C   UNL     1      -2.892  -6.996  -1.543  0.00  0.00    -0.066 C 
ATOM      5  N   UNL     1      -3.284  -6.511  -0.213  0.00  0.00    +0.385 N 
ATOM      6  C   UNL     1      -2.284  -6.929   0.777  0.00  0.00    -0.023 C 
ATOM      7  C   UNL     1      -0.924  -6.328   0.414  0.00  0.00    +0.074 C 
ATOM      8  H   UNL     1      -3.343  -5.503  -0.227  0.00  0.00    -0.085 HD
ATOM      9  H   UNL     1      -4.184  -6.896   0.033  0.00  0.00    -0.085 HD
BRANCH   6  10
ATOM     10  C   UNL     1      -2.698  -6.445   2.144  0.00  0.00    -0.019 A 
ATOM     11  C   UNL     1      -3.607  -5.412   2.265  0.00  0.00    +0.005 A 
ATOM     12  C   UNL     1      -3.987  -4.968   3.518  0.00  0.00    +0.000 A 
ATOM     13  C   UNL     1      -3.458  -5.556   4.652  0.00  0.00    +0.004 A 
ATOM     14  C   UNL     1      -2.549  -6.590   4.536  0.00  0.00    +0.045 A 
ATOM     15  C   UNL     1      -2.170  -7.041   3.280  0.00  0.00    +0.118 A 
BRANCH  15  16
ATOM     16  O   UNL     1      -1.280  -8.061   3.163  0.00  0.00    -0.507 OA
ATOM     17  H   UNL     1      -0.357  -7.776   3.124  0.00  0.00    +0.292 HD
ENDBRANCH  15  16
ENDBRANCH   6  10
ENDBRANCH   1   2
BRANCH   1  21
ATOM     18  C   UNL     1       0.642  -2.020  -1.627  0.00  0.00    -0.047 A 
ATOM     19  C   UNL     1       0.029  -2.812  -2.580  0.00  0.00    +0.004 A 
ATOM     20  C   UNL     1       0.079  -4.189  -2.471  0.00  0.00    +0.005 A 
ATOM     21  C   UNL     1       0.743  -4.774  -1.409  0.00  0.00    -0.029 A 
ATOM     22  C   UNL     1       1.356  -3.982  -0.456  0.00  0.00    +0.005 A 
ATOM     23  C   UNL     1       1.310  -2.605  -0.568  0.00  0.00    +0.004 A 
BRANCH  18  24
ATOM     24  C   UNL     1       0.587  -0.519  -1.747  0.00  0.00    +0.035 C 
BRANCH  24  26
ATOM     25  C   UNL     1       1.729   1.496  -2.684  0.00  0.00    +0.004 C 
ATOM     26  C   UNL     1       1.784  -0.028  -2.563  0.00  0.00    +0.001 C 
ENDBRANCH  24  26
ENDBRANCH  18  24
ENDBRANCH   1  21
BRANCH   1  27
ATOM     27  C   UNL     1       1.227  -6.879  -2.628  0.00  0.00    +0.129 C 
BRANCH  27  28
ATOM     28  N   UNL     1       1.165  -8.340  -2.547  0.00  0.00    -0.192 NA
ATOM     29  H   UNL     1       1.096  -8.776  -1.683  0.00  0.00    +0.148 HD
BRANCH  28  30
ATOM     30  S   UNL     1       1.211  -9.249  -3.931  0.00  0.00    +0.032 S 
ATOM     31  O   UNL     1       1.107 -10.594  -3.486  0.00  0.00    -0.158 OA
ATOM     32  O   UNL     1       0.212  -8.684  -4.769  0.00  0.00    -0.158 OA
BRANCH  30  33
ATOM     33  C   UNL     1       2.857  -8.948  -4.631  0.00  0.00    +0.142 C 
ATOM     34  C   UNL     1       3.926  -9.389  -3.629  0.00  0.00    +0.033 C 
ATOM     35  C   UNL     1       3.014  -9.746  -5.927  0.00  0.00    +0.033 C 
ENDBRANCH  30  33
ENDBRANCH  28  30
ENDBRANCH  27  28
ENDBRANCH   1  27
TORSDOF 10
