REMARK  Name = ZINC01105867
REMARK  8 active torsions:
REMARK  status: ('A' for Active; 'I' for Inactive)
REMARK    1  A    between atoms: C_1  and  O_2
REMARK    2  A    between atoms: O_2  and  C_3
REMARK    3  A    between atoms: C_6  and  N_9
REMARK    4  A    between atoms: C_10  and  C_12
REMARK    5  A    between atoms: C_12  and  C_13
REMARK    6  A    between atoms: C_25  and  C_27
REMARK    7  A    between atoms: C_27  and  O_28
REMARK    8  A    between atoms: O_28  and  C_29
REMARK                            x       y       z     vdW  Elec       q    Type
REMARK                         _______ _______ _______ _____ _____    ______ ____
ROOT
ATOM      1  C   UNL     1       6.270   2.163  -0.349  0.00  0.00    +0.176 C 
ATOM      2  C   UNL     1       7.705   1.726  -0.194  0.00  0.00    +0.239 C 
ATOM      3  O   UNL     1       8.160   1.548   0.916  0.00  0.00    -0.273 OA
ATOM      4  N   UNL     1       8.487   1.533  -1.273  0.00  0.00    -0.282 N 
ATOM      5  C   UNL     1       8.001   1.780  -2.561  0.00  0.00    +0.055 A 
ATOM      6  C   UNL     1       8.681   1.315  -3.676  0.00  0.00    +0.025 A 
ATOM      7  C   UNL     1       8.186   1.574  -4.941  0.00  0.00    +0.002 A 
ATOM      8  C   UNL     1       7.016   2.295  -5.100  0.00  0.00    +0.002 A 
ATOM      9  C   UNL     1       6.330   2.762  -3.993  0.00  0.00    +0.025 A 
ATOM     10  C   UNL     1       6.819   2.504  -2.725  0.00  0.00    +0.058 A 
ATOM     11  N   UNL     1       6.140   2.954  -1.582  0.00  0.00    -0.254 N 
ATOM     12  C   UNL     1       5.394   4.076  -1.613  0.00  0.00    +0.258 C 
ATOM     13  O   UNL     1       4.905   4.508  -0.590  0.00  0.00    -0.271 OA
ATOM     14  H   UNL     1       9.397   1.219  -1.155  0.00  0.00    +0.155 HD
ENDROOT
BRANCH   1  15
ATOM     15  C   UNL     1       5.367   0.931  -0.434  0.00  0.00    +0.128 C 
BRANCH  15  17
ATOM     16  N   UNL     1       2.944   0.445  -0.539  0.00  0.00    -0.285 N 
ATOM     17  C   UNL     1       3.925   1.366  -0.465  0.00  0.00    +0.219 C 
ATOM     18  O   UNL     1       3.647   2.546  -0.423  0.00  0.00    -0.275 OA
ATOM     19  H   UNL     1       3.162  -0.499  -0.505  0.00  0.00    +0.155 HD
BRANCH  16  23
ATOM     20  C   UNL     1      -1.029   1.654  -0.915  0.00  0.00    +0.120 A 
ATOM     21  C   UNL     1      -0.591   0.506  -1.557  0.00  0.00    +0.047 A 
ATOM     22  C   UNL     1       0.724   0.102  -1.429  0.00  0.00    +0.027 A 
ATOM     23  C   UNL     1       1.609   0.852  -0.666  0.00  0.00    +0.034 A 
ATOM     24  C   UNL     1       1.170   2.004  -0.028  0.00  0.00    +0.027 A 
ATOM     25  C   UNL     1      -0.145   2.404  -0.152  0.00  0.00    +0.047 A 
BRANCH  20  27
ATOM     26  C   UNL     1      -3.179   1.229  -1.837  0.00  0.00    +0.277 C 
ATOM     27  O   UNL     1      -2.325   2.049  -1.037  0.00  0.00    -0.495 OA
ENDBRANCH  20  27
ENDBRANCH  16  23
ENDBRANCH  15  17
ENDBRANCH   1  15
BRANCH  12  28
ATOM     28  C   UNL     1       5.166   4.793  -2.918  0.00  0.00    +0.325 C 
BRANCH  28  29
ATOM     29  O   UNL     1       4.540   6.053  -2.666  0.00  0.00    -0.483 OA
BRANCH  29  30
ATOM     30  C   UNL     1       4.263   6.831  -3.746  0.00  0.00    +0.121 A 
ATOM     31  C   UNL     1       4.592   6.393  -5.020  0.00  0.00    +0.047 A 
ATOM     32  C   UNL     1       4.305   7.184  -6.117  0.00  0.00    +0.023 A 
ATOM     33  C   UNL     1       3.700   8.415  -5.943  0.00  0.00    +0.041 A 
ATOM     34  C   UNL     1       3.375   8.856  -4.672  0.00  0.00    +0.023 A 
ATOM     35  C   UNL     1       3.656   8.066  -3.574  0.00  0.00    +0.047 A 
ATOM     36 CL   UNL     1       3.346   9.409  -7.322  0.00  0.00    -0.084 Cl
ENDBRANCH  29  30
ENDBRANCH  28  29
ENDBRANCH  12  28
TORSDOF 7
