REMARK  Name = ZINC11094681
REMARK  16 active torsions:
REMARK  status: ('A' for Active; 'I' for Inactive)
REMARK    1  A    between atoms: C_1  and  C_2
REMARK    2  A    between atoms: C_2  and  C_3
REMARK    3  A    between atoms: C_3  and  C_5
REMARK    4  A    between atoms: C_3  and  C_6
REMARK    5  A    between atoms: C_9  and  C_12
REMARK    6  A    between atoms: C_12  and  C_14
REMARK    7  A    between atoms: C_12  and  N_71
REMARK    8  A    between atoms: C_14  and  C_15
REMARK    9  A    between atoms: C_14  and  C_16
REMARK   10  A    between atoms: C_17  and  C_19
REMARK   11  A    between atoms: C_17  and  C_20
REMARK   12  A    between atoms: C_17  and  N_71
REMARK   13  A    between atoms: N_22  and  C_23
REMARK   14  A    between atoms: C_24  and  C_36
REMARK   15  A    between atoms: N_25  and  C_35
REMARK   16  A    between atoms: N_26  and  C_29
REMARK                            x       y       z     vdW  Elec       q    Type
REMARK                         _______ _______ _______ _____ _____    ______ ____
ROOT
ATOM      1  C   UNL     1      -4.139  -0.122  -0.432  0.00  0.00    +0.014 C 
ATOM      2  C   UNL     1      -4.918   0.352   0.797  0.00  0.00    -0.004 C 
ENDROOT
BRANCH   1   3
ATOM      3  C   UNL     1      -2.720   0.380  -0.352  0.00  0.00    +0.203 C 
ATOM      4  O   UNL     1      -1.798  -0.409  -0.332  0.00  0.00    -0.277 OA
ATOM      5  N   UNL     1      -2.476   1.704  -0.303  0.00  0.00    -0.281 N 
ATOM      6  H   UNL     1      -3.207   2.336  -0.391  0.00  0.00    +0.155 HD
BRANCH   5   7
ATOM      7  C   UNL     1      -1.158   2.171  -0.125  0.00  0.00    +0.121 A 
ATOM      8  C   UNL     1      -0.469   2.970  -0.971  0.00  0.00    +0.059 A 
ATOM      9  N   UNL     1       0.776   3.193  -0.445  0.00  0.00    -0.282 N 
ATOM     10  N   UNL     1       0.885   2.521   0.778  0.00  0.00    -0.216 N 
ATOM     11  C   UNL     1      -0.282   1.886   1.012  0.00  0.00    +0.293 A 
ATOM     12  O   UNL     1      -0.553   1.201   1.982  0.00  0.00    -0.264 OA
ATOM     13  C   UNL     1       1.826   4.004  -1.065  0.00  0.00    +0.171 C 
ATOM     14  C   UNL     1      -0.983   3.517  -2.278  0.00  0.00    +0.067 C 
BRANCH  10  15
ATOM     15  C   UNL     1       2.007   2.510   1.611  0.00  0.00    +0.067 A 
ATOM     16  C   UNL     1       3.279   2.390   1.065  0.00  0.00    +0.028 A 
ATOM     17  C   UNL     1       4.386   2.385   1.891  0.00  0.00    +0.002 A 
ATOM     18  C   UNL     1       4.228   2.488   3.261  0.00  0.00    +0.000 A 
ATOM     19  C   UNL     1       2.963   2.603   3.809  0.00  0.00    +0.002 A 
ATOM     20  C   UNL     1       1.853   2.614   2.988  0.00  0.00    +0.028 A 
ENDBRANCH  10  15
ENDBRANCH   5   7
ENDBRANCH   1   3
BRANCH   1  21
ATOM     21  N   UNL     1      -4.130  -1.597  -0.469  0.00  0.00    +0.391 N 
ATOM     22  H   UNL     1      -3.281  -1.918  -0.948  0.00  0.00    -0.084 HD
ATOM     23  H   UNL     1      -4.139  -1.960   0.491  0.00  0.00    -0.084 HD
BRANCH  21  24
ATOM     24  C   UNL     1      -5.315  -2.098  -1.190  0.00  0.00    -0.037 C 
BRANCH  24  28
ATOM     25  C   UNL     1      -4.433  -2.372  -5.361  0.00  0.00    -0.045 A 
ATOM     26  C   UNL     1      -5.672  -1.922  -4.944  0.00  0.00    +0.004 A 
ATOM     27  C   UNL     1      -5.958  -1.834  -3.595  0.00  0.00    +0.002 A 
ATOM     28  C   UNL     1      -5.004  -2.195  -2.662  0.00  0.00    -0.061 A 
ATOM     29  C   UNL     1      -3.763  -2.639  -3.078  0.00  0.00    +0.002 A 
ATOM     30  C   UNL     1      -3.480  -2.733  -4.428  0.00  0.00    +0.004 A 
BRANCH  25  31
ATOM     31  C   UNL     1      -4.122  -2.468  -6.832  0.00  0.00    +0.016 C 
ATOM     32  C   UNL     1      -2.926  -1.572  -7.160  0.00  0.00    +0.012 C 
BRANCH  31  34
ATOM     33  C   UNL     1      -3.593  -4.039  -8.702  0.00  0.00    +0.004 C 
ATOM     34  C   UNL     1      -3.787  -3.917  -7.189  0.00  0.00    +0.004 C 
ENDBRANCH  31  34
ENDBRANCH  25  31
ENDBRANCH  24  28
BRANCH  24  35
ATOM     35  C   UNL     1      -5.680  -3.484  -0.654  0.00  0.00    -0.027 C 
ATOM     36  C   UNL     1      -6.133  -3.364   0.802  0.00  0.00    +0.006 C 
ATOM     37  C   UNL     1      -6.815  -4.073  -1.494  0.00  0.00    +0.006 C 
ENDBRANCH  24  35
ENDBRANCH  21  24
ENDBRANCH   1  21
TORSDOF 9
