REMARK  Name = ZINC39660399
REMARK  11 active torsions:
REMARK  status: ('A' for Active; 'I' for Inactive)
REMARK    1  A    between atoms: C_1  and  C_2
REMARK    2  A    between atoms: C_2  and  C_3
REMARK    3  A    between atoms: C_3  and  C_4
REMARK    4  A    between atoms: C_4  and  C_5
REMARK    5  A    between atoms: C_5  and  C_6
REMARK    6  A    between atoms: C_6  and  N_7
REMARK    7  A    between atoms: C_8  and  C_10
REMARK    8  A    between atoms: C_21  and  C_23
REMARK    9  A    between atoms: C_25  and  C_30
REMARK   10  A    between atoms: N_27  and  C_28
REMARK   11  A    between atoms: C_28  and  C_29
REMARK                            x       y       z     vdW  Elec       q    Type
REMARK                         _______ _______ _______ _____ _____    ______ ____
ROOT
ATOM      1  C   UNL     1      -5.843  -6.352   0.076  0.00  0.00    +0.100 C 
ATOM      2  C   UNL     1      -6.564  -5.833   1.340  0.00  0.00    +0.121 C 
ATOM      3  N   UNL     1      -7.507  -6.916   1.705  0.00  0.00    -0.295 N 
ATOM      4  C   UNL     1      -6.750  -8.165   1.449  0.00  0.00    +0.115 C 
ATOM      5  C   UNL     1      -5.967  -7.883   0.151  0.00  0.00    -0.004 C 
ATOM      6  C   UNL     1      -6.737  -8.411  -1.055  0.00  0.00    -0.010 C 
ATOM      7  C   UNL     1      -6.798  -9.939  -0.987  0.00  0.00    -0.082 C 
ATOM      8  N   UNL     1      -5.435 -10.485  -0.974  0.00  0.00    +0.379 N 
ATOM      9  C   UNL     1      -4.732 -10.047   0.238  0.00  0.00    -0.082 C 
ATOM     10  C   UNL     1      -4.583  -8.523   0.222  0.00  0.00    -0.010 C 
ATOM     11  C   UNL     1      -8.768  -6.794   2.165  0.00  0.00    +0.266 C 
ATOM     12  O   UNL     1      -9.387  -7.781   2.513  0.00  0.00    -0.268 OA
ATOM     13  H   UNL     1      -5.478 -11.493  -0.990  0.00  0.00    -0.086 HD
ATOM     14  H   UNL     1      -4.935 -10.159  -1.787  0.00  0.00    -0.086 HD
ENDROOT
BRANCH  11  15
ATOM     15  C   UNL     1      -9.395  -5.466   2.248  0.00  0.00    +0.138 A 
ATOM     16  C   UNL     1      -9.505  -4.667   3.373  0.00  0.00    +0.071 A 
ATOM     17  C   UNL     1     -10.173  -3.516   2.945  0.00  0.00    +0.075 A 
ATOM     18  N   UNL     1     -10.425  -3.649   1.668  0.00  0.00    -0.175 NA
ATOM     19  N   UNL     1      -9.981  -4.770   1.227  0.00  0.00    -0.258 N 
ATOM     20  C   UNL     1     -10.538  -2.331   3.803  0.00  0.00    +0.069 C 
ATOM     21 BR   UNL     1      -8.885  -5.051   5.118  0.00  0.00    -0.046 Br
BRANCH  19  22
ATOM     22  C   UNL     1     -10.089  -5.235  -0.158  0.00  0.00    +0.141 C 
ATOM     23  C   UNL     1     -11.449  -5.905  -0.366  0.00  0.00    +0.029 C 
ENDBRANCH  19  22
ENDBRANCH  11  15
BRANCH   1  25
ATOM     24  N   UNL     1      -3.737  -5.736  -1.066  0.00  0.00    -0.315 N 
ATOM     25  C   UNL     1      -4.393  -5.941   0.093  0.00  0.00    +0.218 C 
ATOM     26  O   UNL     1      -3.816  -5.796   1.150  0.00  0.00    -0.275 OA
ATOM     27  H   UNL     1      -4.175  -5.924  -1.911  0.00  0.00    +0.149 HD
BRANCH  24  28
ATOM     28  C   UNL     1      -2.363  -5.228  -1.050  0.00  0.00    +0.104 C 
BRANCH  28  29
ATOM     29  C   UNL     1      -1.855  -5.086  -2.486  0.00  0.00    +0.019 C 
BRANCH  29  30
ATOM     30  C   UNL     1      -0.419  -4.556  -2.470  0.00  0.00    +0.002 C 
BRANCH  30  31
ATOM     31  C   UNL     1       0.088  -4.414  -3.906  0.00  0.00    -0.000 C 
BRANCH  31  33
ATOM     32  C   UNL     1       2.032  -3.742  -5.325  0.00  0.00    +0.004 C 
ATOM     33  C   UNL     1       1.524  -3.884  -3.889  0.00  0.00    -0.003 C 
ENDBRANCH  31  33
ENDBRANCH  30  31
ENDBRANCH  29  30
ENDBRANCH  28  29
ENDBRANCH  24  28
ENDBRANCH   1  25
TORSDOF 8
