REMARK  Name = ZINC03841203
REMARK  6 active torsions:
REMARK  status: ('A' for Active; 'I' for Inactive)
REMARK    1  A    between atoms: C_1  and  O_2
REMARK    2  A    between atoms: O_2  and  C_3
REMARK    3  A    between atoms: C_6  and  N_9
REMARK    4  A    between atoms: N_12  and  C_13
REMARK    5  A    between atoms: CA_24  and  CB_28
REMARK    6  A    between atoms: CB_28  and  CG_29
REMARK                            x       y       z     vdW  Elec       q    Type
REMARK                         _______ _______ _______ _____ _____    ______ ____
ROOT
ATOM      1  C   UNK A   1      -2.082  -5.931  -2.407  0.00  0.00    +0.078 C 
ATOM      2  C   UNK A   1      -0.865  -6.348  -1.580  0.00  0.00    +0.041 C 
ATOM      3  C   UNK A   1       0.412  -6.197  -2.419  0.00  0.00    +0.110 C 
ATOM      4  N   UNK A   1       0.458  -4.803  -2.897  0.00  0.00    -0.288 N 
ATOM      5  C   UNK A   1      -0.676  -4.335  -3.693  0.00  0.00    +0.164 C 
ATOM      6  C   UNK A   1      -1.947  -4.472  -2.855  0.00  0.00    +0.054 C 
ATOM      7  C   UNK A   1      -0.484  -2.941  -4.184  0.00  0.00    +0.234 C 
ATOM      8  O   UNK A   1      -1.189  -2.544  -5.088  0.00  0.00    -0.274 OA
ATOM      9  N   PHE A   2       0.444  -2.116  -3.699  0.00  0.00    -0.302 N 
ATOM     10  CA  PHE A   2       1.321  -2.502  -2.597  0.00  0.00    +0.159 C 
ATOM     11  C   PHE A   2       1.469  -3.998  -2.551  0.00  0.00    +0.237 C 
ATOM     12  O   PHE A   2       2.522  -4.483  -2.196  0.00  0.00    -0.274 OA
ATOM     13  H   PHE A   2       0.530  -1.229  -4.082  0.00  0.00    +0.150 HD
ENDROOT
BRANCH   1  17
ATOM     14  N   UNK A   1      -2.890  -8.785  -4.580  0.00  0.00    -0.269 N 
ATOM     15  C   UNK A   1      -2.796  -7.992  -3.495  0.00  0.00    +0.304 C 
ATOM     16  O   UNK A   1      -3.262  -8.356  -2.433  0.00  0.00    -0.253 OA
ATOM     17  N   UNK A   1      -2.184  -6.794  -3.587  0.00  0.00    -0.296 N 
ATOM     18  H   UNK A   1      -2.578  -8.467  -5.442  0.00  0.00    +0.156 HD
ATOM     19  H   UNK A   1      -1.813  -6.503  -4.434  0.00  0.00    +0.151 HD
BRANCH  14  23
ATOM     20  C   UNK A   1      -4.521 -12.607  -4.234  0.00  0.00    +0.120 A 
ATOM     21  C   UNK A   1      -5.020 -11.568  -3.463  0.00  0.00    +0.047 A 
ATOM     22  C   UNK A   1      -4.480 -10.302  -3.577  0.00  0.00    +0.027 A 
ATOM     23  C   UNK A   1      -3.438 -10.069  -4.464  0.00  0.00    +0.035 A 
ATOM     24  C   UNK A   1      -2.942 -11.109  -5.240  0.00  0.00    +0.027 A 
ATOM     25  C   UNK A   1      -3.480 -12.375  -5.121  0.00  0.00    +0.047 A 
BRANCH  20  27
ATOM     26  C   UNK A   1      -4.491 -14.876  -4.946  0.00  0.00    +0.277 C 
ATOM     27  O   UNK A   1      -5.053 -13.853  -4.122  0.00  0.00    -0.495 OA
ENDBRANCH  20  27
ENDBRANCH  14  23
ENDBRANCH   1  17
BRANCH  10  28
ATOM     28  CB  PHE A   2       0.722  -2.012  -1.277  0.00  0.00    +0.035 C 
BRANCH  28  29
ATOM     29  CG  PHE A   2       0.693  -0.482  -1.267  0.00  0.00    -0.009 C 
ATOM     30  CD2 PHE A   2      -0.019   0.006  -0.004  0.00  0.00    +0.003 C 
ATOM     31  CE2 PHE A   2      -0.048   1.536   0.006  0.00  0.00    +0.000 C 
ATOM     32  CZ  PHE A   2       1.385   2.073  -0.012  0.00  0.00    +0.000 C 
ATOM     33  CE1 PHE A   2       2.097   1.584  -1.275  0.00  0.00    +0.000 C 
ATOM     34  CD1 PHE A   2       2.125   0.055  -1.285  0.00  0.00    +0.003 C 
ENDBRANCH  28  29
ENDBRANCH  10  28
TORSDOF 5
