REMARK  Name = ZINC39899607
REMARK  11 active torsions:
REMARK  status: ('A' for Active; 'I' for Inactive)
REMARK    1  A    between atoms: C_5  and  C_7
REMARK    2  A    between atoms: C_15  and  C_17
REMARK    3  A    between atoms: N_18  and  N_19
REMARK    4  A    between atoms: C_20  and  C_22
REMARK    5  A    between atoms: C_22  and  N_23
REMARK    6  A    between atoms: N_23  and  C_24
REMARK    7  A    between atoms: N_23  and  C_27
REMARK    8  A    between atoms: C_24  and  C_25
REMARK    9  A    between atoms: C_25  and  O_26
REMARK   10  A    between atoms: C_27  and  C_28
REMARK   11  A    between atoms: C_28  and  O_29
REMARK                            x       y       z     vdW  Elec       q    Type
REMARK                         _______ _______ _______ _____ _____    ______ ____
ROOT
ATOM      1  C   UNL     1       0.568  -2.758   0.313  0.00  0.00    +0.084 A 
ATOM      2  C   UNL     1      -0.601  -3.637   0.282  0.00  0.00    +0.027 A 
ATOM      3  C   UNL     1      -1.906  -3.144   0.358  0.00  0.00    +0.027 A 
ATOM      4  C   UNL     1      -2.957  -4.015   0.323  0.00  0.00    +0.019 A 
ATOM      5  C   UNL     1      -2.744  -5.388   0.213  0.00  0.00    +0.017 A 
ATOM      6  C   UNL     1      -1.483  -5.901   0.137  0.00  0.00    +0.029 A 
ATOM      7  C   UNL     1      -0.381  -5.034   0.169  0.00  0.00    +0.076 A 
ATOM      8  N   UNL     1       0.877  -5.481   0.097  0.00  0.00    -0.226 NA
ATOM      9  C   UNL     1       1.900  -4.646   0.130  0.00  0.00    +0.174 A 
ATOM     10  N   UNL     1       1.765  -3.324   0.229  0.00  0.00    -0.226 NA
ATOM     11 BR   UNL     1      -4.724  -3.351   0.426  0.00  0.00    -0.050 Br
ENDROOT
BRANCH   1  16
ATOM     12  C   UNL     1      -0.520   0.625   1.530  0.00  0.00    +0.001 A 
ATOM     13  C   UNL     1       0.142   1.457   0.644  0.00  0.00    +0.001 A 
ATOM     14  C   UNL     1       0.942   0.923  -0.350  0.00  0.00    +0.020 A 
ATOM     15  C   UNL     1       1.085  -0.447  -0.463  0.00  0.00    +0.050 A 
ATOM     16  C   UNL     1       0.420  -1.290   0.429  0.00  0.00    +0.019 A 
ATOM     17  C   UNL     1      -0.386  -0.744   1.428  0.00  0.00    +0.011 A 
ATOM     18 CL   UNL     1       2.088  -1.116  -1.711  0.00  0.00    -0.083 Cl
ENDBRANCH   1  16
BRANCH   9  19
ATOM     19  C   UNL     1       3.261  -5.204   0.047  0.00  0.00    +0.178 C 
ATOM     20  N   UNL     1       3.431  -6.487  -0.055  0.00  0.00    -0.185 NA
BRANCH  20  21
ATOM     21  N   UNL     1       4.726  -7.018  -0.134  0.00  0.00    -0.208 N 
ATOM     22  C   UNL     1       4.902  -8.350  -0.240  0.00  0.00    +0.216 C 
ATOM     23  O   UNL     1       3.941  -9.089  -0.267  0.00  0.00    -0.276 OA
ATOM     24  H   UNL     1       5.494  -6.427  -0.112  0.00  0.00    +0.177 HD
BRANCH  22  25
ATOM     25  C   UNL     1       6.294  -8.921  -0.325  0.00  0.00    +0.020 C 
BRANCH  25  26
ATOM     26  N   UNL     1       6.218 -10.384  -0.433  0.00  0.00    +0.388 N 
ATOM     27  H   UNL     1       5.678 -10.751   0.337  0.00  0.00    -0.081 HD
BRANCH  26  28
ATOM     28  C   UNL     1       5.570 -10.748  -1.700  0.00  0.00    -0.050 C 
BRANCH  28  29
ATOM     29  C   UNL     1       5.351 -12.261  -1.745  0.00  0.00    +0.137 C 
BRANCH  29  30
ATOM     30  O   UNL     1       4.443 -12.642  -0.709  0.00  0.00    -0.397 OA
ATOM     31  H   UNL     1       4.257 -13.590  -0.677  0.00  0.00    +0.209 HD
ENDBRANCH  29  30
ENDBRANCH  28  29
ENDBRANCH  26  28
BRANCH  26  32
ATOM     32  C   UNL     1       7.573 -10.950  -0.395  0.00  0.00    -0.050 C 
BRANCH  32  33
ATOM     33  C   UNL     1       8.193 -10.696   0.981  0.00  0.00    +0.137 C 
BRANCH  33  34
ATOM     34  O   UNL     1       7.436 -11.384   1.978  0.00  0.00    -0.397 OA
ATOM     35  H   UNL     1       7.726 -11.207   2.884  0.00  0.00    +0.209 HD
ENDBRANCH  33  34
ENDBRANCH  32  33
ENDBRANCH  26  32
ENDBRANCH  25  26
ENDBRANCH  22  25
ENDBRANCH  20  21
ENDBRANCH   9  19
TORSDOF 11
