REMARK  Name = ZINC44714102
REMARK  10 active torsions:
REMARK  status: ('A' for Active; 'I' for Inactive)
REMARK    1  A    between atoms: C_1  and  C_2
REMARK    2  A    between atoms: C_4  and  C_7
REMARK    3  A    between atoms: C_8  and  C_13
REMARK    4  A    between atoms: C_9  and  C_12
REMARK    5  A    between atoms: C_17  and  C_26
REMARK    6  A    between atoms: N_28  and  C_29
REMARK    7  A    between atoms: C_29  and  C_31
REMARK    8  A    between atoms: C_29  and  C_32
REMARK    9  A    between atoms: C_33  and  C_39
REMARK   10  A    between atoms: C_37  and  C_38
REMARK                            x       y       z     vdW  Elec       q    Type
REMARK                         _______ _______ _______ _____ _____    ______ ____
ROOT
ATOM      1  C   UNL     1       0.477  -5.121   0.010  0.00  0.00    +0.252 C 
ATOM      2  O   UNL     1       1.075  -5.313   1.051  0.00  0.00    -0.270 OA
ATOM      3  N   UNL     1       1.095  -5.328  -1.170  0.00  0.00    -0.296 N 
ATOM      4  C   UNL     1       0.539  -5.144  -2.531  0.00  0.00    +0.121 C 
ATOM      5  C   UNL     1       1.700  -4.534  -3.348  0.00  0.00    +0.100 C 
ATOM      6  C   UNL     1       2.974  -4.964  -2.601  0.00  0.00    -0.004 C 
ATOM      7  C   UNL     1       2.487  -5.786  -1.399  0.00  0.00    +0.115 C 
ATOM      8  C   UNL     1       3.742  -3.738  -2.118  0.00  0.00    -0.010 C 
ATOM      9  C   UNL     1       5.033  -4.189  -1.428  0.00  0.00    -0.082 C 
ATOM     10  N   UNL     1       5.849  -4.963  -2.372  0.00  0.00    +0.379 N 
ATOM     11  C   UNL     1       5.140  -6.188  -2.761  0.00  0.00    -0.082 C 
ATOM     12  C   UNL     1       3.854  -5.821  -3.506  0.00  0.00    -0.010 C 
ATOM     13  H   UNL     1       6.030  -4.405  -3.193  0.00  0.00    -0.086 HD
ATOM     14  H   UNL     1       6.725  -5.207  -1.935  0.00  0.00    -0.086 HD
ENDROOT
BRANCH   1  16
ATOM     15  C   UNL     1      -1.355  -3.343   0.049  0.00  0.00    +0.201 A 
ATOM     16  C   UNL     1      -0.921  -4.661   0.038  0.00  0.00    +0.108 A 
ATOM     17  C   UNL     1      -2.076  -5.483   0.057  0.00  0.00    +0.093 A 
ATOM     18  N   UNL     1      -3.122  -4.713   0.079  0.00  0.00    -0.082 NA
ATOM     19  O   UNL     1      -2.697  -3.364   0.080  0.00  0.00    -0.352 OA
ATOM     20  C   UNL     1      -2.088  -6.990   0.053  0.00  0.00    +0.070 C 
BRANCH  15  24
ATOM     21  C   UNL     1       0.122   1.511   0.043  0.00  0.00    +0.089 C 
ATOM     22  C   UNL     1       0.138   0.004   0.035  0.00  0.00    +0.135 A 
ATOM     23  C   UNL     1      -0.944  -0.794   0.054  0.00  0.00    +0.079 A 
ATOM     24  C   UNL     1      -0.497  -2.139   0.036  0.00  0.00    +0.152 A 
ATOM     25  N   UNL     1       0.816  -2.124   0.008  0.00  0.00    -0.075 NA
ATOM     26  O   UNL     1       1.233  -0.770   0.001  0.00  0.00    -0.359 OA
ENDBRANCH  15  24
ENDBRANCH   1  16
BRANCH   5  27
ATOM     27  C   UNL     1       1.701  -5.084  -4.751  0.00  0.00    +0.219 C 
ATOM     28  O   UNL     1       1.368  -6.233  -4.952  0.00  0.00    -0.275 OA
ATOM     29  N   UNL     1       2.071  -4.300  -5.782  0.00  0.00    -0.308 N 
ATOM     30  H   UNL     1       2.337  -3.381  -5.622  0.00  0.00    +0.149 HD
BRANCH  29  31
ATOM     31  C   UNL     1       2.071  -4.835  -7.146  0.00  0.00    +0.104 C 
ATOM     32  C   UNL     1       3.336  -5.667  -7.367  0.00  0.00    +0.033 C 
BRANCH  31  33
ATOM     33  C   UNL     1       2.042  -3.696  -8.133  0.00  0.00    +0.015 A 
ATOM     34  C   UNL     1       1.202  -3.578  -9.187  0.00  0.00    +0.038 A 
ATOM     35  N   UNL     1       1.495  -2.422  -9.819  0.00  0.00    -0.281 N 
ATOM     36  H   UNL     1       1.054  -2.077 -10.611  0.00  0.00    +0.189 HD
ATOM     37  N   UNL     1       2.550  -1.810  -9.130  0.00  0.00    -0.179 NA
ATOM     38  C   UNL     1       2.872  -2.571  -8.116  0.00  0.00    +0.065 A 
ATOM     39  C   UNL     1       3.955  -2.286  -7.107  0.00  0.00    +0.068 C 
ATOM     40  C   UNL     1       0.131  -4.561  -9.585  0.00  0.00    +0.065 C 
ENDBRANCH  31  33
ENDBRANCH  29  31
ENDBRANCH   5  27
TORSDOF 5
