REMARK  Name = ZINC25463605
REMARK  10 active torsions:
REMARK  status: ('A' for Active; 'I' for Inactive)
REMARK    1  A    between atoms: C_1  and  C_2
REMARK    2  A    between atoms: C_14  and  C_16
REMARK    3  A    between atoms: C_16  and  S_17
REMARK    4  A    between atoms: S_17  and  C_18
REMARK    5  A    between atoms: N_28  and  C_29
REMARK    6  A    between atoms: C_29  and  C_30
REMARK    7  A    between atoms: C_30  and  C_31
REMARK    8  A    between atoms: C_31  and  N_32
REMARK    9  A    between atoms: N_32  and  C_33
REMARK   10  A    between atoms: N_32  and  C_34
REMARK                            x       y       z     vdW  Elec       q    Type
REMARK                         _______ _______ _______ _____ _____    ______ ____
ROOT
ATOM      1  S   UNL     1      -1.535  -0.865   0.012  0.00  0.00    -0.080 S 
ENDROOT
BRANCH   1   2
ATOM      2  C   UNL     1       0.002  -0.004   0.002  0.00  0.00    +0.173 A 
ATOM      3  N   UNL     1      -0.016   1.306   0.009  0.00  0.00    -0.223 NA
ATOM      4  C   UNL     1       1.123   2.028   0.002  0.00  0.00    +0.079 A 
ATOM      5  C   UNL     1       1.104   3.426   0.008  0.00  0.00    +0.028 A 
ATOM      6  C   UNL     1       2.282   4.118  -0.000  0.00  0.00    +0.002 A 
ATOM      7  C   UNL     1       3.501   3.454  -0.015  0.00  0.00    +0.001 A 
ATOM      8  C   UNL     1       3.552   2.087  -0.022  0.00  0.00    +0.015 A 
ATOM      9  C   UNL     1       2.366   1.355  -0.014  0.00  0.00    +0.065 A 
ATOM     10  C   UNL     1       2.360  -0.114  -0.021  0.00  0.00    +0.262 A 
ATOM     11  O   UNL     1       3.398  -0.750  -0.035  0.00  0.00    -0.267 OA
ATOM     12  N   UNL     1       1.157  -0.734  -0.013  0.00  0.00    -0.287 N 
BRANCH  12  13
ATOM     13  C   UNL     1       1.092  -2.197  -0.019  0.00  0.00    +0.125 C 
BRANCH  13  14
ATOM     14  C   UNL     1       1.056  -2.699  -1.464  0.00  0.00    +0.003 C 
BRANCH  14  15
ATOM     15  C   UNL     1       0.989  -4.228  -1.471  0.00  0.00    -0.078 C 
BRANCH  15  16
ATOM     16  N   UNL     1       0.955  -4.710  -2.858  0.00  0.00    +0.376 N 
ATOM     17  C   UNL     1       1.129  -6.168  -2.913  0.00  0.00    -0.097 C 
ATOM     18  C   UNL     1      -0.288  -4.303  -3.527  0.00  0.00    -0.097 C 
ATOM     19  H   UNL     1       1.795  -4.249  -3.397  0.00  0.00    -0.083 HD
ENDBRANCH  15  16
ENDBRANCH  14  15
ENDBRANCH  13  14
ENDBRANCH  12  13
ENDBRANCH   1   2
BRANCH   1  20
ATOM     20  C   UNL     1      -2.680   0.537   0.030  0.00  0.00    +0.151 C 
BRANCH  20  33
ATOM     21  C   UNL     1     -11.660  -3.845   0.188  0.00  0.00    +0.008 C 
ATOM     22  C   UNL     1     -10.397  -3.026   0.465  0.00  0.00    -0.009 C 
ATOM     23  C   UNL     1     -10.422  -1.740  -0.365  0.00  0.00    +0.008 C 
ATOM     24  C   UNL     1      -9.299  -0.807   0.088  0.00  0.00    +0.037 C 
ATOM     25  C   UNL     1      -7.981  -1.577   0.070  0.00  0.00    -0.023 A 
ATOM     26  C   UNL     1      -7.972  -2.927   0.063  0.00  0.00    -0.004 A 
ATOM     27  S   UNL     1      -6.257  -3.374   0.043  0.00  0.00    -0.075 S 
ATOM     28  C   UNL     1      -5.557  -1.744   0.045  0.00  0.00    +0.092 A 
ATOM     29  C   UNL     1      -6.683  -0.905   0.061  0.00  0.00    +0.075 A 
ATOM     30  C   UNL     1      -6.407   0.502   0.066  0.00  0.00    +0.282 A 
ATOM     31  O   UNL     1      -7.319   1.311   0.079  0.00  0.00    -0.265 OA
ATOM     32  N   UNL     1      -5.126   0.914   0.056  0.00  0.00    -0.195 NA
ATOM     33  C   UNL     1      -4.098   0.027   0.041  0.00  0.00    +0.122 A 
ATOM     34  N   UNL     1      -4.317  -1.261   0.031  0.00  0.00    -0.337 N 
ATOM     35  C   UNL     1      -9.158  -3.843   0.071  0.00  0.00    +0.046 C 
ATOM     36  H   UNL     1      -3.459  -1.949   0.011  0.00  0.00    +0.168 HD
ENDBRANCH  20  33
ENDBRANCH   1  20
TORSDOF 7
