REMARK  Name = ZINC39676958
REMARK  10 active torsions:
REMARK  status: ('A' for Active; 'I' for Inactive)
REMARK    1  A    between atoms: C_1  and  C_2
REMARK    2  A    between atoms: C_5  and  C_36
REMARK    3  A    between atoms: C_6  and  C_8
REMARK    4  A    between atoms: C_8  and  C_9
REMARK    5  A    between atoms: C_9  and  N_10
REMARK    6  A    between atoms: C_11  and  C_13
REMARK    7  A    between atoms: C_24  and  C_26
REMARK    8  A    between atoms: C_26  and  C_28
REMARK    9  A    between atoms: C_26  and  O_29
REMARK   10  A    between atoms: O_29  and  C_30
REMARK                            x       y       z     vdW  Elec       q    Type
REMARK                         _______ _______ _______ _____ _____    ______ ____
ROOT
ATOM      1  C   UNL     1       3.317  -5.649   6.225  0.00  0.00    +0.100 C 
ATOM      2  C   UNL     1       2.581  -4.672   7.169  0.00  0.00    +0.121 C 
ATOM      3  N   UNL     1       3.379  -4.684   8.418  0.00  0.00    -0.297 N 
ATOM      4  C   UNL     1       4.787  -4.729   7.954  0.00  0.00    +0.115 C 
ATOM      5  C   UNL     1       4.765  -5.683   6.743  0.00  0.00    -0.004 C 
ATOM      6  C   UNL     1       5.724  -5.187   5.665  0.00  0.00    -0.010 C 
ATOM      7  C   UNL     1       7.162  -5.285   6.182  0.00  0.00    -0.082 C 
ATOM      8  N   UNL     1       7.464  -6.679   6.531  0.00  0.00    +0.379 N 
ATOM      9  C   UNL     1       6.599  -7.117   7.633  0.00  0.00    -0.082 C 
ATOM     10  C   UNL     1       5.138  -7.097   7.177  0.00  0.00    -0.010 C 
ATOM     11  C   UNL     1       2.928  -4.660   9.687  0.00  0.00    +0.256 C 
ATOM     12  O   UNL     1       3.714  -4.675  10.611  0.00  0.00    -0.272 OA
ATOM     13  H   UNL     1       7.306  -7.267   5.727  0.00  0.00    -0.086 HD
ATOM     14  H   UNL     1       8.430  -6.751   6.814  0.00  0.00    -0.086 HD
ENDROOT
BRANCH   1  16
ATOM     15  N   UNL     1       3.336  -6.004   3.777  0.00  0.00    -0.315 N 
ATOM     16  C   UNL     1       3.279  -5.138   4.808  0.00  0.00    +0.218 C 
ATOM     17  O   UNL     1       3.196  -3.947   4.595  0.00  0.00    -0.275 OA
ATOM     18  H   UNL     1       3.402  -6.957   3.948  0.00  0.00    +0.149 HD
BRANCH  15  19
ATOM     19  C   UNL     1       3.298  -5.508   2.400  0.00  0.00    +0.109 C 
BRANCH  19  20
ATOM     20  C   UNL     1       3.377  -6.688   1.430  0.00  0.00    +0.054 C 
BRANCH  20  26
ATOM     21  C   UNL     1       0.794  -5.597  -2.715  0.00  0.00    +0.044 C 
ATOM     22  C   UNL     1       2.103  -5.656  -1.971  0.00  0.00    -0.050 A 
ATOM     23  C   UNL     1       3.268  -5.241  -2.588  0.00  0.00    +0.003 A 
ATOM     24  C   UNL     1       4.469  -5.295  -1.905  0.00  0.00    +0.004 A 
ATOM     25  C   UNL     1       4.504  -5.763  -0.605  0.00  0.00    -0.047 A 
ATOM     26  C   UNL     1       3.339  -6.177   0.012  0.00  0.00    -0.043 A 
ATOM     27  C   UNL     1       2.137  -6.119  -0.669  0.00  0.00    +0.007 A 
ATOM     28  C   UNL     1       5.813  -5.823   0.139  0.00  0.00    +0.044 C 
ENDBRANCH  20  26
ENDBRANCH  19  20
ENDBRANCH  15  19
ENDBRANCH   1  16
BRANCH  11  29
ATOM     29  C   UNL     1       1.447  -4.616   9.960  0.00  0.00    +0.256 C 
ATOM     30  C   UNL     1       0.872  -3.297   9.441  0.00  0.00    +0.062 C 
BRANCH  29  31
ATOM     31  O   UNL     1       1.218  -4.715  11.367  0.00  0.00    -0.480 OA
BRANCH  31  32
ATOM     32  C   UNL     1       0.015  -5.207  11.763  0.00  0.00    +0.122 A 
ATOM     33  C   UNL     1      -0.963  -5.493  10.822  0.00  0.00    +0.045 A 
ATOM     34  C   UNL     1      -2.186  -5.993  11.227  0.00  0.00    +0.004 A 
ATOM     35  C   UNL     1      -2.435  -6.208  12.570  0.00  0.00    +0.000 A 
ATOM     36  C   UNL     1      -1.462  -5.923  13.511  0.00  0.00    +0.004 A 
ATOM     37  C   UNL     1      -0.236  -5.428  13.110  0.00  0.00    +0.045 A 
ENDBRANCH  31  32
ENDBRANCH  29  31
ENDBRANCH  11  29
TORSDOF 7
