REMARK  Name = ZINC16032962
REMARK  10 active torsions:
REMARK  status: ('A' for Active; 'I' for Inactive)
REMARK    1  A    between atoms: C_1  and  C_2
REMARK    2  A    between atoms: C_13  and  C_16
REMARK    3  A    between atoms: C_16  and  C_17
REMARK    4  A    between atoms: N_22  and  C_25
REMARK    5  A    between atoms: C_25  and  C_26
REMARK    6  A    between atoms: C_26  and  C_27
REMARK    7  A    between atoms: C_30  and  O_35
REMARK    8  A    between atoms: C_31  and  O_33
REMARK    9  A    between atoms: O_33  and  C_34
REMARK   10  A    between atoms: O_35  and  C_36
REMARK                            x       y       z     vdW  Elec       q    Type
REMARK                         _______ _______ _______ _____ _____    ______ ____
ROOT
ATOM      1  C   UNL     1      -0.018   1.503   0.010  0.00  0.00    +0.044 C 
ATOM      2  C   UNL     1       0.002  -0.004   0.002  0.00  0.00    -0.050 A 
ATOM      3  C   UNL     1       0.006  -0.691  -1.199  0.00  0.00    +0.005 A 
ATOM      4  C   UNL     1       0.026  -2.070  -1.212  0.00  0.00    +0.024 A 
ATOM      5  C   UNL     1       0.042  -2.782  -0.015  0.00  0.00    +0.039 A 
ATOM      6  C   UNL     1       0.037  -2.081   1.187  0.00  0.00    +0.004 A 
ATOM      7  C   UNL     1       0.023  -0.704   1.195  0.00  0.00    +0.011 A 
ATOM      8  C   UNL     1       0.058  -3.122   2.270  0.00  0.00    +0.136 C 
ATOM      9  C   UNL     1       1.282  -2.963   3.179  0.00  0.00    +0.122 C 
ATOM     10  C   UNL     1       0.752  -2.190   4.418  0.00  0.00    +0.107 C 
ATOM     11  C   UNL     1      -0.740  -1.934   4.117  0.00  0.00    +0.076 C 
ATOM     12  N   UNL     1      -1.119  -3.009   3.152  0.00  0.00    -0.295 NA
ATOM     13  C   UNL     1       0.885  -3.195   5.540  0.00  0.00    +0.227 C 
ATOM     14  O   UNL     1       0.569  -3.002   6.694  0.00  0.00    -0.275 OA
ATOM     15  N   UNL     1       1.406  -4.330   5.060  0.00  0.00    -0.241 N 
ATOM     16  C   UNL     1       1.680  -4.312   3.735  0.00  0.00    +0.228 C 
ATOM     17  O   UNL     1       2.162  -5.221   3.093  0.00  0.00    -0.275 OA
ATOM     18  C   UNL     1       0.076  -4.440   1.545  0.00  0.00    +0.243 C 
ATOM     19  O   UNL     1       0.097  -5.543   2.049  0.00  0.00    -0.273 OA
ATOM     20  N   UNL     1       0.063  -4.157   0.228  0.00  0.00    -0.283 N 
ATOM     21  H   UNL     1      -1.940  -2.745   2.628  0.00  0.00    +0.124 HD
ATOM     22  H   UNL     1       0.068  -4.831  -0.470  0.00  0.00    +0.155 HD
ENDROOT
BRANCH  11  23
ATOM     23  C   UNL     1      -1.571  -2.067   5.395  0.00  0.00    +0.115 C 
BRANCH  23  24
ATOM     24  C   UNL     1      -3.002  -1.694   5.104  0.00  0.00    +0.212 C 
ATOM     25  O   UNL     1      -3.325  -1.355   3.986  0.00  0.00    -0.276 OA
ATOM     26  N   UNL     1      -3.922  -1.737   6.088  0.00  0.00    -0.329 N 
ATOM     27  H   UNL     1      -3.664  -2.008   6.982  0.00  0.00    +0.145 HD
ATOM     28  H   UNL     1      -4.843  -1.496   5.901  0.00  0.00    +0.145 HD
ENDBRANCH  23  24
ENDBRANCH  11  23
BRANCH  15  29
ATOM     29  C   UNL     1       1.666  -5.500   5.902  0.00  0.00    +0.121 C 
BRANCH  29  30
ATOM     30  C   UNL     1       0.429  -6.401   5.920  0.00  0.00    +0.054 C 
BRANCH  30  31
ATOM     31  C   UNL     1       0.697  -7.604   6.787  0.00  0.00    -0.042 A 
ATOM     32  C   UNL     1       1.243  -8.746   6.231  0.00  0.00    +0.007 A 
ATOM     33  C   UNL     1       1.490  -9.853   7.022  0.00  0.00    +0.049 A 
ATOM     34  C   UNL     1       1.192  -9.819   8.375  0.00  0.00    +0.161 A 
ATOM     35  C   UNL     1       0.642  -8.669   8.934  0.00  0.00    +0.162 A 
ATOM     36  C   UNL     1       0.401  -7.562   8.137  0.00  0.00    +0.053 A 
BRANCH  35  37
ATOM     37  O   UNL     1       0.348  -8.631  10.261  0.00  0.00    -0.491 OA
ATOM     38  C   UNL     1      -0.214  -7.417  10.766  0.00  0.00    +0.277 C 
ENDBRANCH  35  37
BRANCH  34  39
ATOM     39  O   UNL     1       1.434 -10.907   9.154  0.00  0.00    -0.491 OA
ATOM     40  C   UNL     1       1.998 -12.052   8.511  0.00  0.00    +0.277 C 
ENDBRANCH  34  39
ENDBRANCH  30  31
ENDBRANCH  29  30
ENDBRANCH  15  29
TORSDOF 7
