REMARK  Name = ZINC05938336
REMARK  11 active torsions:
REMARK  status: ('A' for Active; 'I' for Inactive)
REMARK    1  A    between atoms: C_1  and  C_2
REMARK    2  A    between atoms: C_2  and  O_3
REMARK    3  A    between atoms: O_3  and  C_4
REMARK    4  A    between atoms: C_4  and  C_6
REMARK    5  A    between atoms: C_7  and  C_26
REMARK    6  A    between atoms: C_8  and  C_23
REMARK    7  A    between atoms: C_10  and  N_11
REMARK    8  A    between atoms: C_12  and  C_14
REMARK    9  A    between atoms: C_14  and  N_46
REMARK   10  A    between atoms: C_15  and  C_16
REMARK   11  A    between atoms: C_15  and  N_46
REMARK                            x       y       z     vdW  Elec       q    Type
REMARK                         _______ _______ _______ _____ _____    ______ ____
ROOT
ATOM      1  C   UNL     1      -1.248  -2.099   0.003  0.00  0.00    +0.091 A 
ATOM      2  C   UNL     1      -1.259  -2.822   1.186  0.00  0.00    -0.015 A 
ATOM      3  C   UNL     1      -1.318  -4.186   1.097  0.00  0.00    +0.079 A 
ATOM      4  S   UNL     1      -1.345  -4.463  -0.664  0.00  0.00    -0.068 S 
ATOM      5  C   UNL     1      -1.287  -2.815  -1.198  0.00  0.00    +0.087 A 
ATOM      6  C   UNL     1      -1.214  -2.129   2.524  0.00  0.00    +0.046 C 
ENDROOT
BRANCH   3   7
ATOM      7  C   UNL     1      -1.346  -5.173   2.178  0.00  0.00    +0.248 C 
ATOM      8  O   UNL     1      -1.321  -4.805   3.338  0.00  0.00    -0.270 OA
ATOM      9  N   UNL     1      -1.399  -6.488   1.889  0.00  0.00    -0.325 N 
ATOM     10  H   UNL     1      -1.419  -6.781   0.965  0.00  0.00    +0.145 HD
ATOM     11  H   UNL     1      -1.418  -7.142   2.606  0.00  0.00    +0.145 HD
ENDBRANCH   3   7
BRANCH   5  12
ATOM     12  N   UNL     1      -1.280  -2.329  -2.491  0.00  0.00    -0.281 N 
ATOM     13  C   UNL     1      -1.323  -3.183  -3.533  0.00  0.00    +0.201 C 
ATOM     14  O   UNL     1      -1.367  -4.379  -3.334  0.00  0.00    -0.278 OA
ATOM     15  H   UNL     1      -1.244  -1.373  -2.650  0.00  0.00    +0.155 HD
BRANCH  13  16
ATOM     16  C   UNL     1      -1.315  -2.653  -4.943  0.00  0.00    +0.016 C 
BRANCH  16  17
ATOM     17  N   UNL     1      -1.368  -3.786  -5.886  0.00  0.00    +0.387 N 
ATOM     18  H   UNL     1      -2.227  -4.325  -5.720  0.00  0.00    -0.085 HD
ATOM     19  H   UNL     1      -0.551  -4.390  -5.736  0.00  0.00    -0.085 HD
BRANCH  17  20
ATOM     20  C   UNL     1      -1.362  -3.296  -7.277  0.00  0.00    -0.046 C 
BRANCH  20  21
ATOM     21  C   UNL     1      -1.417  -4.473  -8.216  0.00  0.00    -0.064 A 
ATOM     22  C   UNL     1      -0.245  -5.056  -8.662  0.00  0.00    +0.004 A 
ATOM     23  C   UNL     1      -0.293  -6.139  -9.519  0.00  0.00    +0.038 A 
ATOM     24  C   UNL     1      -1.516  -6.634  -9.940  0.00  0.00    +0.123 A 
ATOM     25  C   UNL     1      -2.689  -6.046  -9.496  0.00  0.00    +0.038 A 
ATOM     26  C   UNL     1      -2.638  -4.967  -8.635  0.00  0.00    +0.004 A 
ATOM     27  F   UNL     1      -1.565  -7.689 -10.781  0.00  0.00    -0.205 F 
ENDBRANCH  20  21
ENDBRANCH  17  20
ENDBRANCH  16  17
ENDBRANCH  13  16
ENDBRANCH   5  12
BRANCH   1  28
ATOM     28  C   UNL     1      -1.191  -0.632   0.010  0.00  0.00    +0.342 C 
ATOM     29  O   UNL     1      -2.220   0.016   0.023  0.00  0.00    -0.245 OA
BRANCH  28  30
ATOM     30  O   UNL     1       0.002  -0.004   0.002  0.00  0.00    -0.461 OA
BRANCH  30  32
ATOM     31  C   UNL     1       1.418   1.977  -0.001  0.00  0.00    +0.048 C 
ATOM     32  C   UNL     1      -0.018   1.448   0.010  0.00  0.00    +0.229 C 
ENDBRANCH  30  32
ENDBRANCH  28  30
ENDBRANCH   1  28
TORSDOF 9
