REMARK  Name = ZINC07182755
REMARK  8 active torsions:
REMARK  status: ('A' for Active; 'I' for Inactive)
REMARK    1  A    between atoms: C_1  and  N_2
REMARK    2  A    between atoms: N_2  and  C_3
REMARK    3  A    between atoms: N_2  and  C_4
REMARK    4  A    between atoms: C_7  and  N_27
REMARK    5  A    between atoms: C_9  and  C_10
REMARK    6  A    between atoms: N_12  and  N_13
REMARK    7  A    between atoms: C_14  and  C_16
REMARK    8  A    between atoms: C_16  and  C_17
REMARK                            x       y       z     vdW  Elec       q    Type
REMARK                         _______ _______ _______ _____ _____    ______ ____
ROOT
ATOM      1  C   UNL     1      -4.328   4.207   3.268  0.00  0.00    +0.262 C 
ATOM      2  O   UNL     1      -4.927   4.739   2.353  0.00  0.00    -0.269 OA
ATOM      3  N   UNL     1      -3.241   3.453   3.014  0.00  0.00    -0.230 N 
ATOM      4  H   UNL     1      -2.763   3.028   3.743  0.00  0.00    +0.173 HD
ENDROOT
BRANCH   1  10
ATOM      5  C   UNL     1      -5.923   5.174   4.927  0.00  0.00    +0.042 A 
ATOM      6  C   UNL     1      -6.349   5.336   6.239  0.00  0.00    +0.026 A 
ATOM      7  C   UNL     1      -5.662   4.728   7.269  0.00  0.00    +0.034 A 
ATOM      8  C   UNL     1      -4.544   3.952   7.005  0.00  0.00    +0.127 A 
ATOM      9  C   UNL     1      -4.110   3.775   5.710  0.00  0.00    +0.047 A 
ATOM     10  C   UNL     1      -4.791   4.388   4.656  0.00  0.00    +0.061 A 
BRANCH   5  12
ATOM     11  C   UNL     1      -8.007   5.325   3.839  0.00  0.00    +0.129 C 
ATOM     12  N   UNL     1      -6.612   5.785   3.888  0.00  0.00    -0.335 N 
ATOM     13  C   UNL     1      -6.544   7.248   4.000  0.00  0.00    +0.129 C 
ENDBRANCH   5  12
BRANCH   8  14
ATOM     14  N   UNL     1      -3.817   3.305   8.121  0.00  0.00    +0.056 N 
ATOM     15  O   UNL     1      -4.202   3.455   9.267  0.00  0.00    -0.126 OA
ATOM     16  O   UNL     1      -2.835   2.622   7.893  0.00  0.00    -0.126 OA
ENDBRANCH   8  14
ENDBRANCH   1  10
BRANCH   3  17
ATOM     17  N   UNL     1      -2.801   3.280   1.694  0.00  0.00    -0.234 N 
ATOM     18  C   UNL     1      -1.714   2.526   1.440  0.00  0.00    +0.233 C 
ATOM     19  O   UNL     1      -1.117   1.995   2.352  0.00  0.00    -0.274 OA
ATOM     20  H   UNL     1      -3.279   3.705   0.965  0.00  0.00    +0.173 HD
BRANCH  18  21
ATOM     21  C   UNL     1      -1.241   2.341   0.021  0.00  0.00    +0.134 C 
BRANCH  21  22
ATOM     22  C   UNL     1      -0.018   1.461   0.010  0.00  0.00    -0.014 A 
ATOM     23  C   UNL     1       1.260   1.871   0.000  0.00  0.00    +0.087 A 
ATOM     24  N   UNL     1       2.097   0.788  -0.014  0.00  0.00    -0.360 N 
ATOM     25  H   UNL     1       3.066   0.833  -0.023  0.00  0.00    +0.165 HD
ATOM     26  C   UNL     1       1.359  -0.374  -0.013  0.00  0.00    +0.047 A 
ATOM     27  C   UNL     1       0.002  -0.004   0.002  0.00  0.00    +0.003 A 
ATOM     28  C   UNL     1      -0.988  -0.988   0.007  0.00  0.00    +0.010 A 
ATOM     29  C   UNL     1      -0.633  -2.308  -0.003  0.00  0.00    +0.001 A 
ATOM     30  C   UNL     1       0.704  -2.678  -0.018  0.00  0.00    +0.002 A 
ATOM     31  C   UNL     1       1.698  -1.723  -0.023  0.00  0.00    +0.026 A 
ENDBRANCH  21  22
ENDBRANCH  18  21
ENDBRANCH   3  17
TORSDOF 6
