REMARK  Name = ZINC23635382
REMARK  8 active torsions:
REMARK  status: ('A' for Active; 'I' for Inactive)
REMARK    1  A    between atoms: C_1  and  C_2
REMARK    2  A    between atoms: C_3  and  C_7
REMARK    3  A    between atoms: C_10  and  S_18
REMARK    4  A    between atoms: N_11  and  C_12
REMARK    5  A    between atoms: S_18  and  C_19
REMARK    6  A    between atoms: C_19  and  C_20
REMARK    7  A    between atoms: N_25  and  C_26
REMARK    8  A    between atoms: C_32  and  C_34
REMARK                            x       y       z     vdW  Elec       q    Type
REMARK                         _______ _______ _______ _____ _____    ______ ____
ROOT
ATOM      1  C   UNL     1       0.002  -0.004   0.002  0.00  0.00    +0.173 A 
ATOM      2  N   UNL     1      -0.016   1.308   0.009  0.00  0.00    -0.128 NA
ATOM      3  N   UNL     1       1.185   1.765   0.000  0.00  0.00    -0.122 NA
ATOM      4  C   UNL     1       2.046   0.774  -0.013  0.00  0.00    +0.197 A 
ATOM      5  N   UNL     1       1.324  -0.390  -0.013  0.00  0.00    -0.270 N 
ENDROOT
BRANCH   1   8
ATOM      6  C   UNL     1      -3.005   0.881   0.048  0.00  0.00    +0.087 C 
ATOM      7  C   UNL     1      -2.485  -0.534   0.027  0.00  0.00    +0.112 A 
ATOM      8  C   UNL     1      -1.175  -0.899   0.008  0.00  0.00    +0.060 A 
ATOM      9  C   UNL     1      -1.172  -2.368  -0.000  0.00  0.00    +0.053 A 
ATOM     10  C   UNL     1      -2.462  -2.741   0.009  0.00  0.00    +0.196 A 
ATOM     11  O   UNL     1      -3.235  -1.645   0.022  0.00  0.00    -0.467 OA
ENDBRANCH   1   8
BRANCH   5  12
ATOM     12  C   UNL     1       1.826  -1.699  -0.025  0.00  0.00    +0.051 A 
ATOM     13  C   UNL     1       1.616  -2.534   1.064  0.00  0.00    +0.026 A 
ATOM     14  C   UNL     1       2.106  -3.825   1.046  0.00  0.00    +0.002 A 
ATOM     15  C   UNL     1       2.816  -4.282  -0.049  0.00  0.00    +0.000 A 
ATOM     16  C   UNL     1       3.031  -3.450  -1.132  0.00  0.00    +0.002 A 
ATOM     17  C   UNL     1       2.538  -2.160  -1.123  0.00  0.00    +0.026 A 
ENDBRANCH   5  12
BRANCH   4  18
ATOM     18  S   UNL     1       3.803   0.915  -0.029  0.00  0.00    -0.076 S 
BRANCH  18  19
ATOM     19  C   UNL     1       3.973   2.717  -0.021  0.00  0.00    +0.173 C 
BRANCH  19  20
ATOM     20  C   UNL     1       5.435   3.083  -0.033  0.00  0.00    +0.231 C 
ATOM     21  O   UNL     1       6.278   2.212  -0.046  0.00  0.00    -0.274 OA
ATOM     22  N   UNL     1       5.805   4.379  -0.030  0.00  0.00    -0.239 N 
ATOM     23  C   UNL     1       7.113   4.707  -0.041  0.00  0.00    +0.306 C 
ATOM     24  O   UNL     1       7.958   3.833  -0.053  0.00  0.00    -0.252 OA
ATOM     25  N   UNL     1       7.483   6.003  -0.037  0.00  0.00    -0.296 N 
ATOM     26  H   UNL     1       5.040   5.170  -0.018  0.00  0.00    +0.159 HD
ATOM     27  H   UNL     1       6.718   6.793  -0.026  0.00  0.00    +0.151 HD
BRANCH  25  28
ATOM     28  C   UNL     1       8.904   6.359  -0.049  0.00  0.00    +0.077 C 
ATOM     29  C   UNL     1       9.415   6.368  -1.491  0.00  0.00    +0.022 C 
ATOM     30  C   UNL     1      10.900   6.740  -1.503  0.00  0.00    +0.002 C 
ATOM     31  C   UNL     1      11.083   8.129  -0.887  0.00  0.00    +0.000 C 
ATOM     32  C   UNL     1      10.571   8.119   0.554  0.00  0.00    +0.005 C 
ATOM     33  C   UNL     1       9.087   7.747   0.567  0.00  0.00    +0.006 C 
ATOM     34  C   UNL     1       8.575   7.738   2.009  0.00  0.00    +0.009 C 
ENDBRANCH  25  28
ENDBRANCH  19  20
ENDBRANCH  18  19
ENDBRANCH   4  18
TORSDOF 6
