REMARK  Name = ZINC21230431
REMARK  7 active torsions:
REMARK  status: ('A' for Active; 'I' for Inactive)
REMARK    1  A    between atoms: C_1  and  C_2
REMARK    2  A    between atoms: C_5  and  C_8
REMARK    3  A    between atoms: C_13  and  C_23
REMARK    4  A    between atoms: C_25  and  O_32
REMARK    5  A    between atoms: C_28  and  O_29
REMARK    6  A    between atoms: O_29  and  C_30
REMARK    7  A    between atoms: O_32  and  C_33
REMARK                            x       y       z     vdW  Elec       q    Type
REMARK                         _______ _______ _______ _____ _____    ______ ____
ROOT
ATOM      1  C   UNL     1       4.423   5.037   2.428  0.00  0.00    +0.032 C 
ATOM      2  C   UNL     1       3.770   5.170   1.053  0.00  0.00    +0.059 C 
ATOM      3  C   UNL     1       2.954   3.926   0.745  0.00  0.00    +0.017 C 
ATOM      4  C   UNL     1       3.340   2.725   1.209  0.00  0.00    +0.037 C 
ATOM      5  C   UNL     1       2.631   1.413   0.971  0.00  0.00    +0.140 C 
ATOM      6  N   UNL     1       1.596   1.463  -0.039  0.00  0.00    -0.331 N 
ATOM      7  C   UNL     1       0.451   2.237   0.144  0.00  0.00    +0.049 A 
ATOM      8  C   UNL     1      -0.796   1.657   0.306  0.00  0.00    +0.025 A 
ATOM      9  C   UNL     1      -1.889   2.460   0.582  0.00  0.00    +0.002 A 
ATOM     10  C   UNL     1      -1.738   3.829   0.705  0.00  0.00    +0.002 A 
ATOM     11  C   UNL     1      -0.496   4.414   0.527  0.00  0.00    +0.025 A 
ATOM     12  C   UNL     1       0.594   3.614   0.229  0.00  0.00    +0.052 A 
ATOM     13  N   UNL     1       1.856   4.139  -0.023  0.00  0.00    -0.316 N 
ATOM     14  C   UNL     1       4.502   2.611   2.010  0.00  0.00    +0.163 C 
ATOM     15  O   UNL     1       4.841   1.510   2.397  0.00  0.00    -0.292 OA
ATOM     16  C   UNL     1       5.329   3.800   2.397  0.00  0.00    +0.088 C 
ATOM     17  H   UNL     1       1.706   0.885  -0.968  0.00  0.00    +0.147 HD
ATOM     18  H   UNL     1       1.927   4.770  -0.921  0.00  0.00    +0.152 HD
ENDROOT
BRANCH   1  23
ATOM     19  C   UNL     1       7.575   9.746   3.562  0.00  0.00    +0.044 C 
ATOM     20  C   UNL     1       6.753   8.517   3.267  0.00  0.00    -0.050 A 
ATOM     21  C   UNL     1       5.726   8.152   4.117  0.00  0.00    +0.003 A 
ATOM     22  C   UNL     1       4.972   7.026   3.845  0.00  0.00    +0.004 A 
ATOM     23  C   UNL     1       5.245   6.265   2.724  0.00  0.00    -0.043 A 
ATOM     24  C   UNL     1       6.276   6.627   1.877  0.00  0.00    +0.004 A 
ATOM     25  C   UNL     1       7.027   7.756   2.146  0.00  0.00    +0.003 A 
ENDBRANCH   1  23
BRANCH   5  26
ATOM     26  C   UNL     1       2.007   0.967   2.268  0.00  0.00    +0.022 A 
ATOM     27  C   UNL     1       1.833   1.870   3.298  0.00  0.00    +0.056 A 
ATOM     28  C   UNL     1       1.254   1.460   4.490  0.00  0.00    +0.135 A 
ATOM     29  C   UNL     1       0.859   0.140   4.651  0.00  0.00    +0.063 A 
ATOM     30  C   UNL     1       1.038  -0.765   3.622  0.00  0.00    +0.065 A 
ATOM     31  C   UNL     1       1.613  -0.353   2.428  0.00  0.00    +0.127 A 
ATOM     32 BR   UNL     1       0.077  -0.421   6.279  0.00  0.00    -0.046 Br
BRANCH  31  33
ATOM     33  O   UNL     1       1.789  -1.244   1.416  0.00  0.00    -0.495 OA
ATOM     34  C   UNL     1       1.360  -2.586   1.651  0.00  0.00    +0.277 C 
ENDBRANCH  31  33
BRANCH  28  35
ATOM     35  O   UNL     1       1.078   2.351   5.502  0.00  0.00    -0.494 OA
ATOM     36  C   UNL     1       1.427   3.712   5.237  0.00  0.00    +0.277 C 
ENDBRANCH  28  35
ENDBRANCH   5  26
TORSDOF 4
