REMARK  Name = ZINC63573038
REMARK  9 active torsions:
REMARK  status: ('A' for Active; 'I' for Inactive)
REMARK    1  A    between atoms: C_1  and  C_2
REMARK    2  A    between atoms: C_2  and  O_3
REMARK    3  A    between atoms: O_3  and  C_4
REMARK    4  A    between atoms: C_7  and  N_10
REMARK    5  A    between atoms: C_19  and  O_36
REMARK    6  A    between atoms: C_26  and  C_28
REMARK    7  A    between atoms: C_31  and  O_34
REMARK    8  A    between atoms: O_34  and  C_35
REMARK    9  A    between atoms: O_36  and  C_37
REMARK                            x       y       z     vdW  Elec       q    Type
REMARK                         _______ _______ _______ _____ _____    ______ ____
ROOT
ATOM      1  N   UNL     1      -1.565  -6.630  -0.322  0.00  0.00    -0.269 N 
ATOM      2  C   UNL     1      -2.861  -6.890  -0.059  0.00  0.00    +0.307 C 
ATOM      3  O   UNL     1      -3.643  -5.973   0.104  0.00  0.00    -0.252 OA
ATOM      4  N   UNL     1      -3.289  -8.165   0.024  0.00  0.00    -0.276 N 
ATOM      5  C   UNL     1      -2.319  -9.262  -0.051  0.00  0.00    +0.114 C 
ATOM      6  C   UNL     1      -2.689 -10.195  -1.218  0.00  0.00    +0.052 C 
ATOM      7  C   UNL     1      -4.177 -10.433  -1.127  0.00  0.00    -0.035 C 
ATOM      8  C   UNL     1      -4.887 -11.553  -1.113  0.00  0.00    +0.003 A 
ATOM      9  C   UNL     1      -4.503 -12.963  -1.288  0.00  0.00    +0.055 A 
ATOM     10  C   UNL     1      -5.501 -13.884  -1.193  0.00  0.00    +0.121 A 
ATOM     11  C   UNL     1      -6.843 -13.563  -0.942  0.00  0.00    +0.047 A 
ATOM     12  C   UNL     1      -7.308 -12.298  -0.774  0.00  0.00    +0.029 A 
ATOM     13  C   UNL     1      -6.322 -11.212  -0.863  0.00  0.00    +0.043 A 
ATOM     14  N   UNL     1      -6.474  -9.926  -0.767  0.00  0.00    -0.375 N 
ATOM     15  C   UNL     1      -5.178  -9.290  -1.005  0.00  0.00    +0.131 C 
ATOM     16  C   UNL     1      -4.725  -8.441   0.193  0.00  0.00    +0.134 C 
ATOM     17  H   UNL     1      -0.954  -7.358  -0.515  0.00  0.00    +0.156 HD
ATOM     18  H   UNL     1      -7.305  -9.466  -0.572  0.00  0.00    +0.160 HD
ENDROOT
BRANCH   1  22
ATOM     19  C   UNL     1      -0.180  -2.696  -0.301  0.00  0.00    +0.121 A 
ATOM     20  C   UNL     1       0.708  -3.745  -0.112  0.00  0.00    +0.047 A 
ATOM     21  C   UNL     1       0.251  -5.048  -0.119  0.00  0.00    +0.027 A 
ATOM     22  C   UNL     1      -1.099  -5.308  -0.314  0.00  0.00    +0.035 A 
ATOM     23  C   UNL     1      -1.988  -4.258  -0.503  0.00  0.00    +0.027 A 
ATOM     24  C   UNL     1      -1.529  -2.955  -0.491  0.00  0.00    +0.047 A 
BRANCH  19  25
ATOM     25  O   UNL     1       0.272  -1.414  -0.294  0.00  0.00    -0.492 OA
BRANCH  25  27
ATOM     26  C   UNL     1       1.990   0.276  -0.117  0.00  0.00    +0.048 C 
ATOM     27  C   UNL     1       1.673  -1.220  -0.094  0.00  0.00    +0.225 C 
ENDBRANCH  25  27
ENDBRANCH  19  25
ENDBRANCH   1  22
BRANCH  16  28
ATOM     28  C   UNL     1      -4.950  -9.200   1.475  0.00  0.00    -0.024 A 
ATOM     29  C   UNL     1      -5.911  -8.770   2.372  0.00  0.00    +0.009 A 
ATOM     30  C   UNL     1      -6.120  -9.464   3.548  0.00  0.00    +0.046 A 
ATOM     31  C   UNL     1      -5.364 -10.593   3.829  0.00  0.00    +0.120 A 
ATOM     32  C   UNL     1      -4.401 -11.023   2.928  0.00  0.00    +0.046 A 
ATOM     33  C   UNL     1      -4.200 -10.328   1.751  0.00  0.00    +0.009 A 
BRANCH  31  34
ATOM     34  O   UNL     1      -5.567 -11.277   4.986  0.00  0.00    -0.495 OA
ATOM     35  C   UNL     1      -4.753 -12.430   5.209  0.00  0.00    +0.277 C 
ENDBRANCH  31  34
ENDBRANCH  16  28
BRANCH  10  36
ATOM     36  O   UNL     1      -5.178 -15.194  -1.351  0.00  0.00    -0.495 OA
ATOM     37  C   UNL     1      -6.241 -16.143  -1.247  0.00  0.00    +0.277 C 
ENDBRANCH  10  36
TORSDOF 6
