REMARK  Name = ZINC40377164
REMARK  5 active torsions:
REMARK  status: ('A' for Active; 'I' for Inactive)
REMARK    1  A    between atoms: C_3  and  S_8
REMARK    2  A    between atoms: S_8  and  N_11
REMARK    3  A    between atoms: N_11  and  C_12
REMARK    4  A    between atoms: C_12  and  C_17
REMARK    5  A    between atoms: N_18  and  O_19
REMARK                            x       y       z     vdW  Elec       q    Type
REMARK                         _______ _______ _______ _____ _____    ______ ____
ROOT
ATOM      1  N   UNL     1       4.825   2.513   1.607  0.00  0.00    -0.177 NA
ATOM      2  H   UNL     1       5.572   2.776   1.047  0.00  0.00    +0.149 HD
ENDROOT
BRANCH   1   3
ATOM      3  C   UNL     1       4.901   1.282   2.399  0.00  0.00    +0.098 C 
ATOM      4  C   UNL     1       6.212   0.531   2.084  0.00  0.00    +0.031 C 
ATOM      5  C   UNL     1       7.188   0.987   3.197  0.00  0.00    +0.002 C 
ATOM      6  C   UNL     1       6.272   1.067   4.443  0.00  0.00    +0.002 C 
ATOM      7  C   UNL     1       4.940   1.623   3.899  0.00  0.00    +0.031 C 
BRANCH   3   8
ATOM      8  C   UNL     1       3.716   0.402   2.099  0.00  0.00    +0.153 C 
ATOM      9  N   UNL     1       3.723  -0.358   1.055  0.00  0.00    -0.075 NA
ATOM     10  N   UNL     1       2.624   0.407   2.940  0.00  0.00    -0.342 N 
ATOM     11  H   UNL     1       2.584   1.035   3.679  0.00  0.00    +0.144 HD
ATOM     12  H   UNL     1       1.896  -0.216   2.792  0.00  0.00    +0.144 HD
BRANCH   9  13
ATOM     13  O   UNL     1       4.778  -0.261   0.116  0.00  0.00    -0.408 OA
ATOM     14  H   UNL     1       4.697  -0.869  -0.632  0.00  0.00    +0.328 HD
ENDBRANCH   9  13
ENDBRANCH   3   8
ENDBRANCH   1   3
BRANCH   1  15
ATOM     15  S   UNL     1       3.464   3.454   1.668  0.00  0.00    +0.059 S 
ATOM     16  O   UNL     1       2.356   2.575   1.529  0.00  0.00    -0.153 OA
ATOM     17  O   UNL     1       3.686   4.546   0.787  0.00  0.00    -0.153 OA
BRANCH  15  20
ATOM     18  C   UNL     1       4.026   5.789   4.889  0.00  0.00    +0.040 A 
ATOM     19  C   UNL     1       4.099   5.259   3.615  0.00  0.00    +0.031 A 
ATOM     20  C   UNL     1       3.371   4.129   3.293  0.00  0.00    +0.105 A 
ATOM     21  C   UNL     1       2.568   3.528   4.245  0.00  0.00    +0.031 A 
ATOM     22  C   UNL     1       2.494   4.057   5.520  0.00  0.00    +0.040 A 
ATOM     23  C   UNL     1       3.224   5.188   5.844  0.00  0.00    +0.124 A 
ATOM     24  F   UNL     1       3.152   5.706   7.090  0.00  0.00    -0.205 F 
ENDBRANCH  15  20
ENDBRANCH   1  15
TORSDOF 5
