REMARK  Name = ZINC13421715
REMARK  7 active torsions:
REMARK  status: ('A' for Active; 'I' for Inactive)
REMARK    1  A    between atoms: C_1  and  C_2
REMARK    2  A    between atoms: C_5  and  C_24
REMARK    3  A    between atoms: C_10  and  C_12
REMARK    4  A    between atoms: C_12  and  O_13
REMARK    5  A    between atoms: O_13  and  C_14
REMARK    6  A    between atoms: C_17  and  C_22
REMARK    7  A    between atoms: C_19  and  C_20
REMARK                            x       y       z     vdW  Elec       q    Type
REMARK                         _______ _______ _______ _____ _____    ______ ____
ROOT
ATOM      1  O   UNL     1       2.364   1.121  -0.014  0.00  0.00    -0.482 OA
ENDROOT
BRANCH   1   2
ATOM      2  C   UNL     1       1.183   1.784   0.000  0.00  0.00    +0.135 A 
ATOM      3  C   UNL     1      -0.013   1.076   0.008  0.00  0.00    +0.047 A 
ATOM      4  C   UNL     1      -1.215   1.745   0.017  0.00  0.00    +0.019 A 
ATOM      5  C   UNL     1      -1.243   3.145   0.031  0.00  0.00    +0.064 A 
ATOM      6  C   UNL     1      -0.051   3.866   0.023  0.00  0.00    +0.034 A 
ATOM      7  C   UNL     1       1.167   3.188   0.008  0.00  0.00    +0.105 A 
BRANCH   7   8
ATOM      8  C   UNL     1       2.433   3.943  -0.001  0.00  0.00    +0.390 C 
ATOM      9  O   UNL     1       3.494   3.350  -0.014  0.00  0.00    -0.240 OA
ATOM     10  O   UNL     1       2.415   5.290   0.007  0.00  0.00    -0.240 OA
ENDBRANCH   7   8
BRANCH   5  11
ATOM     11  C   UNL     1      -2.535   3.857   0.048  0.00  0.00    +0.387 C 
ATOM     12  O   UNL     1      -2.560   5.071   0.055  0.00  0.00    -0.241 OA
ATOM     13  O   UNL     1      -3.688   3.159   0.055  0.00  0.00    -0.241 OA
ENDBRANCH   5  11
ENDBRANCH   1   2
BRANCH   1  14
ATOM     14  C   UNL     1       2.305  -0.307  -0.021  0.00  0.00    +0.324 C 
BRANCH  14  22
ATOM     15  C   UNL     1       1.785  -5.147  -1.143  0.00  0.00    +0.009 C 
ATOM     16  C   UNL     1       2.895  -4.096  -1.212  0.00  0.00    +0.004 C 
ATOM     17  C   UNL     1       4.258  -4.787  -1.132  0.00  0.00    +0.009 C 
ATOM     18  C   UNL     1       5.370  -3.740  -1.234  0.00  0.00    +0.004 C 
ATOM     19  C   UNL     1       5.254  -2.762  -0.061  0.00  0.00    +0.111 C 
ATOM     20  N   UNL     1       3.896  -2.201  -0.045  0.00  0.00    -0.298 N 
ATOM     21  C   UNL     1       2.751  -3.122  -0.033  0.00  0.00    +0.111 C 
ATOM     22  C   UNL     1       3.704  -0.867  -0.037  0.00  0.00    +0.253 C 
ATOM     23  O   UNL     1       4.657  -0.117  -0.042  0.00  0.00    -0.272 OA
ATOM     24  C   UNL     1       5.232  -2.975  -2.552  0.00  0.00    +0.009 C 
ENDBRANCH  14  22
ENDBRANCH   1  14
TORSDOF 5
