REMARK  Name = ZINC08267121
REMARK  5 active torsions:
REMARK  status: ('A' for Active; 'I' for Inactive)
REMARK    1  A    between atoms: C_4  and  N_15
REMARK    2  A    between atoms: C_5  and  C_7
REMARK    3  A    between atoms: N_9  and  C_10
REMARK    4  A    between atoms: C_16  and  C_18
REMARK    5  A    between atoms: C_18  and  N_61
REMARK                            x       y       z     vdW  Elec       q    Type
REMARK                         _______ _______ _______ _____ _____    ______ ____
ROOT
ATOM      1  N   UNL     1       6.655   2.909   2.335  0.00  0.00    -0.286 N 
ATOM      2  C   UNL     1       7.588   3.673   2.937  0.00  0.00    +0.201 C 
ATOM      3  O   UNL     1       8.680   3.810   2.428  0.00  0.00    -0.278 OA
ATOM      4  H   UNL     1       5.758   2.860   2.701  0.00  0.00    +0.155 HD
ENDROOT
BRANCH   1   8
ATOM      5  C   UNL     1       7.627   0.752  -1.099  0.00  0.00    +0.001 A 
ATOM      6  C   UNL     1       8.567   0.930  -0.097  0.00  0.00    +0.002 A 
ATOM      7  C   UNL     1       8.248   1.643   1.041  0.00  0.00    +0.024 A 
ATOM      8  C   UNL     1       6.979   2.188   1.188  0.00  0.00    +0.045 A 
ATOM      9  C   UNL     1       6.026   2.010   0.175  0.00  0.00    +0.058 A 
ATOM     10  C   UNL     1       6.361   1.282  -0.969  0.00  0.00    +0.015 A 
BRANCH   9  11
ATOM     11  C   UNL     1       4.674   2.584   0.319  0.00  0.00    +0.246 C 
ATOM     12  O   UNL     1       4.355   3.135   1.355  0.00  0.00    -0.270 OA
ATOM     13  N   UNL     1       3.793   2.497  -0.697  0.00  0.00    -0.308 N 
ATOM     14  H   UNL     1       4.048   2.057  -1.524  0.00  0.00    +0.149 HD
BRANCH  13  15
ATOM     15  C   UNL     1       2.451   3.067  -0.554  0.00  0.00    +0.073 C 
ATOM     16  C   UNL     1       2.418   4.529  -1.064  0.00  0.00    +0.022 C 
ATOM     17  C   UNL     1       0.939   4.771  -1.426  0.00  0.00    +0.002 C 
ATOM     18  C   UNL     1       0.322   3.388  -1.701  0.00  0.00    +0.002 C 
ATOM     19  C   UNL     1       1.449   2.354  -1.496  0.00  0.00    +0.022 C 
ENDBRANCH  13  15
ENDBRANCH   9  11
ENDBRANCH   1   8
BRANCH   2  20
ATOM     20  C   UNL     1       7.274   4.358   4.242  0.00  0.00    +0.019 C 
BRANCH  20  30
ATOM     21  C   UNL     1       9.567   4.232   5.009  0.00  0.00    -0.078 C 
ATOM     22  C   UNL     1      10.810   5.063   5.335  0.00  0.00    -0.015 C 
ATOM     23  C   UNL     1      10.503   5.982   6.519  0.00  0.00    -0.011 C 
ATOM     24  C   UNL     1      11.715   6.862   6.827  0.00  0.00    +0.004 C 
ATOM     25  C   UNL     1      11.392   7.770   8.016  0.00  0.00    +0.000 C 
ATOM     26  C   UNL     1      10.189   8.652   7.677  0.00  0.00    +0.000 C 
ATOM     27  C   UNL     1       8.978   7.771   7.357  0.00  0.00    +0.002 C 
ATOM     28  C   UNL     1       9.309   6.873   6.164  0.00  0.00    -0.025 C 
ATOM     29  C   UNL     1       8.107   5.991   5.824  0.00  0.00    -0.074 C 
ATOM     30  N   UNL     1       8.453   5.142   4.663  0.00  0.00    +0.386 N 
ATOM     31  H   UNL     1       8.746   5.745   3.886  0.00  0.00    -0.081 HD
ENDBRANCH  20  30
ENDBRANCH   2  20
TORSDOF 5
