REMARK  Name = ZINC59833340
REMARK  5 active torsions:
REMARK  status: ('A' for Active; 'I' for Inactive)
REMARK    1  A    between atoms: C_5  and  C_6
REMARK    2  A    between atoms: C_8  and  C_11
REMARK    3  A    between atoms: C_11  and  S_12
REMARK    4  A    between atoms: S_12  and  C_13
REMARK    5  A    between atoms: C_17  and  N_19
REMARK                            x       y       z     vdW  Elec       q    Type
REMARK                         _______ _______ _______ _____ _____    ______ ____
ROOT
ATOM      1  S   UNL     1      -2.636  -4.898   1.723  0.00  0.00    -0.076 S 
ENDROOT
BRANCH   1   2
ATOM      2  C   UNL     1      -2.989  -6.616   1.554  0.00  0.00    +0.192 A 
ATOM      3  N   UNL     1      -3.100  -7.136   0.340  0.00  0.00    -0.207 NA
ATOM      4  C   UNL     1      -3.365  -8.429   0.175  0.00  0.00    +0.122 A 
ATOM      5  C   UNL     1      -3.528  -9.237   1.297  0.00  0.00    +0.086 A 
ATOM      6  C   UNL     1      -3.405  -8.655   2.555  0.00  0.00    +0.122 A 
ATOM      7  N   UNL     1      -3.132  -7.355   2.644  0.00  0.00    -0.207 NA
ATOM      8  N   UNL     1      -3.480  -8.965  -1.099  0.00  0.00    -0.343 N 
ATOM      9  H   UNL     1      -3.366  -8.397  -1.876  0.00  0.00    +0.144 HD
ATOM     10  H   UNL     1      -3.674  -9.909  -1.212  0.00  0.00    +0.144 HD
BRANCH   6  11
ATOM     11  N   UNL     1      -3.558  -9.420   3.701  0.00  0.00    -0.343 N 
ATOM     12  H   UNL     1      -3.753 -10.368   3.628  0.00  0.00    +0.144 HD
ATOM     13  H   UNL     1      -3.471  -9.008   4.575  0.00  0.00    +0.144 HD
ENDBRANCH   6  11
ENDBRANCH   1   2
BRANCH   1  14
ATOM     14  C   UNL     1      -2.527  -4.302   0.013  0.00  0.00    +0.176 C 
BRANCH  14  17
ATOM     15  C   UNL     1      -1.132  -0.950   0.009  0.00  0.00    +0.209 A 
ATOM     16  N   UNL     1      -1.036  -2.294   0.006  0.00  0.00    -0.190 NA
ATOM     17  C   UNL     1      -2.224  -2.826   0.013  0.00  0.00    +0.238 A 
ATOM     18  O   UNL     1      -3.132  -1.841   0.022  0.00  0.00    -0.337 OA
ATOM     19  N   UNL     1      -2.404  -0.623   0.024  0.00  0.00    -0.056 NA
BRANCH  15  24
ATOM     20  C   UNL     1      -0.017   1.366   0.010  0.00  0.00    +0.034 A 
ATOM     21  C   UNL     1       1.181   2.044   0.002  0.00  0.00    +0.026 A 
ATOM     22  C   UNL     1       2.342   1.337  -0.013  0.00  0.00    +0.061 A 
ATOM     23  S   UNL     1       1.754  -0.348  -0.017  0.00  0.00    -0.092 S 
ATOM     24  C   UNL     1       0.002  -0.004   0.002  0.00  0.00    +0.061 A 
ATOM     25 BR   UNL     1       1.212   3.935   0.011  0.00  0.00    -0.050 Br
ENDBRANCH  15  24
ENDBRANCH  14  17
ENDBRANCH   1  14
TORSDOF 5
