REMARK  Name = ZINC40701993
REMARK  8 active torsions:
REMARK  status: ('A' for Active; 'I' for Inactive)
REMARK    1  A    between atoms: C_1  and  C_2
REMARK    2  A    between atoms: C_2  and  N_3
REMARK    3  A    between atoms: N_3  and  C_4
REMARK    4  A    between atoms: C_15  and  N_34
REMARK    5  A    between atoms: C_16  and  N_20
REMARK    6  A    between atoms: N_20  and  N_21
REMARK    7  A    between atoms: N_21  and  C_22
REMARK    8  A    between atoms: N_21  and  C_28
REMARK                            x       y       z     vdW  Elec       q    Type
REMARK                         _______ _______ _______ _____ _____    ______ ____
ROOT
ATOM      1  N   UNL     1      -0.376  -0.586   0.168  0.00  0.00    -0.283 N 
ATOM      2  C   UNL     1      -1.096  -0.836   1.331  0.00  0.00    +0.151 A 
ATOM      3  C   UNL     1      -0.625  -0.387   2.567  0.00  0.00    +0.105 A 
ATOM      4  C   UNL     1      -1.387  -0.664   3.703  0.00  0.00    +0.139 A 
ATOM      5  N   UNL     1      -2.525  -1.341   3.567  0.00  0.00    -0.332 N 
ATOM      6  C   UNL     1      -2.933  -1.748   2.382  0.00  0.00    +0.200 A 
ATOM      7  N   UNL     1      -2.248  -1.502   1.284  0.00  0.00    -0.220 NA
ATOM      8  H   UNL     1      -3.061  -1.539   4.351  0.00  0.00    +0.168 HD
ENDROOT
BRANCH   1   9
ATOM      9  C   UNL     1       0.499  -1.550  -0.330  0.00  0.00    +0.043 A 
ATOM     10  C   UNL     1       1.818  -1.566   0.073  0.00  0.00    +0.024 A 
ATOM     11  C   UNL     1       2.700  -2.524  -0.418  0.00  0.00    +0.002 A 
ATOM     12  C   UNL     1       2.288  -3.469  -1.307  0.00  0.00    +0.008 A 
ATOM     13  C   UNL     1       0.952  -3.488  -1.742  0.00  0.00    -0.016 A 
ATOM     14  C   UNL     1       0.043  -2.521  -1.246  0.00  0.00    +0.003 A 
ATOM     15  C   UNL     1      -1.292  -2.544  -1.679  0.00  0.00    +0.010 A 
ATOM     16  C   UNL     1      -1.698  -3.496  -2.564  0.00  0.00    +0.001 A 
ATOM     17  C   UNL     1      -0.806  -4.451  -3.048  0.00  0.00    +0.001 A 
ATOM     18  C   UNL     1       0.499  -4.452  -2.660  0.00  0.00    +0.008 A 
ENDBRANCH   1   9
BRANCH   3  19
ATOM     19  N   UNL     1       0.582   0.325   2.663  0.00  0.00    -0.353 N 
ATOM     20  H   UNL     1       1.058   0.584   1.859  0.00  0.00    +0.143 HD
ATOM     21  H   UNL     1       0.939   0.556   3.535  0.00  0.00    +0.143 HD
ENDBRANCH   3  19
BRANCH   1  23
ATOM     22  C   UNL     1      -1.606   0.542  -1.619  0.00  0.00    +0.025 C 
ATOM     23  C   UNL     1      -0.538   0.689  -0.534  0.00  0.00    +0.109 C 
ENDBRANCH   1  23
BRANCH   4  24
ATOM     24  N   UNL     1      -0.964  -0.241   4.957  0.00  0.00    -0.243 N 
ATOM     25  H   UNL     1      -0.134   0.252   5.048  0.00  0.00    +0.172 HD
BRANCH  24  26
ATOM     26  N   UNL     1      -1.737  -0.525   6.090  0.00  0.00    -0.221 N 
BRANCH  26  27
ATOM     27  C   UNL     1      -1.333  -1.524   6.979  0.00  0.00    +0.053 A 
ATOM     28  C   UNL     1      -0.944  -2.768   6.498  0.00  0.00    +0.025 A 
ATOM     29  C   UNL     1      -0.544  -3.753   7.379  0.00  0.00    +0.002 A 
ATOM     30  C   UNL     1      -0.531  -3.503   8.739  0.00  0.00    +0.000 A 
ATOM     31  C   UNL     1      -0.918  -2.266   9.222  0.00  0.00    +0.002 A 
ATOM     32  C   UNL     1      -1.313  -1.275   8.345  0.00  0.00    +0.025 A 
ENDBRANCH  26  27
BRANCH  26  33
ATOM     33  C   UNL     1      -2.913   0.190   6.332  0.00  0.00    +0.053 A 
ATOM     34  C   UNL     1      -3.037   1.498   5.879  0.00  0.00    +0.025 A 
ATOM     35  C   UNL     1      -4.201   2.202   6.119  0.00  0.00    +0.002 A 
ATOM     36  C   UNL     1      -5.241   1.607   6.809  0.00  0.00    +0.000 A 
ATOM     37  C   UNL     1      -5.121   0.306   7.261  0.00  0.00    +0.002 A 
ATOM     38  C   UNL     1      -3.962  -0.406   7.020  0.00  0.00    +0.025 A 
ENDBRANCH  26  33
ENDBRANCH  24  26
ENDBRANCH   4  24
TORSDOF 7
