REMARK  Name = ZINC37000961
REMARK  12 active torsions:
REMARK  status: ('A' for Active; 'I' for Inactive)
REMARK    1  A    between atoms: C_1  and  C_2
REMARK    2  A    between atoms: C_2  and  C_3
REMARK    3  A    between atoms: C_6  and  C_9
REMARK    4  A    between atoms: C_15  and  C_32
REMARK    5  A    between atoms: C_15  and  C_33
REMARK    6  A    between atoms: N_16  and  C_19
REMARK    7  A    between atoms: C_19  and  C_20
REMARK    8  A    between atoms: C_20  and  C_21
REMARK    9  A    between atoms: C_21  and  N_22
REMARK   10  A    between atoms: C_24  and  C_31
REMARK   11  A    between atoms: C_27  and  C_30
REMARK   12  A    between atoms: N_35  and  C_36
REMARK                            x       y       z     vdW  Elec       q    Type
REMARK                         _______ _______ _______ _____ _____    ______ ____
ROOT
ATOM      1  C   UNL     1       2.698  -1.862  -4.737  0.00  0.00    +0.093 A 
ATOM      2  C   UNL     1       4.078  -2.131  -4.859  0.00  0.00    +0.062 A 
ATOM      3  C   UNL     1       4.247  -2.529  -6.152  0.00  0.00    +0.124 A 
ATOM      4  N   UNL     1       3.004  -2.517  -6.748  0.00  0.00    -0.256 N 
ATOM      5  N   UNL     1       2.135  -2.119  -5.903  0.00  0.00    -0.170 NA
ATOM      6  C   UNL     1       2.828  -2.938  -8.144  0.00  0.00    +0.179 C 
ATOM      7  C   UNL     1       4.103  -2.629  -8.928  0.00  0.00    +0.130 C 
ATOM      8  N   UNL     1       5.307  -3.078  -8.237  0.00  0.00    -0.281 N 
ATOM      9  C   UNL     1       5.448  -2.940  -6.897  0.00  0.00    +0.266 C 
ATOM     10  O   UNL     1       6.510  -3.146  -6.340  0.00  0.00    -0.268 OA
ATOM     11  C   UNL     1       4.026  -3.322 -10.290  0.00  0.00    +0.044 C 
ENDROOT
BRANCH   1  15
ATOM     12  C   UNL     1       0.707  -0.490  -1.238  0.00  0.00    -0.048 A 
ATOM     13  C   UNL     1      -0.013  -0.718  -2.396  0.00  0.00    +0.004 A 
ATOM     14  C   UNL     1       0.628  -1.163  -3.535  0.00  0.00    +0.010 A 
ATOM     15  C   UNL     1       2.003  -1.383  -3.515  0.00  0.00    +0.002 A 
ATOM     16  C   UNL     1       2.724  -1.152  -2.346  0.00  0.00    +0.010 A 
ATOM     17  C   UNL     1       2.074  -0.701  -1.215  0.00  0.00    +0.004 A 
BRANCH  12  19
ATOM     18  C   UNL     1      -0.019   1.526   0.010  0.00  0.00    +0.009 C 
ATOM     19  C   UNL     1       0.002  -0.004   0.002  0.00  0.00    +0.032 C 
ENDBRANCH  12  19
ENDBRANCH   1  15
BRANCH   7  20
ATOM     20  C   UNL     1       4.192  -1.141  -9.146  0.00  0.00    +0.238 C 
ATOM     21  O   UNL     1       3.779  -0.653 -10.176  0.00  0.00    -0.273 OA
ATOM     22  N   UNL     1       4.731  -0.352  -8.195  0.00  0.00    -0.311 N 
ATOM     23  H   UNL     1       5.062  -0.742  -7.371  0.00  0.00    +0.149 HD
BRANCH  22  24
ATOM     24  C   UNL     1       4.818   1.095  -8.407  0.00  0.00    +0.073 C 
ATOM     25  C   UNL     1       6.066   1.401  -9.260  0.00  0.00    +0.022 C 
ATOM     26  C   UNL     1       5.890   2.753  -9.897  0.00  0.00    +0.002 C 
ATOM     27  C   UNL     1       6.532   3.882  -9.069  0.00  0.00    +0.000 C 
ATOM     28  C   UNL     1       6.287   3.727  -7.555  0.00  0.00    +0.000 C 
ATOM     29  C   UNL     1       4.880   3.296  -7.241  0.00  0.00    +0.002 C 
ATOM     30  C   UNL     1       4.855   1.760  -7.112  0.00  0.00    +0.022 C 
ENDBRANCH  22  24
ENDBRANCH   7  20
BRANCH   8  31
ATOM     31  C   UNL     1       6.388  -3.693  -9.011  0.00  0.00    +0.107 C 
BRANCH  31  32
ATOM     32  C   UNL     1       7.362  -2.609  -9.478  0.00  0.00    +0.000 C 
BRANCH  32  33
ATOM     33  C   UNL     1       8.491  -3.251 -10.286  0.00  0.00    -0.077 C 
BRANCH  33  34
ATOM     34  N   UNL     1       9.426  -2.209 -10.734  0.00  0.00    +0.380 N 
ATOM     35  C   UNL     1       8.739  -1.304 -11.663  0.00  0.00    -0.076 C 
ATOM     36  C   UNL     1       9.684  -0.171 -12.069  0.00  0.00    -0.031 C 
ATOM     37  C   UNL     1      10.919  -0.764 -12.753  0.00  0.00    +0.003 C 
ATOM     38  C   UNL     1      11.585  -1.764 -11.803  0.00  0.00    -0.031 C 
ATOM     39  C   UNL     1      10.570  -2.837 -11.406  0.00  0.00    -0.076 C 
ATOM     40  C   UNL     1      12.776  -2.420 -12.505  0.00  0.00    +0.005 C 
ATOM     41  C   UNL     1      10.113   0.608 -10.824  0.00  0.00    +0.005 C 
ATOM     42  H   UNL     1       9.752  -1.686  -9.936  0.00  0.00    -0.082 HD
ENDBRANCH  33  34
ENDBRANCH  32  33
ENDBRANCH  31  32
ENDBRANCH   8  31
TORSDOF 8
