REMARK  Name = ZINC49192993
REMARK  11 active torsions:
REMARK  status: ('A' for Active; 'I' for Inactive)
REMARK    1  A    between atoms: C_1  and  C_2
REMARK    2  A    between atoms: C_2  and  C_3
REMARK    3  A    between atoms: C_2  and  C_4
REMARK    4  A    between atoms: C_4  and  C_6
REMARK    5  A    between atoms: C_4  and  N_10
REMARK    6  A    between atoms: C_6  and  N_7
REMARK    7  A    between atoms: N_7  and  C_8
REMARK    8  A    between atoms: N_7  and  C_9
REMARK    9  A    between atoms: N_10  and  S_11
REMARK   10  A    between atoms: S_11  and  C_14
REMARK   11  A    between atoms: C_15  and  N_22
REMARK                            x       y       z     vdW  Elec       q    Type
REMARK                         _______ _______ _______ _____ _____    ______ ____
ROOT
ATOM      1  S   UNL     1      -1.010  -2.308   3.521  0.00  0.00    +0.061 S 
ATOM      2  O   UNL     1      -0.824  -3.566   4.154  0.00  0.00    -0.153 OA
ATOM      3  O   UNL     1      -0.119  -1.218   3.716  0.00  0.00    -0.153 OA
ENDROOT
BRANCH   1   4
ATOM      4  C   UNL     1      -2.611  -1.740   3.989  0.00  0.00    +0.140 A 
ATOM      5  C   UNL     1      -2.880  -0.378   4.035  0.00  0.00    +0.053 A 
ATOM      6  C   UNL     1      -4.143   0.066   4.404  0.00  0.00    +0.040 A 
ATOM      7  C   UNL     1      -5.129  -0.849   4.724  0.00  0.00    +0.021 A 
ATOM      8  C   UNL     1      -4.858  -2.205   4.678  0.00  0.00    +0.032 A 
ATOM      9  C   UNL     1      -3.602  -2.650   4.305  0.00  0.00    +0.047 A 
ATOM     10 BR   UNL     1      -3.239  -4.504   4.235  0.00  0.00    -0.048 Br
ATOM     11 BR   UNL     1      -6.849  -0.246   5.226  0.00  0.00    -0.050 Br
BRANCH   5  12
ATOM     12  N   UNL     1      -1.881   0.543   3.711  0.00  0.00    -0.356 N 
ATOM     13  H   UNL     1      -1.176   0.297   3.092  0.00  0.00    +0.142 HD
ATOM     14  H   UNL     1      -1.893   1.429   4.106  0.00  0.00    +0.142 HD
ENDBRANCH   5  12
ENDBRANCH   1   4
BRANCH   1  15
ATOM     15  N   UNL     1      -1.051  -2.599   1.891  0.00  0.00    -0.188 NA
ATOM     16  H   UNL     1      -0.936  -3.503   1.557  0.00  0.00    +0.148 HD
BRANCH  15  17
ATOM     17  C   UNL     1      -1.259  -1.493   0.954  0.00  0.00    +0.063 C 
BRANCH  17  19
ATOM     18  C   UNL     1      -0.124   0.124  -0.577  0.00  0.00    +0.009 C 
ATOM     19  C   UNL     1       0.083  -1.078   0.348  0.00  0.00    -0.000 C 
ATOM     20  C   UNL     1       1.053  -0.698   1.468  0.00  0.00    +0.009 C 
ENDBRANCH  17  19
BRANCH  17  21
ATOM     21  C   UNL     1      -2.206  -1.940  -0.161  0.00  0.00    -0.059 C 
BRANCH  21  22
ATOM     22  N   UNL     1      -3.464  -2.418   0.427  0.00  0.00    +0.377 N 
ATOM     23  C   UNL     1      -4.163  -1.296   1.067  0.00  0.00    -0.097 C 
ATOM     24  C   UNL     1      -4.314  -2.986  -0.628  0.00  0.00    -0.097 C 
ATOM     25  H   UNL     1      -3.265  -3.127   1.116  0.00  0.00    -0.083 HD
ENDBRANCH  21  22
ENDBRANCH  17  21
ENDBRANCH  15  17
ENDBRANCH   1  15
TORSDOF 7
