REMARK  Name = ZINC04176425
REMARK  9 active torsions:
REMARK  status: ('A' for Active; 'I' for Inactive)
REMARK    1  A    between atoms: C_1  and  C_2
REMARK    2  A    between atoms: C_3  and  N_26
REMARK    3  A    between atoms: C_4  and  C_25
REMARK    4  A    between atoms: N_5  and  C_7
REMARK    5  A    between atoms: C_7  and  C_8
REMARK    6  A    between atoms: C_8  and  C_9
REMARK    7  A    between atoms: C_9  and  C_10
REMARK    8  A    between atoms: N_12  and  C_13
REMARK    9  A    between atoms: C_14  and  C_22
REMARK                            x       y       z     vdW  Elec       q    Type
REMARK                         _______ _______ _______ _____ _____    ______ ____
ROOT
ATOM      1  C   UNL     1       1.141   2.072   0.002  0.00  0.00    +0.218 C 
ATOM      2  O   UNL     1       2.200   1.480  -0.011  0.00  0.00    -0.275 OA
ATOM      3  N   UNL     1      -0.017   1.382   0.010  0.00  0.00    -0.279 N 
ATOM      4  H   UNL     1      -0.863   1.856   0.016  0.00  0.00    +0.155 HD
ENDROOT
BRANCH   3   5
ATOM      5  C   UNL     1       0.002  -0.004   0.002  0.00  0.00    +0.084 A 
ATOM      6  C   UNL     1      -1.073  -0.881   0.013  0.00  0.00    +0.068 A 
ATOM      7  C   UNL     1      -0.780  -2.304  -0.003  0.00  0.00    -0.023 A 
ATOM      8  C   UNL     1       0.533  -2.620  -0.016  0.00  0.00    -0.004 A 
ATOM      9  S   UNL     1       1.374  -1.062  -0.016  0.00  0.00    -0.077 S 
ATOM     10  C   UNL     1       1.132  -3.993  -0.028  0.00  0.00    +0.043 C 
ATOM     11  C   UNL     1       0.038  -5.000   0.356  0.00  0.00    +0.005 C 
ATOM     12  C   UNL     1      -1.218  -4.703  -0.467  0.00  0.00    +0.005 C 
ATOM     13  C   UNL     1      -1.848  -3.390   0.002  0.00  0.00    +0.037 C 
BRANCH   6  14
ATOM     14  C   UNL     1      -2.455  -0.390   0.036  0.00  0.00    +0.244 C 
ATOM     15  O   UNL     1      -3.044  -0.181  -1.008  0.00  0.00    -0.270 OA
ATOM     16  N   UNL     1      -3.072  -0.170   1.214  0.00  0.00    -0.325 N 
ATOM     17  H   UNL     1      -2.603  -0.337   2.046  0.00  0.00    +0.145 HD
ATOM     18  H   UNL     1      -3.986   0.155   1.229  0.00  0.00    +0.145 HD
ENDBRANCH   6  14
ENDBRANCH   3   5
BRANCH   1  19
ATOM     19  C   UNL     1       1.121   3.579   0.011  0.00  0.00    +0.098 C 
BRANCH  19  20
ATOM     20  C   UNL     1       2.556   4.109  -0.000  0.00  0.00    +0.032 C 
BRANCH  20  21
ATOM     21  C   UNL     1       2.535   5.638   0.008  0.00  0.00    +0.144 C 
BRANCH  21  26
ATOM     22  C   UNL     1       7.006   7.275   1.598  0.00  0.00    +0.070 C 
ATOM     23  C   UNL     1       5.858   6.859   0.715  0.00  0.00    +0.090 A 
ATOM     24  C   UNL     1       5.853   6.869  -0.683  0.00  0.00    +0.169 A 
ATOM     25  C   UNL     1       4.644   6.426  -1.099  0.00  0.00    +0.067 A 
ATOM     26  N   UNL     1       3.910   6.145  -0.002  0.00  0.00    -0.266 N 
ATOM     27  N   UNL     1       4.692   6.430   1.125  0.00  0.00    -0.174 NA
ATOM     28  C   UNL     1       4.198   6.273  -2.530  0.00  0.00    +0.067 C 
BRANCH  24  29
ATOM     29  N   UNL     1       6.973   7.290  -1.555  0.00  0.00    +0.060 N 
ATOM     30  O   UNL     1       7.068   8.453  -1.905  0.00  0.00    -0.126 OA
ATOM     31  O   UNL     1       7.799   6.474  -1.923  0.00  0.00    -0.126 OA
ENDBRANCH  24  29
ENDBRANCH  21  26
ENDBRANCH  20  21
ENDBRANCH  19  20
ENDBRANCH   1  19
TORSDOF 7
