REMARK  Name = ZINC20102808
REMARK  7 active torsions:
REMARK  status: ('A' for Active; 'I' for Inactive)
REMARK    1  A    between atoms: C_1  and  N_2
REMARK    2  A    between atoms: C_13  and  C_16
REMARK    3  A    between atoms: C_19  and  O_24
REMARK    4  A    between atoms: C_20  and  O_22
REMARK    5  A    between atoms: O_22  and  C_23
REMARK    6  A    between atoms: O_24  and  C_25
REMARK    7  A    between atoms: C_25  and  C_27
REMARK                            x       y       z     vdW  Elec       q    Type
REMARK                         _______ _______ _______ _____ _____    ______ ____
ROOT
ATOM      1  C   UNL     1       1.224  -2.068  -0.016  0.00  0.00    -0.006 A 
ATOM      2  C   UNL     1       0.039  -2.780  -0.037  0.00  0.00    +0.011 A 
ATOM      3  C   UNL     1      -1.172  -2.114  -0.024  0.00  0.00    +0.050 A 
ATOM      4  C   UNL     1      -1.200  -0.729   0.015  0.00  0.00    +0.173 A 
ATOM      5  C   UNL     1      -0.007  -0.012   0.030  0.00  0.00    +0.163 A 
ATOM      6  C   UNL     1       1.203  -0.687   0.017  0.00  0.00    +0.056 A 
ENDROOT
BRANCH   1  19
ATOM      7  C   UNL     1       2.985  -4.345   8.299  0.00  0.00    -0.096 C 
ATOM      8  N   UNL     1       3.214  -4.106   6.867  0.00  0.00    +0.381 N 
ATOM      9  C   UNL     1       3.151  -2.671   6.557  0.00  0.00    -0.074 C 
ATOM     10  C   UNL     1       3.752  -2.405   5.174  0.00  0.00    +0.018 C 
ATOM     11  C   UNL     1       3.087  -3.347   4.176  0.00  0.00    -0.027 A 
ATOM     12  C   UNL     1       2.421  -4.439   4.619  0.00  0.00    -0.021 A 
ATOM     13  S   UNL     1       1.818  -5.231   3.153  0.00  0.00    -0.080 S 
ATOM     14  C   UNL     1       2.438  -4.141   1.986  0.00  0.00    +0.080 A 
ATOM     15  C   UNL     1       3.107  -3.162   2.736  0.00  0.00    +0.068 A 
ATOM     16  C   UNL     1       3.753  -2.054   1.995  0.00  0.00    +0.248 C 
ATOM     17  O   UNL     1       4.446  -1.230   2.563  0.00  0.00    -0.270 OA
ATOM     18  N   UNL     1       3.542  -1.997   0.664  0.00  0.00    -0.289 N 
ATOM     19  C   UNL     1       2.541  -2.801  -0.030  0.00  0.00    +0.190 C 
ATOM     20  N   UNL     1       2.370  -4.115   0.617  0.00  0.00    -0.316 N 
ATOM     21  C   UNL     1       2.250  -4.860   6.044  0.00  0.00    -0.036 C 
ATOM     22  H   UNL     1       4.174  -1.296   0.099  0.00  0.00    +0.151 HD
ATOM     23  H   UNL     1       2.197  -5.011   0.003  0.00  0.00    +0.149 HD
ATOM     24  H   UNL     1       4.227  -4.461   6.628  0.00  0.00    -0.082 HD
ENDBRANCH   1  19
BRANCH   5  25
ATOM     25  O   UNL     1      -0.029   1.347   0.063  0.00  0.00    -0.491 OA
ATOM     26  C   UNL     1       1.233   2.016   0.083  0.00  0.00    +0.277 C 
ENDBRANCH   5  25
BRANCH   4  27
ATOM     27  O   UNL     1      -2.390  -0.071   0.034  0.00  0.00    -0.419 OA
BRANCH  27  28
ATOM     28  C   UNL     1      -2.829   0.433  -1.136  0.00  0.00    +0.345 C 
ATOM     29  O   UNL     1      -2.216   0.211  -2.162  0.00  0.00    -0.245 OA
BRANCH  28  30
ATOM     30  C   UNL     1      -4.052   1.254  -1.172  0.00  0.00    +0.067 A 
ATOM     31  C   UNL     1      -4.697   1.618   0.004  0.00  0.00    +0.015 A 
ATOM     32  C   UNL     1      -5.846   2.395  -0.033  0.00  0.00    +0.001 A 
ATOM     33  C   UNL     1      -6.389   2.820  -1.207  0.00  0.00    +0.008 A 
ATOM     34  C   UNL     1      -5.793   2.486  -2.434  0.00  0.00    -0.017 A 
ATOM     35  C   UNL     1      -4.615   1.698  -2.445  0.00  0.00    -0.004 A 
ATOM     36  C   UNL     1      -4.019   1.362  -3.666  0.00  0.00    +0.009 A 
ATOM     37  C   UNL     1      -4.577   1.797  -4.831  0.00  0.00    +0.001 A 
ATOM     38  C   UNL     1      -5.735   2.572  -4.824  0.00  0.00    +0.001 A 
ATOM     39  C   UNL     1      -6.341   2.917  -3.655  0.00  0.00    +0.008 A 
ENDBRANCH  28  30
ENDBRANCH  27  28
ENDBRANCH   4  27
TORSDOF 5
