REMARK  Name = ZINC38546951
REMARK  6 active torsions:
REMARK  status: ('A' for Active; 'I' for Inactive)
REMARK    1  A    between atoms: C_1  and  C_2
REMARK    2  A    between atoms: C_4  and  C_15
REMARK    3  A    between atoms: C_5  and  N_7
REMARK    4  A    between atoms: C_8  and  C_10
REMARK    5  A    between atoms: C_15  and  C_17
REMARK    6  A    between atoms: C_15  and  N_24
REMARK                            x       y       z     vdW  Elec       q    Type
REMARK                         _______ _______ _______ _____ _____    ______ ____
ROOT
ATOM      1  C   UNL     1      -1.966  -3.245  -0.002  0.00  0.00    +0.136 C 
ENDROOT
BRANCH   1   2
ATOM      2  N   UNL     1      -3.152  -2.522   0.462  0.00  0.00    -0.320 N 
ATOM      3  C   UNL     1      -4.268  -3.225   0.900  0.00  0.00    +0.097 A 
ATOM      4  C   UNL     1      -4.249  -4.617   0.902  0.00  0.00    +0.041 A 
ATOM      5  C   UNL     1      -5.366  -5.304   1.341  0.00  0.00    +0.005 A 
ATOM      6  C   UNL     1      -6.469  -4.574   1.765  0.00  0.00    +0.018 A 
ATOM      7  C   UNL     1      -6.419  -3.195   1.736  0.00  0.00    +0.084 A 
ATOM      8  N   UNL     1      -5.338  -2.566   1.317  0.00  0.00    -0.350 N 
ATOM      9  H   UNL     1      -3.160  -1.552   0.462  0.00  0.00    +0.148 HD
ATOM     10  H   UNL     1      -5.327  -1.596   1.311  0.00  0.00    +0.166 HD
ENDBRANCH   1   2
BRANCH   1  11
ATOM     11  C   UNL     1      -2.170  -3.684  -1.429  0.00  0.00    -0.004 A 
ATOM     12  C   UNL     1      -3.042  -2.990  -2.247  0.00  0.00    +0.007 A 
ATOM     13  C   UNL     1      -3.229  -3.392  -3.556  0.00  0.00    +0.000 A 
ATOM     14  C   UNL     1      -2.545  -4.488  -4.048  0.00  0.00    +0.001 A 
ATOM     15  C   UNL     1      -1.673  -5.182  -3.231  0.00  0.00    +0.020 A 
ATOM     16  C   UNL     1      -1.480  -4.777  -1.922  0.00  0.00    +0.046 A 
ATOM     17 CL   UNL     1      -0.380  -5.644  -0.897  0.00  0.00    -0.083 Cl
ENDBRANCH   1  11
BRANCH   1  21
ATOM     18  C   UNL     1       1.582  -0.212  -2.038  0.00  0.00    +0.051 C 
ATOM     19  C   UNL     1       0.840  -0.952  -0.955  0.00  0.00    -0.011 A 
ATOM     20  C   UNL     1      -0.241  -1.760  -1.062  0.00  0.00    +0.018 A 
ATOM     21  C   UNL     1      -0.763  -2.341   0.079  0.00  0.00    +0.006 A 
ATOM     22  C   UNL     1      -0.170  -2.080   1.278  0.00  0.00    +0.078 A 
ATOM     23  S   UNL     1       1.165  -0.995   0.800  0.00  0.00    -0.078 S 
BRANCH  22  24
ATOM     24  N   UNL     1      -0.513  -2.546   2.549  0.00  0.00    -0.273 N 
ATOM     25  C   UNL     1       0.138  -2.083   3.634  0.00  0.00    +0.284 C 
ATOM     26  O   UNL     1       1.025  -1.260   3.507  0.00  0.00    -0.266 OA
ATOM     27  H   UNL     1      -1.220  -3.202   2.650  0.00  0.00    +0.156 HD
BRANCH  25  28
ATOM     28  C   UNL     1      -0.223  -2.572   4.969  0.00  0.00    +0.189 A 
ATOM     29  C   UNL     1       0.350  -2.185   6.147  0.00  0.00    +0.054 A 
ATOM     30  C   UNL     1      -0.299  -2.901   7.165  0.00  0.00    +0.042 A 
ATOM     31  C   UNL     1      -1.228  -3.683   6.572  0.00  0.00    +0.196 A 
ATOM     32  O   UNL     1      -1.182  -3.479   5.248  0.00  0.00    -0.458 OA
ENDBRANCH  25  28
ENDBRANCH  22  24
ENDBRANCH   1  21
TORSDOF 5
