REMARK  Name = ZINC09183435
REMARK  9 active torsions:
REMARK  status: ('A' for Active; 'I' for Inactive)
REMARK    1  A    between atoms: C_1  and  C_2
REMARK    2  A    between atoms: C_2  and  C_16
REMARK    3  A    between atoms: N_3  and  O_4
REMARK    4  A    between atoms: O_4  and  C_5
REMARK    5  A    between atoms: N_7  and  C_8
REMARK    6  A    between atoms: C_16  and  C_17
REMARK    7  A    between atoms: C_16  and  C_18
REMARK    8  A    between atoms: C_16  and  N_19
REMARK    9  A    between atoms: N_22  and  C_23
REMARK                            x       y       z     vdW  Elec       q    Type
REMARK                         _______ _______ _______ _____ _____    ______ ____
ROOT
ATOM      1  C   UNL     1       8.985   0.368  -0.875  0.00  0.00    +0.066 C 
ATOM      2  C   UNL     1       7.833  -0.602  -0.857  0.00  0.00    +0.078 C 
ATOM      3  N   UNL     1       6.632  -0.171  -0.953  0.00  0.00    -0.080 NA
ENDROOT
BRANCH   2   4
ATOM      4  C   UNL     1       8.095  -2.080  -0.727  0.00  0.00    +0.071 C 
ATOM      5  C   UNL     1       8.684  -2.374   0.654  0.00  0.00    +0.038 C 
ATOM      6  C   UNL     1       6.781  -2.848  -0.894  0.00  0.00    +0.038 C 
BRANCH   4   7
ATOM      7  N   UNL     1       9.042  -2.502  -1.762  0.00  0.00    -0.289 N 
ATOM      8  C   UNL     1       9.426  -3.792  -1.839  0.00  0.00    +0.305 C 
ATOM      9  O   UNL     1       8.986  -4.605  -1.049  0.00  0.00    -0.252 OA
ATOM     10  N   UNL     1      10.297  -4.179  -2.791  0.00  0.00    -0.269 N 
ATOM     11  H   UNL     1       9.392  -1.853  -2.392  0.00  0.00    +0.151 HD
ATOM     12  H   UNL     1      10.705  -3.519  -3.373  0.00  0.00    +0.156 HD
BRANCH  10  13
ATOM     13  C   UNL     1      10.614  -5.535  -2.940  0.00  0.00    +0.035 A 
ATOM     14  C   UNL     1      11.879  -5.910  -3.372  0.00  0.00    +0.025 A 
ATOM     15  C   UNL     1      12.190  -7.248  -3.513  0.00  0.00    +0.022 A 
ATOM     16  C   UNL     1      11.240  -8.214  -3.235  0.00  0.00    +0.041 A 
ATOM     17  C   UNL     1       9.976  -7.843  -2.809  0.00  0.00    +0.022 A 
ATOM     18  C   UNL     1       9.661  -6.506  -2.661  0.00  0.00    +0.025 A 
ATOM     19 CL   UNL     1      11.633  -9.895  -3.418  0.00  0.00    -0.084 Cl
ENDBRANCH  10  13
ENDBRANCH   4   7
ENDBRANCH   2   4
BRANCH   3  20
ATOM     20  O   UNL     1       5.696  -0.934  -0.790  0.00  0.00    -0.299 OA
BRANCH  20  21
ATOM     21  C   UNL     1       4.458  -0.416  -0.905  0.00  0.00    +0.430 C 
ATOM     22  O   UNL     1       4.314   0.763  -1.160  0.00  0.00    -0.224 OA
ATOM     23  N   UNL     1       3.379  -1.206  -0.736  0.00  0.00    -0.249 N 
ATOM     24  H   UNL     1       3.493  -2.131  -0.467  0.00  0.00    +0.158 HD
BRANCH  23  25
ATOM     25  C   UNL     1       2.095  -0.692  -0.951  0.00  0.00    +0.038 A 
ATOM     26  C   UNL     1       1.872   0.216  -1.978  0.00  0.00    +0.025 A 
ATOM     27  C   UNL     1       0.604   0.722  -2.188  0.00  0.00    +0.023 A 
ATOM     28  C   UNL     1      -0.444   0.325  -1.377  0.00  0.00    +0.059 A 
ATOM     29  C   UNL     1      -0.225  -0.580  -0.352  0.00  0.00    +0.061 A 
ATOM     30  C   UNL     1       1.042  -1.090  -0.138  0.00  0.00    +0.044 A 
ATOM     31 CL   UNL     1      -1.542  -1.076   0.664  0.00  0.00    -0.082 Cl
ATOM     32 CL   UNL     1      -2.035   0.969  -1.639  0.00  0.00    -0.082 Cl
ENDBRANCH  23  25
ENDBRANCH  20  21
ENDBRANCH   3  20
TORSDOF 6
