REMARK  Name = ZINC36562480
REMARK  16 active torsions:
REMARK  status: ('A' for Active; 'I' for Inactive)
REMARK    1  A    between atoms: C_1  and  C_2
REMARK    2  A    between atoms: C_2  and  C_3
REMARK    3  A    between atoms: C_3  and  C_4
REMARK    4  A    between atoms: C_4  and  N_5
REMARK    5  A    between atoms: C_6  and  C_8
REMARK    6  A    between atoms: C_8  and  C_10
REMARK    7  A    between atoms: C_8  and  N_19
REMARK    8  A    between atoms: C_11  and  O_18
REMARK    9  A    between atoms: C_13  and  O_17
REMARK   10  A    between atoms: C_15  and  O_16
REMARK   11  A    between atoms: N_19  and  C_20
REMARK   12  A    between atoms: C_20  and  C_21
REMARK   13  A    between atoms: C_21  and  C_22
REMARK   14  A    between atoms: C_23  and  C_25
REMARK   15  A    between atoms: C_25  and  C_26
REMARK   16  A    between atoms: C_26  and  C_27
REMARK                            x       y       z     vdW  Elec       q    Type
REMARK                         _______ _______ _______ _____ _____    ______ ____
ROOT
ATOM      1  C   UNL     1      -4.599  -4.215   0.043  0.00  0.00    +0.199 C 
ENDROOT
BRANCH   1   2
ATOM      2  C   UNL     1      -5.156  -3.580   1.291  0.00  0.00    +0.065 A 
ATOM      3  C   UNL     1      -4.490  -2.519   1.886  0.00  0.00    +0.129 A 
ATOM      4  C   UNL     1      -5.003  -1.935   3.035  0.00  0.00    +0.091 A 
ATOM      5  C   UNL     1      -6.181  -2.412   3.588  0.00  0.00    +0.124 A 
ATOM      6  C   UNL     1      -6.848  -3.472   2.993  0.00  0.00    +0.091 A 
ATOM      7  C   UNL     1      -6.338  -4.053   1.842  0.00  0.00    +0.129 A 
BRANCH   7   8
ATOM      8  O   UNL     1      -6.993  -5.089   1.256  0.00  0.00    -0.506 OA
ATOM      9  H   UNL     1      -6.785  -5.953   1.638  0.00  0.00    +0.292 HD
ENDBRANCH   7   8
BRANCH   5  10
ATOM     10  O   UNL     1      -6.683  -1.840   4.715  0.00  0.00    -0.507 OA
ATOM     11  H   UNL     1      -7.290  -1.106   4.546  0.00  0.00    +0.292 HD
ENDBRANCH   5  10
BRANCH   3  12
ATOM     12  O   UNL     1      -3.335  -2.052   1.344  0.00  0.00    -0.506 OA
ATOM     13  H   UNL     1      -3.462  -1.351   0.691  0.00  0.00    +0.292 HD
ENDBRANCH   3  12
ENDBRANCH   1   2
BRANCH   1  15
ATOM     14  N   UNL     1      -3.084  -2.487  -0.874  0.00  0.00    -0.313 N 
ATOM     15  C   UNL     1      -3.223  -3.663  -0.230  0.00  0.00    +0.238 C 
ATOM     16  O   UNL     1      -2.241  -4.277   0.130  0.00  0.00    -0.273 OA
ATOM     17  H   UNL     1      -3.867  -2.019  -1.204  0.00  0.00    +0.149 HD
BRANCH  14  18
ATOM     18  C   UNL     1      -1.750  -1.916  -1.075  0.00  0.00    +0.104 C 
BRANCH  18  19
ATOM     19  C   UNL     1      -1.872  -0.589  -1.827  0.00  0.00    +0.018 C 
BRANCH  19  21
ATOM     20  C   UNL     1      -0.601   1.335  -2.789  0.00  0.00    +0.004 C 
ATOM     21  C   UNL     1      -0.479   0.008  -2.037  0.00  0.00    -0.002 C 
ENDBRANCH  19  21
ENDBRANCH  18  19
ENDBRANCH  14  18
ENDBRANCH   1  15
BRANCH   1  22
ATOM     22  N   UNL     1      -4.516  -5.665   0.229  0.00  0.00    -0.286 N 
ATOM     23  C   UNL     1      -5.200  -6.490  -0.589  0.00  0.00    +0.216 C 
ATOM     24  O   UNL     1      -5.885  -6.030  -1.479  0.00  0.00    -0.276 OA
BRANCH  22  25
ATOM     25  C   UNL     1      -3.688  -6.220   1.303  0.00  0.00    +0.108 C 
BRANCH  25  26
ATOM     26  C   UNL     1      -4.562  -6.499   2.527  0.00  0.00    +0.016 C 
ATOM     27  C   UNL     1      -3.683  -6.986   3.681  0.00  0.00    +0.005 C 
ENDBRANCH  25  26
ENDBRANCH  22  25
BRANCH  23  28
ATOM     28  C   UNL     1      -5.114  -7.982  -0.399  0.00  0.00    +0.096 C 
BRANCH  28  29
ATOM     29  C   UNL     1      -5.978  -8.681  -1.450  0.00  0.00    +0.013 C 
BRANCH  29  30
ATOM     30  C   UNL     1      -5.891 -10.196  -1.257  0.00  0.00    -0.011 C 
ATOM     31  C   UNL     1      -4.461 -10.664  -1.532  0.00  0.00    +0.003 C 
ATOM     32  C   UNL     1      -4.374 -12.179  -1.339  0.00  0.00    +0.000 C 
ATOM     33  C   UNL     1      -5.333 -12.873  -2.308  0.00  0.00    +0.000 C 
ATOM     34  C   UNL     1      -6.763 -12.405  -2.033  0.00  0.00    +0.000 C 
ATOM     35  C   UNL     1      -6.850 -10.890  -2.226  0.00  0.00    +0.003 C 
ENDBRANCH  29  30
ENDBRANCH  28  29
ENDBRANCH  23  28
ENDBRANCH   1  22
TORSDOF 14
