REMARK  Name = ZINC01789539
REMARK  11 active torsions:
REMARK  status: ('A' for Active; 'I' for Inactive)
REMARK    1  A    between atoms: C_1  and  C_2
REMARK    2  A    between atoms: C_2  and  O_3
REMARK    3  A    between atoms: O_3  and  C_4
REMARK    4  A    between atoms: C_7  and  N_10
REMARK    5  A    between atoms: C_11  and  C_30
REMARK    6  A    between atoms: C_14  and  S_15
REMARK    7  A    between atoms: S_15  and  C_16
REMARK    8  A    between atoms: C_16  and  C_17
REMARK    9  A    between atoms: N_19  and  N_20
REMARK   10  A    between atoms: N_20  and  C_21
REMARK   11  A    between atoms: C_21  and  C_23
REMARK                            x       y       z     vdW  Elec       q    Type
REMARK                         _______ _______ _______ _____ _____    ______ ____
ROOT
ATOM      1  N   UNL     1      -1.634  -6.316  -0.353  0.00  0.00    -0.270 N 
ATOM      2  C   UNL     1      -2.381  -7.085  -1.218  0.00  0.00    +0.169 A 
ATOM      3  N   UNL     1      -2.443  -8.292  -0.705  0.00  0.00    -0.128 NA
ATOM      4  N   UNL     1      -1.796  -8.331   0.405  0.00  0.00    -0.122 NA
ATOM      5  C   UNL     1      -1.275  -7.153   0.667  0.00  0.00    +0.197 A 
ENDROOT
BRANCH   2   6
ATOM      6  C   UNL     1      -2.998  -6.636  -2.484  0.00  0.00    +0.020 A 
ATOM      7  C   UNL     1      -2.569  -5.456  -3.093  0.00  0.00    +0.013 A 
ATOM      8  C   UNL     1      -3.148  -5.042  -4.275  0.00  0.00    +0.021 A 
ATOM      9  C   UNL     1      -4.153  -5.796  -4.857  0.00  0.00    +0.041 A 
ATOM     10  C   UNL     1      -4.584  -6.967  -4.258  0.00  0.00    +0.021 A 
ATOM     11  C   UNL     1      -4.009  -7.394  -3.079  0.00  0.00    +0.013 A 
ATOM     12 CL   UNL     1      -4.878  -5.269  -6.344  0.00  0.00    -0.084 Cl
ENDBRANCH   2   6
BRANCH   1  16
ATOM     13  C   UNL     1      -0.656  -2.282  -0.770  0.00  0.00    +0.121 A 
ATOM     14  C   UNL     1       0.334  -3.249  -0.869  0.00  0.00    +0.047 A 
ATOM     15  C   UNL     1       0.010  -4.584  -0.731  0.00  0.00    +0.030 A 
ATOM     16  C   UNL     1      -1.305  -4.959  -0.493  0.00  0.00    +0.051 A 
ATOM     17  C   UNL     1      -2.295  -3.990  -0.394  0.00  0.00    +0.030 A 
ATOM     18  C   UNL     1      -1.970  -2.655  -0.527  0.00  0.00    +0.047 A 
BRANCH  13  19
ATOM     19  O   UNL     1      -0.337  -0.967  -0.905  0.00  0.00    -0.492 OA
BRANCH  19  21
ATOM     20  C   UNL     1       1.198   0.862  -1.277  0.00  0.00    +0.048 C 
ATOM     21  C   UNL     1       1.035  -0.654  -1.155  0.00  0.00    +0.225 C 
ENDBRANCH  19  21
ENDBRANCH  13  19
ENDBRANCH   1  16
BRANCH   5  22
ATOM     22  S   UNL     1      -0.299  -6.730   2.072  0.00  0.00    -0.076 S 
BRANCH  22  23
ATOM     23  C   UNL     1      -0.200  -8.274   3.018  0.00  0.00    +0.174 C 
BRANCH  23  24
ATOM     24  C   UNL     1       0.618  -8.049   4.263  0.00  0.00    +0.239 C 
ATOM     25  O   UNL     1       1.089  -6.955   4.490  0.00  0.00    -0.273 OA
ATOM     26  N   UNL     1       0.828  -9.064   5.125  0.00  0.00    -0.236 N 
ATOM     27  H   UNL     1       0.452  -9.940   4.944  0.00  0.00    +0.173 HD
BRANCH  26  28
ATOM     28  N   UNL     1       1.589  -8.855   6.282  0.00  0.00    -0.264 N 
ATOM     29  H   UNL     1       1.965  -7.979   6.463  0.00  0.00    +0.170 HD
BRANCH  28  30
ATOM     30  C   UNL     1       1.806  -9.906   7.174  0.00  0.00    +0.046 C 
ATOM     31  C   UNL     1       1.289 -11.109   6.925  0.00  0.00    +0.035 C 
BRANCH  30  32
ATOM     32  C   UNL     1       2.611  -9.684   8.398  0.00  0.00    +0.015 A 
ATOM     33  C   UNL     1       3.735 -10.470   8.648  0.00  0.00    +0.011 A 
ATOM     34  C   UNL     1       4.481 -10.259   9.789  0.00  0.00    +0.001 A 
ATOM     35  C   UNL     1       4.116  -9.270  10.685  0.00  0.00    +0.001 A 
ATOM     36  C   UNL     1       3.002  -8.487  10.444  0.00  0.00    +0.020 A 
ATOM     37  C   UNL     1       2.250  -8.684   9.302  0.00  0.00    +0.050 A 
ATOM     38 CL   UNL     1       0.856  -7.696   8.996  0.00  0.00    -0.083 Cl
ENDBRANCH  30  32
ENDBRANCH  28  30
ENDBRANCH  26  28
ENDBRANCH  23  24
ENDBRANCH  22  23
ENDBRANCH   5  22
TORSDOF 10
