REMARK  Name = ZINC57182053
REMARK  9 active torsions:
REMARK  status: ('A' for Active; 'I' for Inactive)
REMARK    1  A    between atoms: C_1  and  C_2
REMARK    2  A    between atoms: C_4  and  C_30
REMARK    3  A    between atoms: C_6  and  O_8
REMARK    4  A    between atoms: O_8  and  C_9
REMARK    5  A    between atoms: C_9  and  C_10
REMARK    6  A    between atoms: N_12  and  N_13
REMARK    7  A    between atoms: C_14  and  C_16
REMARK    8  A    between atoms: C_19  and  N_22
REMARK    9  A    between atoms: C_23  and  C_29
REMARK                            x       y       z     vdW  Elec       q    Type
REMARK                         _______ _______ _______ _____ _____    ______ ____
ROOT
ATOM      1  N   UNL     1       0.111  -3.268   7.115  0.00  0.00    -0.230 N 
ATOM      2  C   UNL     1       0.071  -2.766   8.365  0.00  0.00    +0.260 C 
ATOM      3  O   UNL     1       0.018  -1.563   8.536  0.00  0.00    -0.269 OA
ATOM      4  H   UNL     1       0.153  -4.228   6.979  0.00  0.00    +0.173 HD
ENDROOT
BRANCH   2   5
ATOM      5  C   UNL     1       0.090  -3.676   9.527  0.00  0.00    +0.038 A 
ATOM      6  C   UNL     1       0.157  -5.058   9.333  0.00  0.00    +0.015 A 
ATOM      7  C   UNL     1       0.175  -5.904  10.419  0.00  0.00    +0.027 A 
ATOM      8  C   UNL     1       0.127  -5.385  11.708  0.00  0.00    +0.051 A 
ATOM      9  C   UNL     1       0.060  -4.009  11.905  0.00  0.00    +0.027 A 
ATOM     10  C   UNL     1       0.048  -3.157  10.824  0.00  0.00    +0.015 A 
BRANCH   8  11
ATOM     11  N   UNL     1       0.144  -6.246  12.808  0.00  0.00    -0.266 N 
ATOM     12  C   UNL     1       1.164  -6.354  13.743  0.00  0.00    +0.041 A 
ATOM     13  C   UNL     1       0.809  -7.277  14.630  0.00  0.00    +0.109 A 
ATOM     14  N   UNL     1      -0.438  -7.763  14.264  0.00  0.00    -0.312 N 
ATOM     15  H   UNL     1      -0.943  -8.447  14.731  0.00  0.00    +0.170 HD
ATOM     16  C   UNL     1      -0.829  -7.113  13.149  0.00  0.00    +0.331 A 
ATOM     17  O   UNL     1      -1.877  -7.284  12.553  0.00  0.00    -0.246 OA
ATOM     18  C   UNL     1       2.447  -5.563  13.752  0.00  0.00    +0.065 C 
ENDBRANCH   8  11
ENDBRANCH   2   5
BRANCH   1  21
ATOM     19  C   UNL     1       0.133  -2.906   4.762  0.00  0.00    +0.267 C 
ATOM     20  O   UNL     1       0.186  -4.106   4.592  0.00  0.00    -0.271 OA
ATOM     21  N   UNL     1       0.093  -2.404   6.012  0.00  0.00    -0.231 N 
ATOM     22  H   UNL     1       0.051  -1.445   6.148  0.00  0.00    +0.173 HD
BRANCH  19  23
ATOM     23  C   UNL     1       0.113  -1.977   3.576  0.00  0.00    +0.326 C 
BRANCH  23  24
ATOM     24  O   UNL     1       0.164  -2.743   2.370  0.00  0.00    -0.483 OA
BRANCH  24  30
ATOM     25  C   UNL     1       0.022   1.539   0.032  0.00  0.00    +0.044 C 
ATOM     26  C   UNL     1       0.085   0.034   0.021  0.00  0.00    -0.047 A 
ATOM     27  C   UNL     1       0.132  -0.646  -1.183  0.00  0.00    +0.007 A 
ATOM     28  C   UNL     1       0.191  -2.028  -1.197  0.00  0.00    -0.047 A 
ATOM     29  C   UNL     1       0.201  -2.732  -0.009  0.00  0.00    +0.049 A 
ATOM     30  C   UNL     1       0.154  -2.052   1.200  0.00  0.00    +0.122 A 
ATOM     31  C   UNL     1       0.101  -0.666   1.212  0.00  0.00    +0.049 A 
ATOM     32  C   UNL     1       0.242  -2.765  -2.510  0.00  0.00    +0.044 C 
ENDBRANCH  24  30
ENDBRANCH  23  24
ENDBRANCH  19  23
ENDBRANCH   1  21
TORSDOF 6
