REMARK  Name = ZINC36495192
REMARK  19 active torsions:
REMARK  status: ('A' for Active; 'I' for Inactive)
REMARK    1  A    between atoms: C_1  and  C_2
REMARK    2  A    between atoms: C_7  and  C_8
REMARK    3  A    between atoms: C_8  and  C_9
REMARK    4  A    between atoms: N_11  and  C_12
REMARK    5  A    between atoms: N_11  and  C_18
REMARK    6  A    between atoms: C_12  and  C_13
REMARK    7  A    between atoms: C_18  and  C_20
REMARK    8  A    between atoms: C_18  and  C_29
REMARK    9  A    between atoms: C_21  and  O_28
REMARK   10  A    between atoms: C_23  and  O_27
REMARK   11  A    between atoms: C_25  and  O_26
REMARK   12  A    between atoms: N_31  and  C_32
REMARK   13  A    between atoms: C_32  and  C_33
REMARK   14  A    between atoms: C_32  and  C_34
REMARK   15  A    between atoms: C_32  and  C_35
REMARK   16  A    between atoms: C_35  and  C_36
REMARK   17  A    between atoms: C_36  and  C_37
REMARK   18  A    between atoms: C_36  and  C_38
REMARK   19  A    between atoms: C_36  and  C_39
REMARK                            x       y       z     vdW  Elec       q    Type
REMARK                         _______ _______ _______ _____ _____    ______ ____
ROOT
ATOM      1  C   UNL     1      -3.274   0.082   4.372  0.00  0.00    +0.200 C 
ENDROOT
BRANCH   1   2
ATOM      2  C   UNL     1      -3.560   1.562   4.372  0.00  0.00    +0.065 A 
ATOM      3  C   UNL     1      -2.882   2.400   5.243  0.00  0.00    +0.129 A 
ATOM      4  C   UNL     1      -3.146   3.761   5.242  0.00  0.00    +0.091 A 
ATOM      5  C   UNL     1      -4.088   4.284   4.369  0.00  0.00    +0.124 A 
ATOM      6  C   UNL     1      -4.766   3.446   3.497  0.00  0.00    +0.091 A 
ATOM      7  C   UNL     1      -4.499   2.085   3.495  0.00  0.00    +0.129 A 
BRANCH   7   8
ATOM      8  O   UNL     1      -5.160   1.264   2.638  0.00  0.00    -0.506 OA
ATOM      9  H   UNL     1      -5.984   0.904   2.994  0.00  0.00    +0.292 HD
ENDBRANCH   7   8
BRANCH   5  10
ATOM     10  O   UNL     1      -4.347   5.618   4.369  0.00  0.00    -0.507 OA
ATOM     11  H   UNL     1      -3.792   6.127   3.762  0.00  0.00    +0.292 HD
ENDBRANCH   5  10
BRANCH   3  12
ATOM     12  O   UNL     1      -1.958   1.887   6.098  0.00  0.00    -0.506 OA
ATOM     13  H   UNL     1      -1.049   1.942   5.774  0.00  0.00    +0.292 HD
ENDBRANCH   3  12
ENDBRANCH   1   2
BRANCH   1  14
ATOM     14  C   UNL     1      -3.911  -0.552   5.582  0.00  0.00    +0.239 C 
ATOM     15  O   UNL     1      -3.230  -0.855   6.538  0.00  0.00    -0.273 OA
ATOM     16  N   UNL     1      -5.239  -0.784   5.600  0.00  0.00    -0.308 N 
ATOM     17  H   UNL     1      -5.784  -0.543   4.835  0.00  0.00    +0.149 HD
BRANCH  16  18
ATOM     18  C   UNL     1      -5.859  -1.401   6.775  0.00  0.00    +0.030 C 
ATOM     19  C   UNL     1      -5.413  -2.861   6.880  0.00  0.00    +0.031 C 
ATOM     20  C   UNL     1      -5.429  -0.645   8.034  0.00  0.00    +0.031 C 
BRANCH  18  21
ATOM     21  C   UNL     1      -7.381  -1.341   6.639  0.00  0.00    +0.031 C 
BRANCH  21  22
ATOM     22  C   UNL     1      -7.795   0.045   6.140  0.00  0.00    -0.036 C 
ATOM     23  C   UNL     1      -7.492   0.160   4.644  0.00  0.00    +0.010 C 
ATOM     24  C   UNL     1      -9.293   0.245   6.374  0.00  0.00    +0.010 C 
ATOM     25  C   UNL     1      -7.012   1.116   6.902  0.00  0.00    +0.010 C 
ENDBRANCH  21  22
ENDBRANCH  18  21
ENDBRANCH  16  18
ENDBRANCH   1  14
BRANCH   1  28
ATOM     26  C   UNL     1      -1.011   0.606   3.637  0.00  0.00    +0.221 C 
ATOM     27  O   UNL     1      -1.476   1.452   2.902  0.00  0.00    -0.275 OA
ATOM     28  N   UNL     1      -1.825  -0.135   4.414  0.00  0.00    -0.278 N 
BRANCH  26  29
ATOM     29  C   UNL     1       0.479   0.383   3.679  0.00  0.00    +0.131 C 
BRANCH  29  36
ATOM     30  C   UNL     1       1.135   3.066   4.528  0.00  0.00    +0.044 C 
ATOM     31  C   UNL     1       1.470   2.615   3.130  0.00  0.00    -0.047 A 
ATOM     32  C   UNL     1       2.097   3.483   2.255  0.00  0.00    +0.003 A 
ATOM     33  C   UNL     1       2.405   3.069   0.973  0.00  0.00    +0.000 A 
ATOM     34  C   UNL     1       2.086   1.787   0.565  0.00  0.00    +0.000 A 
ATOM     35  C   UNL     1       1.460   0.919   1.440  0.00  0.00    +0.004 A 
ATOM     36  C   UNL     1       1.157   1.331   2.724  0.00  0.00    -0.036 A 
ENDBRANCH  29  36
ENDBRANCH  26  29
BRANCH  28  37
ATOM     37  C   UNL     1      -1.262  -1.156   5.301  0.00  0.00    +0.183 C 
BRANCH  37  38
ATOM     38  C   UNL     1      -0.535  -0.488   6.439  0.00  0.00    +0.122 A 
ATOM     39  C   UNL     1      -0.996  -0.350   7.695  0.00  0.00    +0.046 A 
ATOM     40  C   UNL     1       0.004   0.332   8.426  0.00  0.00    +0.041 A 
ATOM     41  C   UNL     1       1.016   0.570   7.573  0.00  0.00    +0.195 A 
ATOM     42  O   UNL     1       0.687   0.067   6.372  0.00  0.00    -0.466 OA
ENDBRANCH  37  38
ENDBRANCH  28  37
ENDBRANCH   1  28
TORSDOF 13
