REMARK  Name = ZINC12884439
REMARK  8 active torsions:
REMARK  status: ('A' for Active; 'I' for Inactive)
REMARK    1  A    between atoms: C_1  and  C_2
REMARK    2  A    between atoms: C_2  and  C_3
REMARK    3  A    between atoms: C_17  and  C_19
REMARK    4  A    between atoms: C_19  and  C_21
REMARK    5  A    between atoms: C_19  and  O_22
REMARK    6  A    between atoms: N_25  and  C_28
REMARK    7  A    between atoms: C_28  and  C_29
REMARK    8  A    between atoms: C_29  and  C_30
REMARK                            x       y       z     vdW  Elec       q    Type
REMARK                         _______ _______ _______ _____ _____    ______ ____
ROOT
ATOM      1  C   UNL     1       3.064   7.223   1.664  0.00  0.00    -0.026 A 
ATOM      2  C   UNL     1       4.278   6.951   1.068  0.00  0.00    +0.005 A 
ATOM      3  C   UNL     1       4.541   5.692   0.562  0.00  0.00    +0.001 A 
ATOM      4  C   UNL     1       3.581   4.699   0.652  0.00  0.00    +0.004 A 
ATOM      5  C   UNL     1       2.368   4.966   1.245  0.00  0.00    -0.027 A 
ATOM      6  C   UNL     1       2.092   6.230   1.760  0.00  0.00    +0.039 A 
ATOM      7  N   UNL     1       0.809   6.258   2.309  0.00  0.00    -0.286 N 
ATOM      8  C   UNL     1       0.183   5.070   2.199  0.00  0.00    +0.211 C 
ATOM      9  O   UNL     1      -0.934   4.801   2.587  0.00  0.00    -0.277 OA
ATOM     10  C   UNL     1       1.138   4.142   1.500  0.00  0.00    +0.050 C 
ATOM     11  C   UNL     1       0.542   3.603   0.193  0.00  0.00    +0.088 C 
ATOM     12  C   UNL     1       1.076   2.147   0.091  0.00  0.00    +0.075 C 
ATOM     13  C   UNL     1       1.959   1.944   1.341  0.00  0.00    -0.028 C 
ATOM     14  C   UNL     1      -0.173   1.307   0.219  0.00  0.00    +0.224 C 
ATOM     15  O   UNL     1      -0.207   0.095   0.199  0.00  0.00    -0.275 OA
ATOM     16  N   UNL     1      -1.236   2.108   0.353  0.00  0.00    -0.241 N 
ATOM     17  C   UNL     1      -0.950   3.415   0.356  0.00  0.00    +0.225 C 
ATOM     18  O   UNL     1      -1.761   4.309   0.467  0.00  0.00    -0.275 OA
ATOM     19  H   UNL     1       0.414   7.041   2.723  0.00  0.00    +0.155 HD
ATOM     20  N   UNL     1       1.445   2.960   2.288  0.00  0.00    +0.396 N 
ATOM     21  H   UNL     1       0.598   2.614   2.754  0.00  0.00    -0.083 HD
ATOM     22  H   UNL     1       2.158   3.180   2.993  0.00  0.00    -0.083 HD
ENDROOT
BRANCH   1  24
ATOM     23  C   UNL     1       3.114   8.628   3.707  0.00  0.00    +0.009 C 
ATOM     24  C   UNL     1       2.787   8.599   2.212  0.00  0.00    +0.033 C 
ENDBRANCH   1  24
BRANCH  13  25
ATOM     25  C   UNL     1       1.796   0.523   1.882  0.00  0.00    +0.098 C 
ATOM     26  C   UNL     1       2.365  -0.476   0.873  0.00  0.00    +0.036 C 
BRANCH  25  27
ATOM     27  O   UNL     1       2.499   0.401   3.120  0.00  0.00    -0.394 OA
ATOM     28  H   UNL     1       2.439  -0.476   3.522  0.00  0.00    +0.210 HD
ENDBRANCH  25  27
ENDBRANCH  13  25
BRANCH  16  29
ATOM     29  C   UNL     1      -2.602   1.596   0.490  0.00  0.00    +0.121 C 
BRANCH  29  30
ATOM     30  C   UNL     1      -2.922   1.385   1.971  0.00  0.00    +0.054 C 
BRANCH  30  31
ATOM     31  C   UNL     1      -4.327   0.859   2.112  0.00  0.00    -0.046 A 
ATOM     32  C   UNL     1      -5.384   1.738   2.252  0.00  0.00    +0.004 A 
ATOM     33  C   UNL     1      -6.673   1.256   2.376  0.00  0.00    +0.000 A 
ATOM     34  C   UNL     1      -6.905  -0.107   2.370  0.00  0.00    +0.000 A 
ATOM     35  C   UNL     1      -5.847  -0.987   2.235  0.00  0.00    +0.000 A 
ATOM     36  C   UNL     1      -4.558  -0.504   2.106  0.00  0.00    +0.004 A 
ENDBRANCH  30  31
ENDBRANCH  29  30
ENDBRANCH  16  29
TORSDOF 6
