REMARK  Name = ZINC22061342
REMARK  10 active torsions:
REMARK  status: ('A' for Active; 'I' for Inactive)
REMARK    1  A    between atoms: C_1  and  C_2
REMARK    2  A    between atoms: C_4  and  O_41
REMARK    3  A    between atoms: C_6  and  N_40
REMARK    4  A    between atoms: C_9  and  O_12
REMARK    5  A    between atoms: O_12  and  C_13
REMARK    6  A    between atoms: C_16  and  C_36
REMARK    7  A    between atoms: C_16  and  O_39
REMARK    8  A    between atoms: C_20  and  O_35
REMARK    9  A    between atoms: C_23  and  O_24
REMARK   10  A    between atoms: C_36  and  C_38
REMARK                            x       y       z     vdW  Elec       q    Type
REMARK                         _______ _______ _______ _____ _____    ______ ____
ROOT
ATOM      1  C   UNL     1       2.285   3.848  -0.088  0.00  0.00    +0.158 C 
ATOM      2  C   UNL     1       0.985   3.057  -0.217  0.00  0.00    +0.079 C 
ATOM      3  C   UNL     1       1.293   1.577   0.041  0.00  0.00    +0.130 C 
ATOM      4  C   UNL     1       2.114   1.046  -1.133  0.00  0.00    +0.082 C 
ATOM      5  C   UNL     1       3.294   1.944  -1.405  0.00  0.00    +0.007 A 
ATOM      6  C   UNL     1       3.369   3.229  -0.933  0.00  0.00    +0.030 A 
ATOM      7  C   UNL     1       4.489   4.021  -1.224  0.00  0.00    +0.134 A 
ATOM      8  C   UNL     1       5.535   3.512  -1.991  0.00  0.00    +0.078 A 
ATOM      9  C   UNL     1       5.460   2.189  -2.473  0.00  0.00    +0.078 A 
ATOM     10  C   UNL     1       4.340   1.416  -2.175  0.00  0.00    +0.132 A 
ATOM     11  C   UNL     1       6.558   1.636  -3.284  0.00  0.00    +0.198 C 
ATOM     12  O   UNL     1       6.493   0.495  -3.698  0.00  0.00    -0.286 OA
ATOM     13  C   UNL     1       7.738   2.470  -3.593  0.00  0.00    +0.033 A 
ATOM     14  C   UNL     1       8.780   1.956  -4.361  0.00  0.00    +0.012 A 
ATOM     15  C   UNL     1       9.881   2.743  -4.645  0.00  0.00    +0.001 A 
ATOM     16  C   UNL     1       9.955   4.041  -4.171  0.00  0.00    +0.001 A 
ATOM     17  C   UNL     1       8.929   4.567  -3.407  0.00  0.00    +0.012 A 
ATOM     18  C   UNL     1       7.814   3.789  -3.112  0.00  0.00    +0.033 A 
ATOM     19  C   UNL     1       6.712   4.343  -2.297  0.00  0.00    +0.198 C 
ATOM     20  O   UNL     1       6.778   5.483  -1.880  0.00  0.00    -0.286 OA
ENDROOT
BRANCH   3  21
ATOM     21  C   UNL     1       2.082   1.437   1.317  0.00  0.00    +0.162 C 
ATOM     22  O   UNL     1       3.288   1.374   1.278  0.00  0.00    -0.295 OA
ATOM     23  C   UNL     1       1.367   1.375   2.642  0.00  0.00    +0.089 C 
ENDBRANCH   3  21
BRANCH  10  24
ATOM     24  O   UNL     1       4.260   0.143  -2.635  0.00  0.00    -0.506 OA
ATOM     25  H   UNL     1       5.078  -0.276  -3.240  0.00  0.00    +0.292 HD
ENDBRANCH  10  24
BRANCH   7  26
ATOM     26  O   UNL     1       4.553   5.292  -0.757  0.00  0.00    -0.506 OA
ATOM     27  H   UNL     1       5.430   5.917  -0.984  0.00  0.00    +0.292 HD
ENDBRANCH   7  26
BRANCH   3  28
ATOM     28  O   UNL     1       0.073   0.842   0.146  0.00  0.00    -0.381 OA
ATOM     29  H   UNL     1       0.098  -0.242   0.332  0.00  0.00    +0.211 HD
ENDBRANCH   3  28
BRANCH   1  30
ATOM     30  O   UNL     1       2.062   5.192  -0.518  0.00  0.00    -0.343 OA
BRANCH  30  36
ATOM     31  C   UNL     1       0.954   6.477   3.271  0.00  0.00    +0.040 C 
ATOM     32  C   UNL     1      -0.020   6.621   2.099  0.00  0.00    +0.145 C 
ATOM     33  C   UNL     1      -0.054   8.081   1.640  0.00  0.00    +0.129 C 
ATOM     34  C   UNL     1       1.336   8.483   1.140  0.00  0.00    -0.039 C 
ATOM     35  C   UNL     1       1.759   7.530   0.017  0.00  0.00    +0.048 C 
ATOM     36  C   UNL     1       1.723   6.092   0.540  0.00  0.00    +0.250 C 
ATOM     37  O   UNL     1       0.410   5.792   1.017  0.00  0.00    -0.346 OA
BRANCH  34  38
ATOM     38  N   UNL     1       1.297   9.859   0.627  0.00  0.00    +0.382 N 
ATOM     39  H   UNL     1       2.297  10.146   0.269  0.00  0.00    -0.090 HD
ATOM     40  H   UNL     1       0.986  10.542   1.432  0.00  0.00    -0.090 HD
ATOM     41  H   UNL     1       0.578   9.921  -0.203  0.00  0.00    -0.090 HD
ENDBRANCH  34  38
BRANCH  33  42
ATOM     42  O   UNL     1      -0.429   8.918   2.736  0.00  0.00    -0.391 OA
ATOM     43  H   UNL     1      -0.507  10.006   2.595  0.00  0.00    +0.210 HD
ENDBRANCH  33  42
ENDBRANCH  30  36
ENDBRANCH   1  30
TORSDOF 8
