REMARK  Name = ZINC15085765
REMARK  2 active torsions:
REMARK  status: ('A' for Active; 'I' for Inactive)
REMARK    1  A    between atoms: C_4  and  C_7
REMARK    2  A    between atoms: N_35  and  O_36
REMARK                            x       y       z     vdW  Elec       q    Type
REMARK                         _______ _______ _______ _____ _____    ______ ____
ROOT
ATOM      1  C   UNL     1      -2.774   4.304  -1.631  0.00  0.00    +0.088 C 
ATOM      2  C   UNL     1      -2.522   3.946  -0.159  0.00  0.00    +0.101 C 
ATOM      3  C   UNL     1      -1.270   3.127  -0.034  0.00  0.00    +0.012 A 
ATOM      4  C   UNL     1      -0.057   3.822  -0.017  0.00  0.00    +0.009 A 
ATOM      5  C   UNL     1       1.151   3.158   0.003  0.00  0.00    +0.001 A 
ATOM      6  C   UNL     1       1.176   1.774   0.000  0.00  0.00    +0.004 A 
ATOM      7  C   UNL     1      -0.013   1.078   0.008  0.00  0.00    +0.046 A 
ATOM      8  C   UNL     1      -1.234   1.747   0.052  0.00  0.00    +0.125 A 
ATOM      9  O   UNL     1      -2.339   0.972   0.256  0.00  0.00    -0.489 OA
ATOM     10  C   UNL     1      -2.138  -0.135   1.143  0.00  0.00    +0.257 C 
ATOM     11  C   UNL     1      -3.089  -0.077   2.334  0.00  0.00    +0.201 C 
ATOM     12  O   UNL     1      -4.426  -0.382   1.931  0.00  0.00    -0.373 OA
ATOM     13  C   UNL     1      -5.378  -0.155   2.979  0.00  0.00    +0.201 C 
ATOM     14  C   UNL     1      -5.386   1.346   3.293  0.00  0.00    +0.257 C 
ATOM     15  O   UNL     1      -5.241   2.068   2.072  0.00  0.00    -0.489 OA
ATOM     16  C   UNL     1      -6.349   2.528   1.441  0.00  0.00    +0.125 A 
ATOM     17  C   UNL     1      -7.609   2.225   1.942  0.00  0.00    +0.046 A 
ATOM     18  C   UNL     1      -8.743   2.726   1.330  0.00  0.00    +0.004 A 
ATOM     19  C   UNL     1      -8.627   3.522   0.209  0.00  0.00    +0.001 A 
ATOM     20  C   UNL     1      -7.380   3.804  -0.304  0.00  0.00    +0.009 A 
ATOM     21  C   UNL     1      -6.228   3.310   0.304  0.00  0.00    +0.011 A 
ATOM     22  C   UNL     1      -4.922   3.665  -0.344  0.00  0.00    +0.094 C 
ATOM     23  N   UNL     1      -3.718   3.313   0.368  0.00  0.00    -0.301 NA
ATOM     24  C   UNL     1      -4.929   5.188  -0.615  0.00  0.00    +0.078 C 
ATOM     25  C   UNL     1      -3.802   5.434  -1.605  0.00  0.00    +0.068 C 
ATOM     26  N   UNL     1      -3.720   6.476  -2.339  0.00  0.00    -0.096 NA
ATOM     27  H   UNL     1      -3.611   2.220   0.309  0.00  0.00    +0.123 HD
ENDROOT
BRANCH   1  31
ATOM     28  C   UNL     1       0.746   5.618  -3.651  0.00  0.00    +0.000 A 
ATOM     29  C   UNL     1       0.068   4.500  -4.099  0.00  0.00    +0.000 A 
ATOM     30  C   UNL     1      -1.073   4.074  -3.445  0.00  0.00    +0.004 A 
ATOM     31  C   UNL     1      -1.535   4.766  -2.341  0.00  0.00    -0.037 A 
ATOM     32  C   UNL     1      -0.860   5.887  -1.895  0.00  0.00    +0.004 A 
ATOM     33  C   UNL     1       0.283   6.310  -2.547  0.00  0.00    +0.000 A 
ENDBRANCH   1  31
BRANCH  26  34
ATOM     34  O   UNL     1      -4.715   7.480  -2.257  0.00  0.00    -0.409 OA
ATOM     35  H   UNL     1      -4.644   8.377  -2.889  0.00  0.00    +0.328 HD
ENDBRANCH  26  34
TORSDOF 2
