REMARK  Name = ZINC11854630
REMARK  6 active torsions:
REMARK  status: ('A' for Active; 'I' for Inactive)
REMARK    1  A    between atoms: C_1  and  C_2
REMARK    2  A    between atoms: C_2  and  C_3
REMARK    3  A    between atoms: C_12  and  N_21
REMARK    4  A    between atoms: C_14  and  C_16
REMARK    5  A    between atoms: C_22  and  C_24
REMARK    6  A    between atoms: C_24  and  C_29
REMARK                            x       y       z     vdW  Elec       q    Type
REMARK                         _______ _______ _______ _____ _____    ______ ____
ROOT
ATOM      1  C   UNL     1      -3.230   3.290  -6.019  0.00  0.00    +0.050 A 
ATOM      2  C   UNL     1      -3.407   3.630  -7.328  0.00  0.00    +0.093 A 
ATOM      3  C   UNL     1      -2.325   4.183  -8.038  0.00  0.00    +0.253 A 
ATOM      4  O   UNL     1      -2.447   4.500  -9.210  0.00  0.00    -0.268 OA
ATOM      5  N   UNL     1      -1.151   4.363  -7.395  0.00  0.00    -0.291 N 
ATOM      6  H   UNL     1      -0.393   4.746  -7.864  0.00  0.00    +0.172 HD
ATOM      7  C   UNL     1      -1.034   4.000  -6.090  0.00  0.00    +0.234 A 
ATOM      8  N   UNL     1      -2.050   3.483  -5.433  0.00  0.00    -0.217 NA
ATOM      9  N   UNL     1       0.172   4.182  -5.441  0.00  0.00    -0.185 N 
ATOM     10  C   UNL     1       0.466   3.788  -4.167  0.00  0.00    +0.132 A 
ATOM     11  C   UNL     1       1.745   4.156  -3.906  0.00  0.00    +0.074 A 
ATOM     12  C   UNL     1       2.256   4.789  -5.060  0.00  0.00    +0.102 A 
ATOM     13  N   UNL     1       1.308   4.804  -5.974  0.00  0.00    -0.162 NA
ENDROOT
BRANCH  12  14
ATOM     14  C   UNL     1       3.617   5.343  -5.213  0.00  0.00    +0.039 A 
ATOM     15  C   UNL     1       4.177   5.971  -6.294  0.00  0.00    +0.018 A 
ATOM     16  C   UNL     1       5.480   6.409  -6.204  0.00  0.00    +0.008 A 
ATOM     17  C   UNL     1       6.168   6.206  -5.052  0.00  0.00    +0.046 A 
ATOM     18  S   UNL     1       4.958   5.377  -4.035  0.00  0.00    -0.095 S 
ENDBRANCH  12  14
BRANCH  10  19
ATOM     19  N   UNL     1      -0.396   3.131  -3.290  0.00  0.00    -0.269 N 
ATOM     20  C   UNL     1       0.059   2.695  -2.099  0.00  0.00    +0.229 C 
ATOM     21  O   UNL     1       1.195   2.946  -1.755  0.00  0.00    -0.274 OA
ATOM     22  H   UNL     1      -1.322   2.987  -3.538  0.00  0.00    +0.156 HD
BRANCH  20  23
ATOM     23  C   UNL     1      -0.843   1.896  -1.194  0.00  0.00    +0.072 C 
ATOM     24  C   UNL     1      -0.154   1.659   0.161  0.00  0.00    +0.021 C 
ATOM     25  C   UNL     1      -1.048   2.316   1.232  0.00  0.00    +0.001 C 
ATOM     26  C   UNL     1      -1.848   3.390   0.452  0.00  0.00    +0.001 C 
ATOM     27  C   UNL     1      -2.133   2.690  -0.900  0.00  0.00    +0.021 C 
BRANCH  23  28
ATOM     28  C   UNL     1      -1.184   0.577  -1.839  0.00  0.00    -0.032 A 
ATOM     29  C   UNL     1      -2.097  -0.269  -1.238  0.00  0.00    +0.006 A 
ATOM     30  C   UNL     1      -2.414  -1.477  -1.831  0.00  0.00    +0.020 A 
ATOM     31  C   UNL     1      -1.810  -1.843  -3.021  0.00  0.00    +0.041 A 
ATOM     32  C   UNL     1      -0.892  -0.997  -3.619  0.00  0.00    +0.020 A 
ATOM     33  C   UNL     1      -0.580   0.212  -3.027  0.00  0.00    +0.006 A 
ATOM     34 CL   UNL     1      -2.203  -3.362  -3.763  0.00  0.00    -0.084 Cl
ENDBRANCH  23  28
ENDBRANCH  20  23
ENDBRANCH  10  19
BRANCH   1  36
ATOM     35  C   UNL     1      -4.238   1.172  -5.215  0.00  0.00    +0.010 C 
ATOM     36  C   UNL     1      -4.371   2.696  -5.235  0.00  0.00    +0.052 C 
ENDBRANCH   1  36
TORSDOF 5
