REMARK  Name = ZINC39674258
REMARK  9 active torsions:
REMARK  status: ('A' for Active; 'I' for Inactive)
REMARK    1  A    between atoms: C_1  and  C_2
REMARK    2  A    between atoms: C_4  and  C_9
REMARK    3  A    between atoms: C_5  and  C_8
REMARK    4  A    between atoms: C_9  and  C_11
REMARK    5  A    between atoms: C_9  and  N_12
REMARK    6  A    between atoms: C_13  and  C_15
REMARK    7  A    between atoms: C_26  and  C_28
REMARK    8  A    between atoms: C_31  and  O_34
REMARK    9  A    between atoms: O_34  and  C_35
REMARK                            x       y       z     vdW  Elec       q    Type
REMARK                         _______ _______ _______ _____ _____    ______ ____
ROOT
ATOM      1  C   UNL     1      -2.903  -0.587  -4.469  0.00  0.00    +0.100 C 
ATOM      2  C   UNL     1      -2.105   0.446  -5.295  0.00  0.00    +0.121 C 
ATOM      3  N   UNL     1      -2.594   0.273  -6.683  0.00  0.00    -0.296 N 
ATOM      4  C   UNL     1      -4.052   0.050  -6.535  0.00  0.00    +0.115 C 
ATOM      5  C   UNL     1      -4.181  -0.844  -5.286  0.00  0.00    -0.004 C 
ATOM      6  C   UNL     1      -4.261  -2.312  -5.693  0.00  0.00    -0.010 C 
ATOM      7  C   UNL     1      -5.567  -2.554  -6.455  0.00  0.00    -0.082 C 
ATOM      8  N   UNL     1      -6.707  -2.199  -5.601  0.00  0.00    +0.379 N 
ATOM      9  C   UNL     1      -6.673  -0.765  -5.290  0.00  0.00    -0.082 C 
ATOM     10  C   UNL     1      -5.413  -0.447  -4.479  0.00  0.00    -0.010 C 
ATOM     11  C   UNL     1      -1.875   0.311  -7.823  0.00  0.00    +0.247 C 
ATOM     12  O   UNL     1      -0.663   0.391  -7.775  0.00  0.00    -0.270 OA
ATOM     13  H   UNL     1      -7.567  -2.417  -6.082  0.00  0.00    -0.086 HD
ATOM     14  H   UNL     1      -6.662  -2.729  -4.744  0.00  0.00    -0.086 HD
ENDROOT
BRANCH  11  15
ATOM     15  C   UNL     1      -2.561   0.256  -9.129  0.00  0.00    +0.037 A 
ATOM     16  C   UNL     1      -3.911   0.600  -9.227  0.00  0.00    +0.016 A 
ATOM     17  C   UNL     1      -4.547   0.548 -10.448  0.00  0.00    +0.047 A 
ATOM     18  C   UNL     1      -3.846   0.153 -11.581  0.00  0.00    +0.130 A 
ATOM     19  C   UNL     1      -2.502  -0.190 -11.488  0.00  0.00    +0.047 A 
ATOM     20  C   UNL     1      -1.859  -0.135 -10.273  0.00  0.00    +0.016 A 
BRANCH  18  21
ATOM     21  O   UNL     1      -4.476   0.102 -12.782  0.00  0.00    -0.406 OA
BRANCH  21  22
ATOM     22  C   UNL     1      -3.697  -0.312 -13.906  0.00  0.00    +0.575 C 
ATOM     23  F   UNL     1      -3.207  -1.603 -13.684  0.00  0.00    -0.133 F 
ATOM     24  F   UNL     1      -4.496  -0.308 -15.055  0.00  0.00    -0.133 F 
ATOM     25  F   UNL     1      -2.625   0.570 -14.081  0.00  0.00    -0.133 F 
ENDBRANCH  21  22
ENDBRANCH  18  21
ENDBRANCH  11  15
BRANCH   1  27
ATOM     26  N   UNL     1      -3.495  -0.850  -2.081  0.00  0.00    -0.309 N 
ATOM     27  C   UNL     1      -3.251  -0.021  -3.116  0.00  0.00    +0.219 C 
ATOM     28  O   UNL     1      -3.310   1.180  -2.958  0.00  0.00    -0.275 OA
ATOM     29  H   UNL     1      -3.448  -1.810  -2.208  0.00  0.00    +0.149 HD
BRANCH  26  30
ATOM     30  C   UNL     1      -3.833  -0.299  -0.766  0.00  0.00    +0.100 C 
ATOM     31  C   UNL     1      -2.546   0.032  -0.006  0.00  0.00    +0.033 C 
BRANCH  30  34
ATOM     32  C   UNL     1      -2.985  -2.897   1.052  0.00  0.00    +0.039 C 
ATOM     33  C   UNL     1      -4.293  -2.772   0.268  0.00  0.00    +0.154 C 
ATOM     34  C   UNL     1      -4.629  -1.314   0.013  0.00  0.00    -0.001 C 
ATOM     35  C   UNL     1      -5.795  -1.138   0.640  0.00  0.00    +0.063 C 
ATOM     36  N   UNL     1      -6.199  -2.284   1.231  0.00  0.00    -0.159 NA
ATOM     37  N   UNL     1      -5.431  -3.242   1.077  0.00  0.00    -0.180 NA
ATOM     38  C   UNL     1      -6.556   0.161   0.683  0.00  0.00    +0.067 C 
ENDBRANCH  30  34
ENDBRANCH  26  30
ENDBRANCH   1  27
TORSDOF 6
