REMARK  Name = ZINC40069611
REMARK  10 active torsions:
REMARK  status: ('A' for Active; 'I' for Inactive)
REMARK    1  A    between atoms: C_1  and  C_2
REMARK    2  A    between atoms: C_7  and  C_8
REMARK    3  A    between atoms: C_8  and  C_10
REMARK    4  A    between atoms: C_8  and  N_29
REMARK    5  A    between atoms: C_10  and  C_11
REMARK    6  A    between atoms: N_13  and  C_14
REMARK    7  A    between atoms: C_14  and  C_15
REMARK    8  A    between atoms: C_15  and  C_17
REMARK    9  A    between atoms: C_15  and  N_22
REMARK   10  A    between atoms: C_25  and  C_28
REMARK                            x       y       z     vdW  Elec       q    Type
REMARK                         _______ _______ _______ _____ _____    ______ ____
ROOT
ATOM      1  C   UNL     1      -1.170   2.052   3.691  0.00  0.00    +0.215 C 
ATOM      2  O   UNL     1      -0.106   2.252   4.238  0.00  0.00    -0.276 OA
ATOM      3  N   UNL     1      -2.272   2.711   4.101  0.00  0.00    -0.316 N 
ATOM      4  H   UNL     1      -3.123   2.551   3.663  0.00  0.00    +0.149 HD
ENDROOT
BRANCH   1   5
ATOM      5  C   UNL     1      -1.259   1.067   2.554  0.00  0.00    +0.123 C 
BRANCH   5   6
ATOM      6  C   UNL     1       0.122   0.464   2.292  0.00  0.00    +0.114 C 
BRANCH   6  13
ATOM      7  C   UNL     1       2.561  -0.407   1.010  0.00  0.00    +0.044 C 
ATOM      8  C   UNL     1       1.226  -0.844   0.465  0.00  0.00    -0.045 A 
ATOM      9  C   UNL     1       1.168  -1.666  -0.645  0.00  0.00    +0.004 A 
ATOM     10  C   UNL     1      -0.057  -2.067  -1.145  0.00  0.00    +0.000 A 
ATOM     11  C   UNL     1      -1.224  -1.646  -0.534  0.00  0.00    +0.000 A 
ATOM     12  C   UNL     1      -1.166  -0.825   0.576  0.00  0.00    +0.006 A 
ATOM     13  C   UNL     1       0.059  -0.427   1.078  0.00  0.00    -0.024 A 
ENDBRANCH   6  13
BRANCH   6  14
ATOM     14  N   UNL     1       0.540  -0.323   3.454  0.00  0.00    -0.292 N 
ATOM     15  C   UNL     1      -0.167  -1.409   3.823  0.00  0.00    +0.298 C 
ATOM     16  O   UNL     1      -1.094  -1.793   3.135  0.00  0.00    -0.253 OA
ATOM     17  N   UNL     1       0.152  -2.071   4.953  0.00  0.00    -0.313 N 
ATOM     18  H   UNL     1       1.327  -0.062   3.959  0.00  0.00    +0.151 HD
ATOM     19  H   UNL     1       0.892  -1.764   5.501  0.00  0.00    +0.146 HD
ATOM     20  H   UNL     1      -0.357  -2.852   5.218  0.00  0.00    +0.146 HD
ENDBRANCH   6  14
ENDBRANCH   5   6
ENDBRANCH   1   5
BRANCH   3  21
ATOM     21  C   UNL     1      -2.185   3.668   5.206  0.00  0.00    +0.094 C 
BRANCH  21  22
ATOM     22  C   UNL     1      -3.585   4.180   5.549  0.00  0.00    -0.013 C 
BRANCH  22  23
ATOM     23  N   UNL     1      -3.504   5.103   6.689  0.00  0.00    +0.386 N 
ATOM     24  C   UNL     1      -4.853   5.553   7.049  0.00  0.00    -0.078 C 
ATOM     25  C   UNL     1      -4.768   6.577   8.184  0.00  0.00    -0.015 C 
ATOM     26  C   UNL     1      -4.103   5.926   9.401  0.00  0.00    -0.018 C 
ATOM     27  C   UNL     1      -2.726   5.394   8.995  0.00  0.00    -0.015 C 
ATOM     28  C   UNL     1      -2.888   4.415   7.830  0.00  0.00    -0.078 C 
ATOM     29  C   UNL     1      -3.942   6.966  10.512  0.00  0.00    +0.007 C 
ATOM     30  H   UNL     1      -2.941   5.901   6.435  0.00  0.00    -0.081 HD
ENDBRANCH  22  23
BRANCH  22  31
ATOM     31  C   UNL     1      -4.161   4.903   4.358  0.00  0.00    -0.022 A 
ATOM     32  C   UNL     1      -5.054   4.459   3.440  0.00  0.00    +0.009 A 
ATOM     33  C   UNL     1      -5.445   5.307   2.421  0.00  0.00    +0.008 A 
ATOM     34  C   UNL     1      -4.926   6.558   2.371  0.00  0.00    +0.045 A 
ATOM     35  S   UNL     1      -3.852   6.569   3.797  0.00  0.00    -0.103 S 
ENDBRANCH  22  31
ENDBRANCH  21  22
ENDBRANCH   3  21
TORSDOF 8
