REMARK  Name = ZINC01759941
REMARK  10 active torsions:
REMARK  status: ('A' for Active; 'I' for Inactive)
REMARK    1  A    between atoms: C_1  and  C_2
REMARK    2  A    between atoms: C_5  and  C_8
REMARK    3  A    between atoms: C_11  and  S_20
REMARK    4  A    between atoms: N_12  and  C_13
REMARK    5  A    between atoms: C_16  and  C_19
REMARK    6  A    between atoms: S_20  and  C_21
REMARK    7  A    between atoms: C_21  and  C_22
REMARK    8  A    between atoms: N_24  and  N_25
REMARK    9  A    between atoms: N_25  and  C_26
REMARK   10  A    between atoms: C_26  and  C_28
REMARK                            x       y       z     vdW  Elec       q    Type
REMARK                         _______ _______ _______ _____ _____    ______ ____
ROOT
ATOM      1  S   UNL     1       0.317  -7.827   1.476  0.00  0.00    -0.076 S 
ENDROOT
BRANCH   1   5
ATOM      2  C   UNL     1      -0.140  -4.257  -0.051  0.00  0.00    +0.169 A 
ATOM      3  N   UNL     1      -0.336  -5.042  -1.085  0.00  0.00    -0.128 NA
ATOM      4  N   UNL     1      -0.216  -6.272  -0.733  0.00  0.00    -0.122 NA
ATOM      5  C   UNL     1       0.065  -6.350   0.549  0.00  0.00    +0.197 A 
ATOM      6  N   UNL     1       0.128  -5.070   1.028  0.00  0.00    -0.270 N 
BRANCH   2  11
ATOM      7  C   UNL     1      -0.340   1.494  -0.035  0.00  0.00    +0.044 C 
ATOM      8  C   UNL     1      -0.288  -0.012  -0.039  0.00  0.00    -0.050 A 
ATOM      9  C   UNL     1      -0.211  -0.696  -1.240  0.00  0.00    +0.004 A 
ATOM     10  C   UNL     1      -0.163  -2.074  -1.251  0.00  0.00    +0.012 A 
ATOM     11  C   UNL     1      -0.191  -2.780  -0.047  0.00  0.00    +0.020 A 
ATOM     12  C   UNL     1      -0.268  -2.084   1.161  0.00  0.00    +0.012 A 
ATOM     13  C   UNL     1      -0.311  -0.705   1.158  0.00  0.00    +0.004 A 
ENDBRANCH   2  11
BRANCH   6  14
ATOM     14  C   UNL     1       0.405  -4.670   2.343  0.00  0.00    +0.051 A 
ATOM     15  C   UNL     1       1.555  -3.943   2.621  0.00  0.00    +0.026 A 
ATOM     16  C   UNL     1       1.825  -3.550   3.917  0.00  0.00    +0.005 A 
ATOM     17  C   UNL     1       0.952  -3.881   4.938  0.00  0.00    -0.050 A 
ATOM     18  C   UNL     1      -0.193  -4.606   4.664  0.00  0.00    +0.005 A 
ATOM     19  C   UNL     1      -0.472  -4.996   3.369  0.00  0.00    +0.026 A 
ATOM     20  C   UNL     1       1.250  -3.451   6.351  0.00  0.00    +0.044 C 
ENDBRANCH   6  14
ENDBRANCH   1   5
BRANCH   1  21
ATOM     21  C   UNL     1       0.100  -9.153   0.257  0.00  0.00    +0.174 C 
BRANCH  21  22
ATOM     22  C   UNL     1       0.292 -10.489   0.927  0.00  0.00    +0.239 C 
ATOM     23  O   UNL     1       0.550 -10.541   2.111  0.00  0.00    -0.273 OA
ATOM     24  N   UNL     1       0.177 -11.625   0.211  0.00  0.00    -0.236 N 
ATOM     25  H   UNL     1      -0.029 -11.583  -0.736  0.00  0.00    +0.173 HD
BRANCH  24  26
ATOM     26  N   UNL     1       0.356 -12.867   0.835  0.00  0.00    -0.264 N 
ATOM     27  H   UNL     1       0.562 -12.909   1.782  0.00  0.00    +0.170 HD
BRANCH  26  28
ATOM     28  C   UNL     1       0.237 -14.043   0.093  0.00  0.00    +0.045 C 
ATOM     29  C   UNL     1      -0.047 -13.985  -1.210  0.00  0.00    +0.035 C 
BRANCH  28  30
ATOM     30  C   UNL     1       0.425 -15.354   0.751  0.00  0.00    +0.004 A 
ATOM     31  C   UNL     1       1.380 -16.241   0.282  0.00  0.00    +0.010 A 
ATOM     32  C   UNL     1       1.563 -17.475   0.896  0.00  0.00    +0.001 A 
ATOM     33  C   UNL     1       0.813 -17.845   1.972  0.00  0.00    +0.008 A 
ATOM     34  C   UNL     1      -0.167 -16.976   2.480  0.00  0.00    -0.017 A 
ATOM     35  C   UNL     1      -0.363 -15.712   1.871  0.00  0.00    -0.009 A 
ATOM     36  C   UNL     1      -1.338 -14.844   2.383  0.00  0.00    +0.009 A 
ATOM     37  C   UNL     1      -2.079 -15.222   3.461  0.00  0.00    +0.001 A 
ATOM     38  C   UNL     1      -1.883 -16.461   4.066  0.00  0.00    +0.001 A 
ATOM     39  C   UNL     1      -0.954 -17.334   3.588  0.00  0.00    +0.008 A 
ENDBRANCH  28  30
ENDBRANCH  26  28
ENDBRANCH  24  26
ENDBRANCH  21  22
ENDBRANCH   1  21
TORSDOF 8
