REMARK  Name = ZINC13564714
REMARK  7 active torsions:
REMARK  status: ('A' for Active; 'I' for Inactive)
REMARK    1  A    between atoms: C_1  and  C_2
REMARK    2  A    between atoms: C_5  and  C_8
REMARK    3  A    between atoms: C_8  and  N_9
REMARK    4  A    between atoms: N_9  and  C_10
REMARK    5  A    between atoms: C_10  and  C_11
REMARK    6  A    between atoms: C_14  and  C_27
REMARK    7  A    between atoms: N_16  and  C_21
REMARK                            x       y       z     vdW  Elec       q    Type
REMARK                         _______ _______ _______ _____ _____    ______ ____
ROOT
ATOM      1  C   UNL     1       2.888  -6.625   0.088  0.00  0.00    +0.001 A 
ATOM      2  C   UNL     1       3.587  -6.880   1.228  0.00  0.00    +0.020 A 
ATOM      3  C   UNL     1       4.893  -7.400   1.114  0.00  0.00    +0.045 A 
ATOM      4  C   UNL     1       5.868  -7.769   2.058  0.00  0.00    +0.102 A 
ATOM      5  N   UNL     1       6.962  -8.216   1.382  0.00  0.00    -0.164 NA
ATOM      6  N   UNL     1       6.707  -8.142   0.007  0.00  0.00    -0.215 N 
ATOM      7  C   UNL     1       5.434  -7.641  -0.173  0.00  0.00    +0.145 A 
ATOM      8  N   UNL     1       4.719  -7.378  -1.252  0.00  0.00    -0.307 N 
ATOM      9  C   UNL     1       3.480  -6.891  -1.163  0.00  0.00    +0.252 A 
ATOM     10  O   UNL     1       2.848  -6.667  -2.187  0.00  0.00    -0.268 OA
ATOM     11  H   UNL     1       5.101  -7.548  -2.127  0.00  0.00    +0.170 HD
ENDROOT
BRANCH   4  12
ATOM     12  C   UNL     1       5.731  -7.684   3.519  0.00  0.00    +0.003 A 
ATOM     13  C   UNL     1       4.571  -8.157   4.145  0.00  0.00    +0.013 A 
ATOM     14  C   UNL     1       4.449  -8.075   5.514  0.00  0.00    +0.039 A 
ATOM     15  C   UNL     1       5.472  -7.525   6.273  0.00  0.00    +0.123 A 
ATOM     16  C   UNL     1       6.624  -7.054   5.660  0.00  0.00    +0.039 A 
ATOM     17  C   UNL     1       6.762  -7.136   4.292  0.00  0.00    +0.013 A 
ATOM     18  F   UNL     1       5.345  -7.447   7.616  0.00  0.00    -0.205 F 
ENDBRANCH   4  12
BRANCH   6  19
ATOM     19  C   UNL     1       7.591  -8.514  -1.010  0.00  0.00    +0.068 A 
ATOM     20  C   UNL     1       8.264  -9.726  -0.938  0.00  0.00    +0.028 A 
ATOM     21  C   UNL     1       9.137 -10.090  -1.944  0.00  0.00    +0.002 A 
ATOM     22  C   UNL     1       9.340  -9.249  -3.023  0.00  0.00    +0.000 A 
ATOM     23  C   UNL     1       8.671  -8.041  -3.098  0.00  0.00    +0.002 A 
ATOM     24  C   UNL     1       7.793  -7.673  -2.097  0.00  0.00    +0.028 A 
ENDBRANCH   6  19
BRANCH   1  25
ATOM     25  C   UNL     1       1.490  -6.069   0.164  0.00  0.00    -0.041 C 
BRANCH  25  26
ATOM     26  N   UNL     1       1.537  -4.606   0.036  0.00  0.00    +0.384 N 
ATOM     27  H   UNL     1       1.950  -4.360  -0.852  0.00  0.00    -0.085 HD
ATOM     28  H   UNL     1       2.094  -4.221   0.784  0.00  0.00    -0.085 HD
BRANCH  26  29
ATOM     29  C   UNL     1       0.174  -4.064   0.109  0.00  0.00    -0.046 C 
BRANCH  29  34
ATOM     30  C   UNL     1       0.358   1.690  -0.395  0.00  0.00    +0.044 C 
ATOM     31  C   UNL     1       0.310   0.190  -0.264  0.00  0.00    -0.050 A 
ATOM     32  C   UNL     1       0.185  -0.600  -1.392  0.00  0.00    +0.003 A 
ATOM     33  C   UNL     1       0.141  -1.976  -1.271  0.00  0.00    +0.002 A 
ATOM     34  C   UNL     1       0.223  -2.563  -0.022  0.00  0.00    -0.064 A 
ATOM     35  C   UNL     1       0.349  -1.774   1.106  0.00  0.00    +0.002 A 
ATOM     36  C   UNL     1       0.397  -0.398   0.985  0.00  0.00    +0.003 A 
ENDBRANCH  29  34
ENDBRANCH  26  29
ENDBRANCH  25  26
ENDBRANCH   1  25
TORSDOF 6
