REMARK  Name = ZINC64773144
REMARK  8 active torsions:
REMARK  status: ('A' for Active; 'I' for Inactive)
REMARK    1  A    between atoms: C_1  and  C_2
REMARK    2  A    between atoms: C_2  and  O_3
REMARK    3  A    between atoms: O_3  and  C_4
REMARK    4  A    between atoms: C_6  and  C_11
REMARK    5  A    between atoms: C_9  and  O_10
REMARK    6  A    between atoms: C_19  and  S_25
REMARK    7  A    between atoms: S_25  and  C_26
REMARK    8  A    between atoms: C_26  and  C_27
REMARK                            x       y       z     vdW  Elec       q    Type
REMARK                         _______ _______ _______ _____ _____    ______ ____
ROOT
ATOM      1  C   UNL     1      -0.217  -4.963  -0.535  0.00  0.00    +0.047 C 
ATOM      2  C   UNL     1       0.902  -5.750  -1.222  0.00  0.00    +0.105 C 
ATOM      3  C   UNL     1       1.475  -6.786  -0.300  0.00  0.00    +0.219 C 
ATOM      4  O   UNL     1       2.575  -7.229  -0.549  0.00  0.00    -0.275 OA
ATOM      5  N   UNL     1       0.837  -7.248   0.784  0.00  0.00    -0.273 N 
ATOM      6  C   UNL     1      -0.371  -6.732   1.161  0.00  0.00    +0.117 C 
ATOM      7  N   UNL     1      -0.816  -6.898   2.373  0.00  0.00    -0.212 NA
ATOM      8  C   UNL     1      -1.938  -6.311   2.808  0.00  0.00    +0.182 C 
ATOM      9  N   UNL     1      -2.645  -5.489   2.046  0.00  0.00    -0.154 NA
ATOM     10  C   UNL     1      -2.321  -5.260   0.781  0.00  0.00    +0.249 C 
ATOM     11  O   UNL     1      -2.975  -4.468   0.131  0.00  0.00    -0.273 OA
ATOM     12  C   UNL     1      -1.165  -5.960   0.138  0.00  0.00    +0.148 C 
ATOM     13  H   UNL     1       1.238  -7.959   1.309  0.00  0.00    +0.156 HD
ENDROOT
BRANCH   1  16
ATOM     14  C   UNL     1       0.538  -1.865   1.491  0.00  0.00    +0.162 A 
ATOM     15  C   UNL     1      -0.003  -2.713   0.538  0.00  0.00    +0.053 A 
ATOM     16  C   UNL     1       0.372  -4.043   0.502  0.00  0.00    -0.039 A 
ATOM     17  C   UNL     1       1.288  -4.530   1.417  0.00  0.00    +0.008 A 
ATOM     18  C   UNL     1       1.831  -3.690   2.371  0.00  0.00    +0.049 A 
ATOM     19  C   UNL     1       1.463  -2.354   2.408  0.00  0.00    +0.158 A 
BRANCH  19  20
ATOM     20  O   UNL     1       2.001  -1.525   3.342  0.00  0.00    -0.503 OA
ATOM     21  H   UNL     1       1.500  -1.486   4.168  0.00  0.00    +0.292 HD
ENDBRANCH  19  20
BRANCH  14  22
ATOM     22  O   UNL     1       0.169  -0.556   1.528  0.00  0.00    -0.489 OA
BRANCH  22  24
ATOM     23  C   UNL     1      -1.074   1.365   0.752  0.00  0.00    +0.048 C 
ATOM     24  C   UNL     1      -0.785  -0.124   0.556  0.00  0.00    +0.226 C 
ENDBRANCH  22  24
ENDBRANCH  14  22
ENDBRANCH   1  16
BRANCH   8  25
ATOM     25  S   UNL     1      -2.493  -6.642   4.448  0.00  0.00    -0.084 S 
BRANCH  25  26
ATOM     26  C   UNL     1      -4.010  -5.659   4.604  0.00  0.00    +0.113 C 
BRANCH  26  27
ATOM     27  C   UNL     1      -4.595  -5.854   5.979  0.00  0.00    -0.019 A 
ATOM     28  C   UNL     1      -5.500  -6.873   6.207  0.00  0.00    +0.006 A 
ATOM     29  C   UNL     1      -6.037  -7.052   7.469  0.00  0.00    +0.000 A 
ATOM     30  C   UNL     1      -5.668  -6.212   8.503  0.00  0.00    +0.001 A 
ATOM     31  C   UNL     1      -4.763  -5.193   8.276  0.00  0.00    +0.020 A 
ATOM     32  C   UNL     1      -4.221  -5.017   7.015  0.00  0.00    +0.045 A 
ATOM     33 CL   UNL     1      -3.079  -3.741   6.731  0.00  0.00    -0.083 Cl
ENDBRANCH  26  27
ENDBRANCH  25  26
ENDBRANCH   8  25
TORSDOF 7
