REMARK  Name = ZINC64471536
REMARK  10 active torsions:
REMARK  status: ('A' for Active; 'I' for Inactive)
REMARK    1  A    between atoms: C_1  and  C_2
REMARK    2  A    between atoms: C_5  and  N_8
REMARK    3  A    between atoms: C_11  and  C_34
REMARK    4  A    between atoms: C_13  and  N_15
REMARK    5  A    between atoms: N_15  and  C_16
REMARK    6  A    between atoms: C_19  and  N_22
REMARK    7  A    between atoms: N_22  and  S_23
REMARK    8  A    between atoms: S_23  and  C_26
REMARK    9  A    between atoms: C_29  and  O_32
REMARK   10  A    between atoms: O_32  and  C_33
REMARK                            x       y       z     vdW  Elec       q    Type
REMARK                         _______ _______ _______ _____ _____    ______ ____
ROOT
ATOM      1  C   UNL     1      -0.171  -8.856   3.579  0.00  0.00    +0.032 A 
ATOM      2  C   UNL     1      -0.239  -8.110   4.747  0.00  0.00    +0.025 A 
ATOM      3  C   UNL     1      -0.345  -8.746   5.968  0.00  0.00    +0.026 A 
ATOM      4  C   UNL     1      -0.384 -10.133   6.027  0.00  0.00    +0.048 A 
ATOM      5  C   UNL     1      -0.317 -10.880   4.857  0.00  0.00    +0.026 A 
ATOM      6  C   UNL     1      -0.216 -10.243   3.637  0.00  0.00    +0.025 A 
ENDROOT
BRANCH   1   7
ATOM      7  N   UNL     1      -0.063  -8.210   2.340  0.00  0.00    -0.299 N 
ATOM      8  H   UNL     1      -0.464  -8.606   1.550  0.00  0.00    +0.154 HD
BRANCH   7  14
ATOM      9  N   UNL     1       2.589  -4.878   4.313  0.00  0.00    -0.284 N 
ATOM     10  C   UNL     1       1.918  -5.363   3.203  0.00  0.00    +0.221 A 
ATOM     11  N   UNL     1       1.943  -4.664   2.077  0.00  0.00    -0.219 NA
ATOM     12  C   UNL     1       1.314  -5.096   0.994  0.00  0.00    +0.045 A 
ATOM     13  C   UNL     1       0.624  -6.292   1.044  0.00  0.00    +0.067 A 
ATOM     14  C   UNL     1       0.616  -7.006   2.244  0.00  0.00    +0.128 A 
ATOM     15  N   UNL     1       1.273  -6.516   3.291  0.00  0.00    -0.199 NA
ATOM     16  C   UNL     1       1.351  -4.290  -0.280  0.00  0.00    +0.066 C 
ATOM     17  H   UNL     1       2.646  -5.416   5.118  0.00  0.00    +0.155 HD
BRANCH   9  22
ATOM     18  C   UNL     1       4.997   0.255   4.156  0.00  0.00    +0.044 C 
ATOM     19  C   UNL     1       4.358  -1.109   4.197  0.00  0.00    -0.050 A 
ATOM     20  C   UNL     1       3.189  -1.344   3.496  0.00  0.00    +0.005 A 
ATOM     21  C   UNL     1       2.600  -2.593   3.533  0.00  0.00    +0.023 A 
ATOM     22  C   UNL     1       3.183  -3.613   4.274  0.00  0.00    +0.034 A 
ATOM     23  C   UNL     1       4.357  -3.373   4.977  0.00  0.00    +0.023 A 
ATOM     24  C   UNL     1       4.943  -2.123   4.932  0.00  0.00    +0.005 A 
ENDBRANCH   9  22
ENDBRANCH   7  14
ENDBRANCH   1   7
BRANCH   4  25
ATOM     25  N   UNL     1      -0.491 -10.779   7.264  0.00  0.00    -0.216 N 
ATOM     26  H   UNL     1       0.067 -10.499   8.006  0.00  0.00    +0.174 HD
BRANCH  25  27
ATOM     27  S   UNL     1      -1.571 -12.019   7.460  0.00  0.00    +0.072 S 
ATOM     28  O   UNL     1      -1.335 -12.935   6.400  0.00  0.00    -0.150 OA
ATOM     29  O   UNL     1      -1.506 -12.402   8.827  0.00  0.00    -0.150 OA
BRANCH  27  30
ATOM     30  C   UNL     1      -3.182 -11.353   7.200  0.00  0.00    +0.109 A 
ATOM     31  C   UNL     1      -3.848 -10.732   8.241  0.00  0.00    +0.032 A 
ATOM     32  C   UNL     1      -5.111 -10.209   8.040  0.00  0.00    +0.047 A 
ATOM     33  C   UNL     1      -5.711 -10.308   6.793  0.00  0.00    +0.120 A 
ATOM     34  C   UNL     1      -5.040 -10.932   5.750  0.00  0.00    +0.047 A 
ATOM     35  C   UNL     1      -3.775 -11.448   5.955  0.00  0.00    +0.032 A 
BRANCH  33  36
ATOM     36  O   UNL     1      -6.953  -9.796   6.593  0.00  0.00    -0.495 OA
ATOM     37  C   UNL     1      -7.509  -9.934   5.283  0.00  0.00    +0.277 C 
ENDBRANCH  33  36
ENDBRANCH  27  30
ENDBRANCH  25  27
ENDBRANCH   4  25
TORSDOF 7
