REMARK  Name = ZINC39635894
REMARK  5 active torsions:
REMARK  status: ('A' for Active; 'I' for Inactive)
REMARK    1  A    between atoms: C_1  and  C_2
REMARK    2  A    between atoms: C_5  and  C_9
REMARK    3  A    between atoms: C_13  and  C_22
REMARK    4  A    between atoms: N_24  and  C_25
REMARK    5  A    between atoms: C_31  and  C_33
REMARK                            x       y       z     vdW  Elec       q    Type
REMARK                         _______ _______ _______ _____ _____    ______ ____
ROOT
ATOM      1  C   UNL     1       0.053  -4.267  -0.031  0.00  0.00    +0.247 C 
ATOM      2  O   UNL     1       0.104  -3.052  -0.027  0.00  0.00    -0.270 OA
ATOM      3  N   UNL     1      -0.032  -4.941   1.133  0.00  0.00    -0.296 N 
ATOM      4  C   UNL     1      -0.156  -4.382   2.500  0.00  0.00    +0.121 C 
ATOM      5  C   UNL     1      -1.150  -5.322   3.218  0.00  0.00    +0.100 C 
ATOM      6  C   UNL     1      -1.057  -6.652   2.450  0.00  0.00    -0.004 C 
ATOM      7  C   UNL     1      -0.030  -6.410   1.335  0.00  0.00    +0.115 C 
ATOM      8  C   UNL     1      -2.411  -7.007   1.844  0.00  0.00    -0.010 C 
ATOM      9  C   UNL     1      -2.308  -8.360   1.134  0.00  0.00    -0.082 C 
ATOM     10  N   UNL     1      -1.894  -9.389   2.096  0.00  0.00    +0.379 N 
ATOM     11  C   UNL     1      -0.551  -9.088   2.605  0.00  0.00    -0.082 C 
ATOM     12  C   UNL     1      -0.580  -7.765   3.377  0.00  0.00    -0.010 C 
ATOM     13  H   UNL     1      -2.547  -9.410   2.866  0.00  0.00    -0.086 HD
ATOM     14  H   UNL     1      -1.886 -10.290   1.641  0.00  0.00    -0.086 HD
ENDROOT
BRANCH   1  19
ATOM     15  C   UNL     1       0.177  -7.133  -5.021  0.00  0.00    +0.047 C 
ATOM     16  C   UNL     1       0.144  -6.383  -3.714  0.00  0.00    -0.015 A 
ATOM     17  C   UNL     1      -0.482  -5.152  -3.642  0.00  0.00    +0.007 A 
ATOM     18  C   UNL     1      -0.515  -4.460  -2.449  0.00  0.00    +0.013 A 
ATOM     19  C   UNL     1       0.085  -5.004  -1.312  0.00  0.00    +0.040 A 
ATOM     20  C   UNL     1       0.716  -6.246  -1.389  0.00  0.00    +0.051 A 
ATOM     21  C   UNL     1       0.738  -6.932  -2.589  0.00  0.00    +0.127 A 
ATOM     22  F   UNL     1       1.343  -8.138  -2.666  0.00  0.00    -0.205 F 
ENDBRANCH   1  19
BRANCH   5  23
ATOM     23  C   UNL     1      -2.548  -4.766   3.140  0.00  0.00    +0.218 C 
ATOM     24  O   UNL     1      -2.905  -4.159   2.153  0.00  0.00    -0.275 OA
ATOM     25  N   UNL     1      -3.401  -4.941   4.169  0.00  0.00    -0.312 N 
ATOM     26  H   UNL     1      -3.115  -5.426   4.959  0.00  0.00    +0.149 HD
BRANCH  25  27
ATOM     27  C   UNL     1      -4.761  -4.400   4.094  0.00  0.00    +0.076 C 
ATOM     28  C   UNL     1      -5.666  -5.394   3.364  0.00  0.00    +0.022 C 
ATOM     29  C   UNL     1      -7.085  -4.829   3.285  0.00  0.00    +0.002 C 
ATOM     30  C   UNL     1      -7.620  -4.596   4.700  0.00  0.00    +0.000 C 
ATOM     31  C   UNL     1      -6.715  -3.601   5.429  0.00  0.00    +0.005 C 
ATOM     32  C   UNL     1      -5.295  -4.166   5.508  0.00  0.00    +0.006 C 
ATOM     33  C   UNL     1      -4.390  -3.172   6.238  0.00  0.00    +0.009 C 
ENDBRANCH  25  27
ENDBRANCH   5  23
TORSDOF 3
