REMARK  Name = ZINC14671951
REMARK  5 active torsions:
REMARK  status: ('A' for Active; 'I' for Inactive)
REMARK    1  A    between atoms: C_7  and  C_11
REMARK    2  A    between atoms: C_11  and  C_12
REMARK    3  A    between atoms: C_12  and  N_13
REMARK    4  A    between atoms: N_13  and  C_14
REMARK    5  A    between atoms: N_19  and  C_22
REMARK                            x       y       z     vdW  Elec       q    Type
REMARK                         _______ _______ _______ _____ _____    ______ ____
ROOT
ATOM      1  N   UNL     1      -0.922  -4.921  -1.230  0.00  0.00    +0.387 N 
ATOM      2  H   UNL     1      -0.430  -5.742  -0.910  0.00  0.00    -0.085 HD
ATOM      3  H   UNL     1      -1.809  -4.854  -0.753  0.00  0.00    -0.085 HD
ENDROOT
BRANCH   1   4
ATOM      4  C   UNL     1      -1.153  -5.022  -2.678  0.00  0.00    +0.026 C 
ATOM      5  C   UNL     1      -1.933  -6.308  -3.015  0.00  0.00    +0.090 C 
ATOM      6  C   UNL     1      -3.211  -5.794  -3.642  0.00  0.00    +0.225 C 
ATOM      7  O   UNL     1      -4.117  -6.484  -4.056  0.00  0.00    -0.275 OA
ATOM      8  N   UNL     1      -3.182  -4.456  -3.666  0.00  0.00    -0.212 N 
ATOM      9  C   UNL     1      -2.068  -3.913  -3.150  0.00  0.00    +0.213 C 
ATOM     10  O   UNL     1      -1.831  -2.727  -3.072  0.00  0.00    -0.277 OA
BRANCH   8  11
ATOM     11  C   UNL     1      -4.229  -3.683  -4.189  0.00  0.00    +0.045 A 
ATOM     12  C   UNL     1      -4.035  -2.945  -5.349  0.00  0.00    +0.025 A 
ATOM     13  C   UNL     1      -5.067  -2.186  -5.864  0.00  0.00    +0.023 A 
ATOM     14  C   UNL     1      -6.294  -2.159  -5.224  0.00  0.00    +0.059 A 
ATOM     15  C   UNL     1      -6.490  -2.893  -4.067  0.00  0.00    +0.061 A 
ATOM     16  C   UNL     1      -5.461  -3.659  -3.551  0.00  0.00    +0.045 A 
ATOM     17 CL   UNL     1      -8.030  -2.857  -3.266  0.00  0.00    -0.082 Cl
ATOM     18 CL   UNL     1      -7.589  -1.202  -5.873  0.00  0.00    -0.082 Cl
ENDBRANCH   8  11
ENDBRANCH   1   4
BRANCH   1  19
ATOM     19  C   UNL     1      -0.120  -3.725  -0.944  0.00  0.00    -0.077 C 
BRANCH  19  20
ATOM     20  C   UNL     1       0.120  -3.620   0.564  0.00  0.00    +0.018 C 
BRANCH  20  27
ATOM     21  C   UNL     1      -0.971   0.891   1.223  0.00  0.00    +0.001 A 
ATOM     22  C   UNL     1       0.140   1.685   1.473  0.00  0.00    +0.002 A 
ATOM     23  C   UNL     1       1.403   1.135   1.508  0.00  0.00    +0.026 A 
ATOM     24  C   UNL     1       1.569  -0.229   1.292  0.00  0.00    +0.047 A 
ATOM     25  C   UNL     1       0.440  -1.029   1.039  0.00  0.00    +0.003 A 
ATOM     26  C   UNL     1      -0.830  -0.451   1.008  0.00  0.00    +0.010 A 
ATOM     27  C   UNL     1       0.943  -2.393   0.857  0.00  0.00    -0.024 A 
ATOM     28  C   UNL     1       2.277  -2.342   1.002  0.00  0.00    +0.087 A 
ATOM     29  N   UNL     1       2.669  -1.057   1.262  0.00  0.00    -0.360 N 
ATOM     30  H   UNL     1       3.585  -0.772   1.405  0.00  0.00    +0.165 HD
ENDBRANCH  20  27
ENDBRANCH  19  20
ENDBRANCH   1  19
TORSDOF 5
