REMARK  Name = ZINC39357281
REMARK  5 active torsions:
REMARK  status: ('A' for Active; 'I' for Inactive)
REMARK    1  A    between atoms: C_1  and  C_2
REMARK    2  A    between atoms: C_8  and  C_29
REMARK    3  A    between atoms: N_16  and  C_17
REMARK    4  A    between atoms: C_17  and  C_18
REMARK    5  A    between atoms: C_18  and  C_19
REMARK                            x       y       z     vdW  Elec       q    Type
REMARK                         _______ _______ _______ _____ _____    ______ ____
ROOT
ATOM      1  C   UNL     1      -0.019   1.526   0.010  0.00  0.00    +0.024 C 
ATOM      2  C   UNL     1       0.002  -0.004   0.002  0.00  0.00    +0.062 C 
ATOM      3  C   UNL     1      -1.434  -0.540   0.026  0.00  0.00    +0.114 C 
ATOM      4  C   UNL     1      -1.376  -2.039   0.155  0.00  0.00    +0.221 C 
ATOM      5  O   UNL     1      -2.307  -2.706  -0.243  0.00  0.00    -0.275 OA
ATOM      6  N   UNL     1      -0.317  -2.653   0.701  0.00  0.00    -0.249 N 
ATOM      7  C   UNL     1      -0.314  -4.124   0.803  0.00  0.00    +0.178 C 
ATOM      8  N   UNL     1       0.216  -4.523   2.104  0.00  0.00    -0.342 N 
ATOM      9  C   UNL     1       0.863  -3.725   2.888  0.00  0.00    +0.157 C 
ATOM     10  N   UNL     1       1.086  -2.404   2.586  0.00  0.00    -0.288 N 
ATOM     11  C   UNL     1       0.858  -1.943   1.205  0.00  0.00    +0.238 C 
ATOM     12  N   UNL     1       0.700  -0.495   1.194  0.00  0.00    -0.280 NA
ATOM     13  N   UNL     1       1.349  -4.220   4.075  0.00  0.00    -0.318 N 
ATOM     14  H   UNL     1       1.388  -1.785   3.269  0.00  0.00    +0.152 HD
ATOM     15  H   UNL     1       1.204  -5.150   4.309  0.00  0.00    +0.149 HD
ATOM     16  H   UNL     1       1.589  -0.033   1.309  0.00  0.00    +0.125 HD
ATOM     17  H   UNL     1       0.074  -5.438   2.396  0.00  0.00    +0.164 HD
ENDROOT
BRANCH   7  18
ATOM     18  C   UNL     1       0.564  -4.709  -0.304  0.00  0.00    +0.034 C 
ATOM     19  C   UNL     1       0.004  -4.304  -1.674  0.00  0.00    +0.011 C 
ATOM     20  C   UNL     1       0.994  -4.750  -2.752  0.00  0.00    +0.027 C 
ATOM     21  C   UNL     1       1.376  -6.186  -2.543  0.00  0.00    -0.031 C 
ATOM     22  C   UNL     1       1.190  -6.831  -1.436  0.00  0.00    -0.031 C 
ATOM     23  C   UNL     1       0.563  -6.237  -0.208  0.00  0.00    +0.034 C 
ENDBRANCH   7  18
BRANCH  13  24
ATOM     24  C   UNL     1       2.088  -3.342   4.987  0.00  0.00    +0.109 C 
BRANCH  24  25
ATOM     25  C   UNL     1       2.514  -4.135   6.224  0.00  0.00    +0.056 C 
BRANCH  25  26
ATOM     26  C   UNL     1       3.273  -3.232   7.162  0.00  0.00    -0.021 A 
ATOM     27  C   UNL     1       4.606  -3.088   7.227  0.00  0.00    +0.087 A 
ATOM     28  N   UNL     1       4.931  -2.181   8.199  0.00  0.00    -0.360 N 
ATOM     29  H   UNL     1       5.833  -1.912   8.431  0.00  0.00    +0.165 HD
ATOM     30  C   UNL     1       3.785  -1.708   8.799  0.00  0.00    +0.047 A 
ATOM     31  C   UNL     1       2.696  -2.341   8.171  0.00  0.00    +0.003 A 
ATOM     32  C   UNL     1       1.393  -2.046   8.575  0.00  0.00    +0.010 A 
ATOM     33  C   UNL     1       1.181  -1.141   9.576  0.00  0.00    +0.001 A 
ATOM     34  C   UNL     1       2.251  -0.512  10.196  0.00  0.00    +0.002 A 
ATOM     35  C   UNL     1       3.546  -0.794   9.820  0.00  0.00    +0.026 A 
ENDBRANCH  25  26
ENDBRANCH  24  25
ENDBRANCH  13  24
TORSDOF 4
