REMARK  Name = ZINC65063384
REMARK  13 active torsions:
REMARK  status: ('A' for Active; 'I' for Inactive)
REMARK    1  A    between atoms: C_1  and  C_2
REMARK    2  A    between atoms: C_2  and  C_3
REMARK    3  A    between atoms: C_3  and  C_4
REMARK    4  A    between atoms: C_4  and  C_5
REMARK    5  A    between atoms: C_5  and  N_6
REMARK    6  A    between atoms: C_7  and  C_9
REMARK    7  A    between atoms: C_12  and  O_15
REMARK    8  A    between atoms: O_15  and  C_16
REMARK    9  A    between atoms: C_19  and  N_22
REMARK   10  A    between atoms: N_22  and  S_23
REMARK   11  A    between atoms: S_23  and  C_26
REMARK   12  A    between atoms: C_29  and  N_32
REMARK   13  A    between atoms: C_33  and  C_35
REMARK                            x       y       z     vdW  Elec       q    Type
REMARK                         _______ _______ _______ _____ _____    ______ ____
ROOT
ATOM      1  C   UNL     1      -2.545 -10.838   0.190  0.00  0.00    +0.130 A 
ATOM      2  C   UNL     1      -1.325 -10.181   0.270  0.00  0.00    +0.048 A 
ATOM      3  C   UNL     1      -0.148 -10.892   0.145  0.00  0.00    +0.028 A 
ATOM      4  C   UNL     1      -0.185 -12.265  -0.062  0.00  0.00    +0.048 A 
ATOM      5  C   UNL     1      -1.406 -12.922  -0.141  0.00  0.00    +0.028 A 
ATOM      6  C   UNL     1      -2.582 -12.210  -0.011  0.00  0.00    +0.048 A 
ENDROOT
BRANCH   4   7
ATOM      7  N   UNL     1       1.007 -12.986  -0.190  0.00  0.00    -0.216 N 
ATOM      8  H   UNL     1       1.714 -12.656  -0.767  0.00  0.00    +0.174 HD
BRANCH   7   9
ATOM      9  S   UNL     1       1.212 -14.402   0.643  0.00  0.00    +0.072 S 
ATOM     10  O   UNL     1       0.041 -15.177   0.422  0.00  0.00    -0.150 OA
ATOM     11  O   UNL     1       2.512 -14.878   0.323  0.00  0.00    -0.150 OA
BRANCH   9  12
ATOM     12  C   UNL     1       1.232 -14.000   2.359  0.00  0.00    +0.109 A 
ATOM     13  C   UNL     1       2.409 -13.591   2.958  0.00  0.00    +0.030 A 
ATOM     14  C   UNL     1       2.429 -13.275   4.302  0.00  0.00    +0.025 A 
ATOM     15  C   UNL     1       1.264 -13.367   5.052  0.00  0.00    +0.033 A 
ATOM     16  C   UNL     1       0.083 -13.777   4.447  0.00  0.00    +0.025 A 
ATOM     17  C   UNL     1       0.069 -14.087   3.102  0.00  0.00    +0.030 A 
BRANCH  15  18
ATOM     18  N   UNL     1       1.280 -13.047   6.414  0.00  0.00    -0.286 N 
ATOM     19  C   UNL     1       2.084 -12.065   6.867  0.00  0.00    +0.214 C 
ATOM     20  O   UNL     1       2.729 -11.400   6.083  0.00  0.00    -0.276 OA
ATOM     21  C   UNL     1       2.184 -11.794   8.346  0.00  0.00    +0.109 C 
ATOM     22  H   UNL     1       0.712 -13.533   7.033  0.00  0.00    +0.155 HD
ENDBRANCH  15  18
ENDBRANCH   9  12
ENDBRANCH   7   9
ENDBRANCH   4   7
BRANCH   1  23
ATOM     23  O   UNL     1      -3.703 -10.138   0.314  0.00  0.00    -0.438 OA
BRANCH  23  27
ATOM     24  C   UNL     1      -4.896  -7.879  -2.863  0.00  0.00    +0.055 A 
ATOM     25  C   UNL     1      -5.744  -7.978  -1.750  0.00  0.00    +0.020 A 
ATOM     26  C   UNL     1      -5.338  -8.738  -0.685  0.00  0.00    +0.068 A 
ATOM     27  C   UNL     1      -4.107  -9.385  -0.738  0.00  0.00    +0.220 A 
ATOM     28  N   UNL     1      -3.324  -9.275  -1.800  0.00  0.00    -0.220 NA
ATOM     29  C   UNL     1      -3.678  -8.560  -2.848  0.00  0.00    +0.127 A 
BRANCH  24  31
ATOM     30  N   UNL     1      -4.469  -6.989  -5.101  0.00  0.00    -0.311 N 
ATOM     31  C   UNL     1      -5.289  -7.072  -4.035  0.00  0.00    +0.246 C 
ATOM     32  O   UNL     1      -6.352  -6.483  -4.038  0.00  0.00    -0.270 OA
ATOM     33  H   UNL     1      -3.620  -7.459  -5.098  0.00  0.00    +0.149 HD
BRANCH  30  34
ATOM     34  C   UNL     1      -4.859  -6.187  -6.264  0.00  0.00    +0.104 C 
BRANCH  34  35
ATOM     35  C   UNL     1      -3.759  -6.261  -7.325  0.00  0.00    +0.019 C 
BRANCH  35  36
ATOM     36  C   UNL     1      -4.166  -5.424  -8.540  0.00  0.00    +0.001 C 
BRANCH  36  38
ATOM     37  C   UNL     1      -3.474  -4.660 -10.816  0.00  0.00    +0.004 C 
ATOM     38  C   UNL     1      -3.067  -5.497  -9.601  0.00  0.00    -0.003 C 
ENDBRANCH  36  38
ENDBRANCH  35  36
ENDBRANCH  34  35
ENDBRANCH  30  34
ENDBRANCH  24  31
ENDBRANCH  23  27
ENDBRANCH   1  23
TORSDOF 11
