REMARK  Name = ZINC39660292
REMARK  9 active torsions:
REMARK  status: ('A' for Active; 'I' for Inactive)
REMARK    1  A    between atoms: C_1  and  C_2
REMARK    2  A    between atoms: C_2  and  C_3
REMARK    3  A    between atoms: C_3  and  C_4
REMARK    4  A    between atoms: C_4  and  C_5
REMARK    5  A    between atoms: C_5  and  C_6
REMARK    6  A    between atoms: C_6  and  N_7
REMARK    7  A    between atoms: C_8  and  C_10
REMARK    8  A    between atoms: C_21  and  C_23
REMARK    9  A    between atoms: C_26  and  C_30
REMARK                            x       y       z     vdW  Elec       q    Type
REMARK                         _______ _______ _______ _____ _____    ______ ____
ROOT
ATOM      1  C   UNL     1       3.470  -6.352   5.665  0.00  0.00    +0.100 C 
ATOM      2  C   UNL     1       2.511  -5.773   6.728  0.00  0.00    +0.121 C 
ATOM      3  N   UNL     1       1.590  -6.888   7.050  0.00  0.00    -0.296 N 
ATOM      4  C   UNL     1       2.457  -8.091   7.060  0.00  0.00    +0.115 C 
ATOM      5  C   UNL     1       3.435  -7.873   5.888  0.00  0.00    -0.004 C 
ATOM      6  C   UNL     1       2.921  -8.580   4.637  0.00  0.00    -0.010 C 
ATOM      7  C   UNL     1       2.949 -10.094   4.863  0.00  0.00    -0.082 C 
ATOM      8  N   UNL     1       4.321 -10.521   5.162  0.00  0.00    +0.379 N 
ATOM      9  C   UNL     1       4.774  -9.909   6.417  0.00  0.00    -0.082 C 
ATOM     10  C   UNL     1       4.823  -8.387   6.257  0.00  0.00    -0.010 C 
ATOM     11  C   UNL     1       0.264  -6.824   7.280  0.00  0.00    +0.247 C 
ATOM     12  O   UNL     1      -0.333  -5.779   7.111  0.00  0.00    -0.270 OA
ATOM     13  H   UNL     1       4.348 -11.525   5.251  0.00  0.00    -0.086 HD
ATOM     14  H   UNL     1       4.932 -10.236   4.411  0.00  0.00    -0.086 HD
ENDROOT
BRANCH  11  15
ATOM     15  C   UNL     1      -0.466  -8.026   7.739  0.00  0.00    +0.040 A 
ATOM     16  C   UNL     1       0.225  -9.077   8.344  0.00  0.00    +0.014 A 
ATOM     17  C   UNL     1      -0.460 -10.195   8.770  0.00  0.00    +0.016 A 
ATOM     18  C   UNL     1      -1.830 -10.278   8.600  0.00  0.00    +0.090 A 
ATOM     19  C   UNL     1      -2.524  -9.239   8.001  0.00  0.00    +0.136 A 
ATOM     20  C   UNL     1      -1.849  -8.111   7.574  0.00  0.00    +0.052 A 
ATOM     21  F   UNL     1      -3.862  -9.327   7.837  0.00  0.00    -0.205 F 
BRANCH  18  22
ATOM     22  C   UNL     1      -2.572 -11.503   9.069  0.00  0.00    +0.420 C 
ATOM     23  F   UNL     1      -1.668 -12.407   9.636  0.00  0.00    -0.166 F 
ATOM     24  F   UNL     1      -3.525 -11.134  10.025  0.00  0.00    -0.166 F 
ATOM     25  F   UNL     1      -3.212 -12.105   7.981  0.00  0.00    -0.166 F 
ENDBRANCH  18  22
ENDBRANCH  11  15
BRANCH   1  27
ATOM     26  N   UNL     1       3.852  -5.984   3.248  0.00  0.00    -0.315 N 
ATOM     27  C   UNL     1       2.984  -6.014   4.279  0.00  0.00    +0.218 C 
ATOM     28  O   UNL     1       1.811  -5.769   4.091  0.00  0.00    -0.275 OA
ATOM     29  H   UNL     1       4.790  -6.181   3.399  0.00  0.00    +0.149 HD
BRANCH  26  30
ATOM     30  C   UNL     1       3.379  -5.655   1.901  0.00  0.00    +0.104 C 
BRANCH  30  31
ATOM     31  C   UNL     1       4.556  -5.691   0.925  0.00  0.00    +0.019 C 
BRANCH  31  32
ATOM     32  C   UNL     1       4.062  -5.348  -0.482  0.00  0.00    +0.002 C 
BRANCH  32  33
ATOM     33  C   UNL     1       5.239  -5.383  -1.459  0.00  0.00    -0.000 C 
BRANCH  33  35
ATOM     34  C   UNL     1       5.923  -5.075  -3.842  0.00  0.00    +0.004 C 
ATOM     35  C   UNL     1       4.745  -5.040  -2.865  0.00  0.00    -0.003 C 
ENDBRANCH  33  35
ENDBRANCH  32  33
ENDBRANCH  31  32
ENDBRANCH  30  31
ENDBRANCH  26  30
ENDBRANCH   1  27
TORSDOF 8
