REMARK  Name = ZINC20725280
REMARK  5 active torsions:
REMARK  status: ('A' for Active; 'I' for Inactive)
REMARK    1  A    between atoms: C_1  and  O_2
REMARK    2  A    between atoms: O_2  and  C_3
REMARK    3  A    between atoms: C_3  and  C_5
REMARK    4  A    between atoms: C_8  and  N_11
REMARK    5  A    between atoms: C_23  and  C_25
REMARK                            x       y       z     vdW  Elec       q    Type
REMARK                         _______ _______ _______ _____ _____    ______ ____
ROOT
ATOM      1  N   UNL     1       0.676  -7.205  -0.631  0.00  0.00    -0.269 N 
ATOM      2  C   UNL     1       1.084  -7.391  -1.902  0.00  0.00    +0.307 C 
ATOM      3  O   UNL     1       1.234  -6.436  -2.638  0.00  0.00    -0.252 OA
ATOM      4  N   UNL     1       1.325  -8.637  -2.356  0.00  0.00    -0.272 N 
ATOM      5  C   UNL     1       0.970  -9.815  -1.550  0.00  0.00    +0.116 C 
ATOM      6  C   UNL     1       2.251 -10.568  -1.170  0.00  0.00    +0.074 C 
ATOM      7  C   UNL     1       3.129 -10.678  -2.389  0.00  0.00    +0.040 A 
ATOM      8  C   UNL     1       3.006  -9.920  -3.499  0.00  0.00    +0.062 A 
ATOM      9  N   UNL     1       3.952 -10.292  -4.364  0.00  0.00    -0.348 N 
ATOM     10  C   UNL     1       4.659 -11.257  -3.835  0.00  0.00    +0.171 A 
ATOM     11  N   UNL     1       4.173 -11.527  -2.601  0.00  0.00    -0.349 N 
ATOM     12  H   UNL     1       4.506 -12.197  -1.984  0.00  0.00    +0.166 HD
ATOM     13  C   UNL     1       1.946  -8.853  -3.675  0.00  0.00    +0.157 C 
ATOM     14  H   UNL     1       0.588  -7.964  -0.033  0.00  0.00    +0.156 HD
ATOM     15  H   UNL     1       4.093  -9.909  -5.243  0.00  0.00    +0.167 HD
ENDROOT
BRANCH  13  16
ATOM     16  C   UNL     1       0.905  -9.315  -4.662  0.00  0.00    -0.003 A 
ATOM     17  C   UNL     1       0.643 -10.665  -4.808  0.00  0.00    +0.009 A 
ATOM     18  C   UNL     1      -0.311 -11.090  -5.713  0.00  0.00    +0.020 A 
ATOM     19  C   UNL     1      -1.005 -10.165  -6.473  0.00  0.00    +0.042 A 
ATOM     20  C   UNL     1      -0.744  -8.815  -6.327  0.00  0.00    +0.040 A 
ATOM     21  C   UNL     1       0.208  -8.389  -5.417  0.00  0.00    +0.048 A 
ATOM     22 CL   UNL     1       0.532  -6.694  -5.229  0.00  0.00    -0.083 Cl
ATOM     23 CL   UNL     1      -2.203 -10.700  -7.610  0.00  0.00    -0.083 Cl
ENDBRANCH  13  16
BRANCH   1  27
ATOM     24  C   UNL     1      -0.204  -3.368   0.732  0.00  0.00    +0.059 A 
ATOM     25  C   UNL     1      -0.829  -4.477   1.309  0.00  0.00    +0.017 A 
ATOM     26  C   UNL     1      -0.535  -5.744   0.857  0.00  0.00    +0.024 A 
ATOM     27  C   UNL     1       0.382  -5.920  -0.175  0.00  0.00    +0.035 A 
ATOM     28  C   UNL     1       1.006  -4.819  -0.752  0.00  0.00    +0.024 A 
ATOM     29  C   UNL     1       0.713  -3.549  -0.308  0.00  0.00    +0.017 A 
BRANCH  24  30
ATOM     30  C   UNL     1      -0.516  -2.010   1.214  0.00  0.00    +0.339 C 
ATOM     31  O   UNL     1       0.024  -1.046   0.707  0.00  0.00    -0.245 OA
BRANCH  30  33
ATOM     32  C   UNL     1      -1.654  -0.494   2.632  0.00  0.00    +0.280 C 
ATOM     33  O   UNL     1      -1.400  -1.837   2.216  0.00  0.00    -0.464 OA
ENDBRANCH  30  33
ENDBRANCH  24  30
ENDBRANCH   1  27
TORSDOF 4
