REMARK  Name = ZINC23469481
REMARK  7 active torsions:
REMARK  status: ('A' for Active; 'I' for Inactive)
REMARK    1  A    between atoms: N_9  and  C_10
REMARK    2  A    between atoms: C_10  and  C_12
REMARK    3  A    between atoms: C_10  and  N_30
REMARK    4  A    between atoms: C_12  and  N_14
REMARK    5  A    between atoms: C_12  and  N_21
REMARK    6  A    between atoms: N_14  and  C_15
REMARK    7  A    between atoms: N_30  and  C_31
REMARK                            x       y       z     vdW  Elec       q    Type
REMARK                         _______ _______ _______ _____ _____    ______ ____
ROOT
ATOM      1  C   UNL     1      -0.795   1.527  -1.120  0.00  0.00    +0.093 C 
ENDROOT
BRANCH   1   2
ATOM      2  N   UNL     1      -0.545   0.709  -2.309  0.00  0.00    -0.255 N 
ATOM      3  C   UNL     1      -0.300   1.163  -3.583  0.00  0.00    +0.087 A 
ATOM      4  C   UNL     1      -0.208   2.426  -4.158  0.00  0.00    +0.029 A 
ATOM      5  C   UNL     1       0.055   2.548  -5.494  0.00  0.00    +0.002 A 
ATOM      6  C   UNL     1       0.233   1.419  -6.284  0.00  0.00    +0.002 A 
ATOM      7  C   UNL     1       0.148   0.169  -5.745  0.00  0.00    +0.032 A 
ATOM      8  C   UNL     1      -0.121   0.018  -4.378  0.00  0.00    +0.113 A 
ATOM      9  N   UNL     1      -0.260  -1.060  -3.579  0.00  0.00    -0.130 NA
ATOM     10  N   UNL     1      -0.502  -0.692  -2.371  0.00  0.00    -0.066 NA
ENDBRANCH   1   2
BRANCH   1  11
ATOM     11  N   UNL     1      -0.012   1.005   0.008  0.00  0.00    +0.398 N 
ATOM     12  H   UNL     1      -0.497   1.287   0.954  0.00  0.00    -0.082 HD
ATOM     13  H   UNL     1       0.046  -0.091  -0.062  0.00  0.00    -0.082 HD
BRANCH  11  14
ATOM     14  C   UNL     1       1.353   1.550  -0.003  0.00  0.00    -0.069 C 
ATOM     15  C   UNL     1       2.234   0.702  -0.922  0.00  0.00    -0.016 C 
ATOM     16  C   UNL     1       3.654   1.270  -0.933  0.00  0.00    -0.002 C 
ATOM     17  C   UNL     1       4.225   1.243   0.486  0.00  0.00    -0.000 C 
ATOM     18  C   UNL     1       3.344   2.091   1.406  0.00  0.00    -0.002 C 
ATOM     19  C   UNL     1       1.923   1.523   1.417  0.00  0.00    -0.016 C 
ENDBRANCH  11  14
ENDBRANCH   1  11
BRANCH   1  20
ATOM     20  C   UNL     1      -2.284   1.478  -0.772  0.00  0.00    +0.184 C 
BRANCH  20  29
ATOM     21  C   UNL     1      -3.496  -1.852   3.125  0.00  0.00    +0.002 A 
ATOM     22  C   UNL     1      -3.186  -0.503   3.248  0.00  0.00    +0.002 A 
ATOM     23  C   UNL     1      -2.889   0.245   2.144  0.00  0.00    +0.030 A 
ATOM     24  C   UNL     1      -2.897  -0.346   0.885  0.00  0.00    +0.091 A 
ATOM     25  C   UNL     1      -3.210  -1.710   0.754  0.00  0.00    +0.113 A 
ATOM     26  C   UNL     1      -3.510  -2.455   1.902  0.00  0.00    +0.032 A 
ATOM     27  N   UNL     1      -3.145  -2.021  -0.556  0.00  0.00    -0.129 NA
ATOM     28  N   UNL     1      -2.828  -0.982  -1.246  0.00  0.00    -0.063 NA
ATOM     29  N   UNL     1      -2.652   0.113  -0.388  0.00  0.00    -0.227 N 
ENDBRANCH  20  29
BRANCH  20  30
ATOM     30  N   UNL     1      -3.075   1.887  -1.941  0.00  0.00    -0.292 NA
ATOM     31  H   UNL     1      -2.532   2.667  -2.495  0.00  0.00    +0.124 HD
BRANCH  30  32
ATOM     32  C   UNL     1      -4.381   2.420  -1.533  0.00  0.00    +0.056 C 
ATOM     33  C   UNL     1      -5.369   1.266  -1.351  0.00  0.00    +0.019 C 
ATOM     34  C   UNL     1      -6.730   1.822  -0.926  0.00  0.00    +0.002 C 
ATOM     35  C   UNL     1      -7.251   2.774  -2.005  0.00  0.00    +0.000 C 
ATOM     36  C   UNL     1      -6.263   3.928  -2.186  0.00  0.00    +0.002 C 
ATOM     37  C   UNL     1      -4.902   3.373  -2.611  0.00  0.00    +0.019 C 
ENDBRANCH  30  32
ENDBRANCH  20  30
ENDBRANCH   1  20
TORSDOF 7
