REMARK  Name = ZINC15016972
REMARK  6 active torsions:
REMARK  status: ('A' for Active; 'I' for Inactive)
REMARK    1  A    between atoms: N_6  and  C_7
REMARK    2  A    between atoms: C_7  and  C_9
REMARK    3  A    between atoms: C_7  and  C_21
REMARK    4  A    between atoms: C_13  and  O_15
REMARK    5  A    between atoms: O_15  and  C_16
REMARK    6  A    between atoms: C_30  and  O_31
REMARK                            x       y       z     vdW  Elec       q    Type
REMARK                         _______ _______ _______ _____ _____    ______ ____
ROOT
ATOM      1  C   UNL     1       1.061   3.600   0.158  0.00  0.00    +0.136 C 
ENDROOT
BRANCH   1   2
ATOM      2  C   UNL     1       1.218   2.105   0.265  0.00  0.00    +0.021 A 
ATOM      3  C   UNL     1       0.087   1.294   0.253  0.00  0.00    +0.010 A 
ATOM      4  C   UNL     1       0.194  -0.060   0.348  0.00  0.00    +0.010 A 
ATOM      5  C   UNL     1       1.463  -0.652   0.460  0.00  0.00    +0.004 A 
ATOM      6  C   UNL     1       1.615  -2.048   0.560  0.00  0.00    +0.011 A 
ATOM      7  C   UNL     1       2.879  -2.553   0.669  0.00  0.00    +0.020 A 
ATOM      8  C   UNL     1       3.974  -1.690   0.675  0.00  0.00    +0.111 A 
ATOM      9  N   UNL     1       3.828  -0.391   0.580  0.00  0.00    -0.251 NA
ATOM     10  C   UNL     1       2.619   0.167   0.473  0.00  0.00    +0.113 A 
ATOM     11  C   UNL     1       2.469   1.566   0.372  0.00  0.00    +0.148 A 
BRANCH  11  12
ATOM     12  O   UNL     1       3.562   2.373   0.382  0.00  0.00    -0.504 OA
ATOM     13  H   UNL     1       3.929   2.549  -0.495  0.00  0.00    +0.292 HD
ENDBRANCH  11  12
ENDBRANCH   1   2
BRANCH   1  19
ATOM     14  C   UNL     1       0.811   3.528  -4.030  0.00  0.00    +0.005 A 
ATOM     15  C   UNL     1      -0.426   3.728  -4.631  0.00  0.00    +0.018 A 
ATOM     16  C   UNL     1      -1.529   3.979  -3.841  0.00  0.00    +0.084 A 
ATOM     17  C   UNL     1      -0.261   3.847  -1.916  0.00  0.00    +0.097 A 
ATOM     18  C   UNL     1       0.892   3.589  -2.651  0.00  0.00    +0.041 A 
ATOM     19  N   UNL     1      -0.194   3.911  -0.529  0.00  0.00    -0.320 N 
ATOM     20  H   UNL     1      -0.979   4.162  -0.017  0.00  0.00    +0.148 HD
ATOM     21  N   UNL     1      -1.487   4.040  -2.483  0.00  0.00    -0.350 N 
ATOM     22  H   UNL     1      -2.326   4.221  -1.919  0.00  0.00    +0.166 HD
ENDBRANCH   1  19
BRANCH   1  23
ATOM     23  C   UNL     1       1.040   4.203   1.539  0.00  0.00    -0.019 A 
ATOM     24  C   UNL     1      -0.086   4.077   2.331  0.00  0.00    +0.006 A 
ATOM     25  C   UNL     1      -0.107   4.625   3.600  0.00  0.00    +0.004 A 
ATOM     26  C   UNL     1       0.995   5.309   4.077  0.00  0.00    +0.045 A 
ATOM     27  C   UNL     1       2.125   5.441   3.283  0.00  0.00    +0.121 A 
ATOM     28  C   UNL     1       2.145   4.885   2.011  0.00  0.00    +0.051 A 
BRANCH  27  29
ATOM     29  O   UNL     1       3.210   6.112   3.749  0.00  0.00    -0.489 OA
BRANCH  29  30
ATOM     30  C   UNL     1       3.167   6.550   5.109  0.00  0.00    +0.173 C 
ATOM     31  C   UNL     1       2.487   7.931   5.198  0.00  0.00    +0.044 C 
ATOM     32  C   UNL     1       3.280   8.673   6.304  0.00  0.00    +0.004 C 
ATOM     33  C   UNL     1       4.736   8.209   6.051  0.00  0.00    +0.004 C 
ATOM     34  C   UNL     1       4.596   6.726   5.651  0.00  0.00    +0.044 C 
ENDBRANCH  29  30
ENDBRANCH  27  29
ENDBRANCH   1  23
TORSDOF 6
