REMARK  Name = ZINC25583983
REMARK  9 active torsions:
REMARK  status: ('A' for Active; 'I' for Inactive)
REMARK    1  A    between atoms: C_1  and  C_2
REMARK    2  A    between atoms: C_2  and  C_4
REMARK    3  A    between atoms: C_2  and  S_18
REMARK    4  A    between atoms: N_6  and  C_7
REMARK    5  A    between atoms: C_10  and  C_13
REMARK    6  A    between atoms: C_13  and  S_14
REMARK    7  A    between atoms: S_14  and  N_17
REMARK    8  A    between atoms: S_18  and  C_19
REMARK    9  A    between atoms: C_22  and  N_25
REMARK                            x       y       z     vdW  Elec       q    Type
REMARK                         _______ _______ _______ _____ _____    ______ ____
ROOT
ATOM      1  C   UNL     1       0.083   1.323  -0.022  0.00  0.00    +0.230 C 
ATOM      2  O   UNL     1       0.139   0.111  -0.029  0.00  0.00    -0.274 OA
ATOM      3  N   UNL     1      -1.114   1.942  -0.037  0.00  0.00    -0.285 N 
ATOM      4  H   UNL     1      -1.167   3.038   0.044  0.00  0.00    +0.155 HD
ENDROOT
BRANCH   3   5
ATOM      5  C   UNL     1      -2.289   1.192  -0.157  0.00  0.00    +0.033 A 
ATOM      6  C   UNL     1      -3.370   1.700  -0.864  0.00  0.00    +0.023 A 
ATOM      7  C   UNL     1      -4.526   0.954  -0.986  0.00  0.00    +0.007 A 
ATOM      8  C   UNL     1      -4.612  -0.293  -0.393  0.00  0.00    -0.025 A 
ATOM      9  C   UNL     1      -3.539  -0.799   0.318  0.00  0.00    +0.007 A 
ATOM     10  C   UNL     1      -2.378  -0.060   0.437  0.00  0.00    +0.023 A 
BRANCH   8  11
ATOM     11  C   UNL     1      -5.877  -1.101  -0.522  0.00  0.00    +0.219 C 
BRANCH  11  12
ATOM     12  S   UNL     1      -6.991  -0.705   0.854  0.00  0.00    +0.031 S 
ATOM     13  O   UNL     1      -6.442  -1.175   2.078  0.00  0.00    -0.158 OA
ATOM     14  O   UNL     1      -7.459   0.631   0.736  0.00  0.00    -0.158 OA
BRANCH  12  15
ATOM     15  N   UNL     1      -8.330  -1.647   0.603  0.00  0.00    -0.208 NA
ATOM     16  H   UNL     1      -9.062  -1.464   1.403  0.00  0.00    +0.144 HD
ATOM     17  H   UNL     1      -8.038  -2.708   0.607  0.00  0.00    +0.144 HD
ENDBRANCH  12  15
ENDBRANCH  11  12
ENDBRANCH   8  11
ENDBRANCH   3   5
BRANCH   1  19
ATOM     18  C   UNL     1       1.663   2.631  -1.415  0.00  0.00    +0.029 C 
ATOM     19  C   UNL     1       1.352   2.135  -0.001  0.00  0.00    +0.134 C 
BRANCH  19  20
ATOM     20  S   UNL     1       2.721   1.104   0.593  0.00  0.00    -0.113 S 
BRANCH  20  21
ATOM     21  C   UNL     1       4.042   2.245   0.830  0.00  0.00    +0.009 A 
ATOM     22  C   UNL     1       4.987   2.435  -0.171  0.00  0.00    +0.017 A 
ATOM     23  C   UNL     1       6.017   3.335   0.016  0.00  0.00    +0.034 A 
ATOM     24  C   UNL     1       6.117   4.037   1.203  0.00  0.00    +0.126 A 
ATOM     25  C   UNL     1       5.183   3.846   2.204  0.00  0.00    +0.034 A 
ATOM     26  C   UNL     1       4.146   2.953   2.022  0.00  0.00    +0.017 A 
BRANCH  24  27
ATOM     27  N   UNL     1       7.227   4.996   1.402  0.00  0.00    +0.056 N 
ATOM     28  O   UNL     1       7.316   5.616   2.447  0.00  0.00    -0.126 OA
ATOM     29  O   UNL     1       8.051   5.165   0.521  0.00  0.00    -0.126 OA
ENDBRANCH  24  27
ENDBRANCH  20  21
ENDBRANCH  19  20
ENDBRANCH   1  19
TORSDOF 8
