REMARK  Name = ZINC20152716
REMARK  9 active torsions:
REMARK  status: ('A' for Active; 'I' for Inactive)
REMARK    1  A    between atoms: C_4  and  C_7
REMARK    2  A    between atoms: C_7  and  N_8
REMARK    3  A    between atoms: C_11  and  N_14
REMARK    4  A    between atoms: C_15  and  C_17
REMARK    5  A    between atoms: C_17  and  C_18
REMARK    6  A    between atoms: C_18  and  N_19
REMARK    7  A    between atoms: N_28  and  C_31
REMARK    8  A    between atoms: C_31  and  C_32
REMARK    9  A    between atoms: C_37  and  C_38
REMARK                            x       y       z     vdW  Elec       q    Type
REMARK                         _______ _______ _______ _____ _____    ______ ____
ROOT
ATOM      1  N   UNL     1      -1.271   5.880   0.046  0.00  0.00    -0.260 N 
ATOM      2  C   UNL     1      -0.065   5.274   0.025  0.00  0.00    +0.264 A 
ATOM      3  O   UNL     1       0.961   5.927   0.018  0.00  0.00    -0.267 OA
ATOM      4  C   UNL     1      -0.023   3.801   0.012  0.00  0.00    +0.063 A 
ATOM      5  C   UNL     1       1.182   3.102  -0.009  0.00  0.00    +0.015 A 
ATOM      6  C   UNL     1       1.167   1.723  -0.021  0.00  0.00    +0.001 A 
ATOM      7  C   UNL     1      -0.036   1.034  -0.012  0.00  0.00    +0.002 A 
ATOM      8  C   UNL     1      -1.237   1.715   0.004  0.00  0.00    +0.027 A 
ATOM      9  C   UNL     1      -1.242   3.101   0.022  0.00  0.00    +0.059 A 
ATOM     10  N   UNL     1      -2.426   3.824   0.043  0.00  0.00    -0.289 N 
ATOM     11  C   UNL     1      -2.409   5.168   0.054  0.00  0.00    +0.333 A 
ATOM     12  O   UNL     1      -3.469   5.763   0.073  0.00  0.00    -0.246 OA
ENDROOT
BRANCH   1  13
ATOM     13  C   UNL     1      -1.340   7.344   0.060  0.00  0.00    +0.139 C 
BRANCH  13  14
ATOM     14  C   UNL     1      -1.383   7.866  -1.377  0.00  0.00    +0.117 C 
BRANCH  14  16
ATOM     15  N   UNL     1      -1.501  10.054  -2.524  0.00  0.00    -0.313 N 
ATOM     16  C   UNL     1      -1.454   9.371  -1.363  0.00  0.00    +0.215 C 
ATOM     17  O   UNL     1      -1.469   9.967  -0.307  0.00  0.00    -0.276 OA
ATOM     18  H   UNL     1      -1.487   9.513  -3.482  0.00  0.00    +0.149 HD
BRANCH  15  22
ATOM     19  N   UNL     1      -2.546  13.966  -3.690  0.00  0.00    +0.382 N 
ATOM     20  C   UNL     1      -1.132  13.594  -3.826  0.00  0.00    -0.077 C 
ATOM     21  C   UNL     1      -1.002  12.069  -3.821  0.00  0.00    +0.003 C 
ATOM     22  C   UNL     1      -1.570  11.518  -2.510  0.00  0.00    +0.069 C 
ATOM     23  C   UNL     1      -3.029  11.960  -2.370  0.00  0.00    +0.003 C 
ATOM     24  C   UNL     1      -3.101  13.488  -2.417  0.00  0.00    -0.077 C 
ATOM     25  H   UNL     1      -3.102  13.475  -4.503  0.00  0.00    -0.081 HD
BRANCH  19  26
ATOM     26  C   UNL     1      -2.725  15.417  -3.830  0.00  0.00    -0.043 C 
BRANCH  26  30
ATOM     27  C   UNL     1      -6.890  16.319  -4.116  0.00  0.00    +0.000 A 
ATOM     28  C   UNL     1      -6.275  16.281  -2.879  0.00  0.00    +0.000 A 
ATOM     29  C   UNL     1      -4.927  15.989  -2.786  0.00  0.00    +0.002 A 
ATOM     30  C   UNL     1      -4.194  15.735  -3.931  0.00  0.00    -0.064 A 
ATOM     31  C   UNL     1      -4.809  15.779  -5.168  0.00  0.00    +0.002 A 
ATOM     32  C   UNL     1      -6.158  16.066  -5.261  0.00  0.00    +0.000 A 
ENDBRANCH  26  30
ENDBRANCH  19  26
ENDBRANCH  15  22
ENDBRANCH  14  16
ENDBRANCH  13  14
ENDBRANCH   1  13
BRANCH  10  33
ATOM     33  C   UNL     1      -3.708   3.115   0.052  0.00  0.00    +0.163 C 
BRANCH  33  34
ATOM     34  C   UNL     1      -4.071   2.752   1.469  0.00  0.00    -0.010 A 
ATOM     35  C   UNL     1      -3.293   3.197   2.518  0.00  0.00    +0.006 A 
ATOM     36  C   UNL     1      -3.625   2.865   3.819  0.00  0.00    +0.000 A 
ATOM     37  C   UNL     1      -4.738   2.084   4.079  0.00  0.00    +0.001 A 
ATOM     38  C   UNL     1      -5.525   1.633   3.040  0.00  0.00    +0.019 A 
ATOM     39  C   UNL     1      -5.199   1.969   1.724  0.00  0.00    +0.057 A 
BRANCH  39  40
ATOM     40  C   UNL     1      -6.014   1.508   0.641  0.00  0.00    +0.099 C 
ATOM     41  N   UNL     1      -6.661   1.143  -0.218  0.00  0.00    -0.191 NA
ENDBRANCH  39  40
ENDBRANCH  33  34
ENDBRANCH  10  33
TORSDOF 9
