REMARK  Name = ZINC12160642
REMARK  9 active torsions:
REMARK  status: ('A' for Active; 'I' for Inactive)
REMARK    1  A    between atoms: C_1  and  C_2
REMARK    2  A    between atoms: C_2  and  C_3
REMARK    3  A    between atoms: C_6  and  C_9
REMARK    4  A    between atoms: C_9  and  N_68
REMARK    5  A    between atoms: C_12  and  C_15
REMARK    6  A    between atoms: C_12  and  O_34
REMARK    7  A    between atoms: C_22  and  C_24
REMARK    8  A    between atoms: N_26  and  C_27
REMARK    9  A    between atoms: C_27  and  C_28
REMARK                            x       y       z     vdW  Elec       q    Type
REMARK                         _______ _______ _______ _____ _____    ______ ____
ROOT
ATOM      1  C   UNL     1      -2.945   1.622  -2.394  0.00  0.00    -0.015 A 
ATOM      2  C   UNL     1      -2.599   2.860  -2.920  0.00  0.00    +0.010 A 
ATOM      3  C   UNL     1      -3.269   3.375  -4.009  0.00  0.00    +0.047 A 
ATOM      4  C   UNL     1      -4.310   2.655  -4.585  0.00  0.00    +0.136 A 
ATOM      5  C   UNL     1      -4.659   1.403  -4.045  0.00  0.00    +0.021 A 
ATOM      6  C   UNL     1      -3.964   0.897  -2.944  0.00  0.00    +0.018 A 
ATOM      7  C   UNL     1      -5.769   0.915  -4.862  0.00  0.00    +0.063 A 
ATOM      8  C   UNL     1      -5.997   1.873  -5.798  0.00  0.00    +0.190 A 
ATOM      9  O   UNL     1      -5.131   2.893  -5.625  0.00  0.00    -0.450 OA
ENDROOT
BRANCH   1  12
ATOM     10  C   UNL     1      -0.013   1.086   0.008  0.00  0.00    -0.075 C 
ATOM     11  C   UNL     1      -0.752   1.593  -1.232  0.00  0.00    +0.021 C 
ATOM     12  C   UNL     1      -2.194   1.077  -1.207  0.00  0.00    +0.088 C 
ATOM     13  C   UNL     1      -2.872   1.544   0.085  0.00  0.00    +0.021 C 
ATOM     14  C   UNL     1      -2.071   1.038   1.287  0.00  0.00    -0.075 C 
ATOM     15  N   UNL     1      -0.701   1.589   1.216  0.00  0.00    +0.383 N 
ATOM     16  H   UNL     1      -0.756   2.613   1.166  0.00  0.00    -0.081 HD
BRANCH  12  17
ATOM     17  O   UNL     1      -2.192  -0.351  -1.256  0.00  0.00    -0.384 OA
ATOM     18  H   UNL     1      -3.074  -0.747  -1.243  0.00  0.00    +0.211 HD
ENDBRANCH  12  17
BRANCH  15  19
ATOM     19  C   UNL     1       0.059   1.209   2.425  0.00  0.00    -0.043 C 
BRANCH  19  23
ATOM     20  C   UNL     1      -1.633   3.208   5.799  0.00  0.00    -0.048 A 
ATOM     21  C   UNL     1      -2.088   1.953   5.440  0.00  0.00    +0.004 A 
ATOM     22  C   UNL     1      -1.540   1.306   4.348  0.00  0.00    +0.002 A 
ATOM     23  C   UNL     1      -0.538   1.914   3.615  0.00  0.00    -0.064 A 
ATOM     24  C   UNL     1      -0.080   3.167   3.978  0.00  0.00    +0.002 A 
ATOM     25  C   UNL     1      -0.631   3.816   5.067  0.00  0.00    +0.004 A 
BRANCH  20  27
ATOM     26  C   UNL     1      -1.442   3.549   8.248  0.00  0.00    +0.009 C 
ATOM     27  C   UNL     1      -2.231   3.914   6.989  0.00  0.00    +0.032 C 
ENDBRANCH  20  27
ENDBRANCH  19  23
ENDBRANCH  15  19
ENDBRANCH   1  12
BRANCH   8  28
ATOM     28  C   UNL     1      -7.031   1.807  -6.840  0.00  0.00    +0.279 C 
ATOM     29  O   UNL     1      -7.764   0.839  -6.910  0.00  0.00    -0.267 OA
ATOM     30  N   UNL     1      -7.167   2.820  -7.719  0.00  0.00    -0.306 N 
ATOM     31  H   UNL     1      -6.582   3.592  -7.663  0.00  0.00    +0.149 HD
BRANCH  30  32
ATOM     32  C   UNL     1      -8.198   2.755  -8.758  0.00  0.00    +0.136 C 
BRANCH  32  33
ATOM     33  C   UNL     1      -8.139   4.021  -9.615  0.00  0.00    +0.135 C 
ATOM     34  C   UNL     1      -9.219   3.963 -10.712  0.00  0.00    +0.035 C 
ATOM     35  C   UNL     1     -10.086   5.221 -10.458  0.00  0.00    +0.031 C 
ATOM     36  C   UNL     1      -9.124   6.117  -9.636  0.00  0.00    +0.160 C 
ATOM     37  O   UNL     1      -8.416   5.175  -8.803  0.00  0.00    -0.375 OA
ENDBRANCH  32  33
ENDBRANCH  30  32
ENDBRANCH   8  28
TORSDOF 8
