REMARK  Name = ZINC40312846
REMARK  14 active torsions:
REMARK  status: ('A' for Active; 'I' for Inactive)
REMARK    1  A    between atoms: C_1  and  C_2
REMARK    2  A    between atoms: C_5  and  O_8
REMARK    3  A    between atoms: O_8  and  C_9
REMARK    4  A    between atoms: C_9  and  C_10
REMARK    5  A    between atoms: C_10  and  C_12
REMARK    6  A    between atoms: C_10  and  O_39
REMARK    7  A    between atoms: C_12  and  N_13
REMARK    8  A    between atoms: N_13  and  C_14
REMARK    9  A    between atoms: C_15  and  C_28
REMARK   10  A    between atoms: C_20  and  C_24
REMARK   11  A    between atoms: C_24  and  C_25
REMARK   12  A    between atoms: C_24  and  C_26
REMARK   13  A    between atoms: C_24  and  C_27
REMARK   14  A    between atoms: N_30  and  C_31
REMARK                            x       y       z     vdW  Elec       q    Type
REMARK                         _______ _______ _______ _____ _____    ______ ____
ROOT
ATOM      1  C   UNL     1      -0.090  -9.303   3.282  0.00  0.00    +0.078 A 
ATOM      2  C   UNL     1      -0.083 -10.690   3.284  0.00  0.00    +0.068 A 
ATOM      3  C   UNL     1      -0.188 -11.352   4.574  0.00  0.00    -0.023 A 
ATOM      4  C   UNL     1      -0.280 -10.507   5.623  0.00  0.00    -0.004 A 
ATOM      5  S   UNL     1      -0.222  -8.891   4.905  0.00  0.00    -0.078 S 
ATOM      6  C   UNL     1      -0.398 -10.877   7.069  0.00  0.00    +0.046 C 
ATOM      7  C   UNL     1      -0.020 -12.358   7.220  0.00  0.00    -0.000 C 
ATOM      8  C   UNL     1      -0.766 -13.171   6.158  0.00  0.00    +0.009 C 
ATOM      9  C   UNL     1      -0.198 -12.861   4.771  0.00  0.00    +0.037 C 
ENDROOT
BRANCH   7  10
ATOM     10  C   UNL     1      -0.414 -12.848   8.615  0.00  0.00    -0.035 C 
ATOM     11  C   UNL     1      -1.924 -12.686   8.804  0.00  0.00    +0.011 C 
ATOM     12  C   UNL     1      -0.037 -14.323   8.763  0.00  0.00    +0.011 C 
ATOM     13  C   UNL     1       0.323 -12.024   9.672  0.00  0.00    +0.011 C 
ENDBRANCH   7  10
BRANCH   2  14
ATOM     14  C   UNL     1       0.025 -11.455   2.040  0.00  0.00    +0.247 C 
ATOM     15  O   UNL     1       1.121 -11.768   1.611  0.00  0.00    -0.270 OA
ATOM     16  N   UNL     1      -1.088 -11.813   1.371  0.00  0.00    -0.307 N 
ATOM     17  H   UNL     1      -1.961 -11.563   1.712  0.00  0.00    +0.149 HD
BRANCH  16  18
ATOM     18  C   UNL     1      -0.981 -12.578   0.126  0.00  0.00    +0.096 C 
ATOM     19  C   UNL     1      -0.793 -11.617  -1.060  0.00  0.00    +0.046 C 
ATOM     20  C   UNL     1      -0.999 -12.378  -2.392  0.00  0.00    +0.168 C 
ATOM     21  S   UNL     1      -2.158 -13.724  -1.915  0.00  0.00    -0.029 S 
ATOM     22  O   UNL     1      -1.515 -14.976  -2.107  0.00  0.00    -0.174 OA
ATOM     23  O   UNL     1      -3.420 -13.485  -2.523  0.00  0.00    -0.174 OA
ATOM     24  C   UNL     1      -2.288 -13.387  -0.108  0.00  0.00    +0.188 C 
ENDBRANCH  16  18
ENDBRANCH   2  14
BRANCH   1  25
ATOM     25  N   UNL     1      -0.002  -8.454   2.195  0.00  0.00    -0.335 N 
ATOM     26  H   UNL     1       0.071  -8.820   1.299  0.00  0.00    +0.147 HD
BRANCH  25  27
ATOM     27  C   UNL     1      -0.020  -7.003   2.395  0.00  0.00    +0.136 C 
BRANCH  27  28
ATOM     28  C   UNL     1       0.090  -6.300   1.040  0.00  0.00    +0.169 C 
BRANCH  28  29
ATOM     29  O   UNL     1       1.313  -6.679   0.405  0.00  0.00    -0.387 OA
ATOM     30  H   UNL     1       2.106  -6.450   0.910  0.00  0.00    +0.210 HD
ENDBRANCH  28  29
BRANCH  28  31
ATOM     31  C   UNL     1       0.072  -4.785   1.249  0.00  0.00    +0.261 C 
BRANCH  31  32
ATOM     32  O   UNL     1       0.057  -4.129  -0.021  0.00  0.00    -0.489 OA
BRANCH  32  37
ATOM     33  C   UNL     1      -0.018   1.503   0.010  0.00  0.00    +0.044 C 
ATOM     34  C   UNL     1       0.002  -0.004   0.002  0.00  0.00    -0.050 A 
ATOM     35  C   UNL     1       0.006  -0.688  -1.200  0.00  0.00    +0.007 A 
ATOM     36  C   UNL     1       0.024  -2.069  -1.210  0.00  0.00    +0.046 A 
ATOM     37  C   UNL     1       0.039  -2.770  -0.013  0.00  0.00    +0.121 A 
ATOM     38  C   UNL     1       0.036  -2.082   1.191  0.00  0.00    +0.046 A 
ATOM     39  C   UNL     1       0.023  -0.701   1.196  0.00  0.00    +0.007 A 
ENDBRANCH  32  37
ENDBRANCH  31  32
ENDBRANCH  28  31
ENDBRANCH  27  28
ENDBRANCH  25  27
ENDBRANCH   1  25
TORSDOF 10
