REMARK  Name = ZINC39936560
REMARK  10 active torsions:
REMARK  status: ('A' for Active; 'I' for Inactive)
REMARK    1  A    between atoms: C_1  and  C_2
REMARK    2  A    between atoms: C_4  and  S_8
REMARK    3  A    between atoms: S_8  and  C_9
REMARK    4  A    between atoms: C_9  and  C_10
REMARK    5  A    between atoms: C_18  and  C_19
REMARK    6  A    between atoms: N_21  and  C_22
REMARK    7  A    between atoms: C_22  and  C_23
REMARK    8  A    between atoms: C_23  and  C_24
REMARK    9  A    between atoms: C_24  and  C_25
REMARK   10  A    between atoms: C_26  and  C_32
REMARK                            x       y       z     vdW  Elec       q    Type
REMARK                         _______ _______ _______ _____ _____    ______ ____
ROOT
ATOM      1  C   UNL     1       3.969  -0.632  -4.105  0.00  0.00    +0.280 C 
ATOM      2  O   UNL     1       3.038  -0.065  -3.566  0.00  0.00    -0.267 OA
ATOM      3  N   UNL     1       4.538  -0.098  -5.204  0.00  0.00    -0.309 N 
ATOM      4  H   UNL     1       5.280  -0.551  -5.635  0.00  0.00    +0.149 HD
ENDROOT
BRANCH   1  13
ATOM      5  C   UNL     1       3.981  -2.528  -2.460  0.00  0.00    +0.021 A 
ATOM      6  C   UNL     1       4.780  -3.743  -2.296  0.00  0.00    +0.025 A 
ATOM      7  C   UNL     1       4.773  -4.796  -1.378  0.00  0.00    +0.012 A 
ATOM      8  C   UNL     1       5.679  -5.810  -1.505  0.00  0.00    +0.001 A 
ATOM      9  C   UNL     1       6.606  -5.801  -2.539  0.00  0.00    +0.004 A 
ATOM     10  C   UNL     1       6.629  -4.771  -3.454  0.00  0.00    +0.047 A 
ATOM     11  C   UNL     1       5.716  -3.728  -3.346  0.00  0.00    +0.136 A 
ATOM     12  O   UNL     1       5.499  -2.612  -4.070  0.00  0.00    -0.450 OA
ATOM     13  C   UNL     1       4.474  -1.899  -3.558  0.00  0.00    +0.194 A 
BRANCH   5  14
ATOM     14  C   UNL     1       2.838  -2.071  -1.590  0.00  0.00    +0.111 C 
BRANCH  14  15
ATOM     15  S   UNL     1       1.283  -2.751  -2.229  0.00  0.00    -0.119 S 
BRANCH  15  19
ATOM     16  C   UNL     1      -0.018   1.503   0.010  0.00  0.00    +0.061 C 
ATOM     17  C   UNL     1       0.002  -0.004   0.002  0.00  0.00    +0.023 C 
ATOM     18  N   UNL     1       0.006  -0.638  -1.082  0.00  0.00    -0.267 NA
ATOM     19  C   UNL     1       0.025  -2.115  -1.087  0.00  0.00    +0.220 C 
ATOM     20  S   UNL     1       0.482  -2.458   0.669  0.00  0.00    -0.118 S 
ATOM     21  C   UNL     1       0.025  -0.787   1.307  0.00  0.00    +0.122 C 
ENDBRANCH  15  19
ENDBRANCH  14  15
ENDBRANCH   5  14
ENDBRANCH   1  13
BRANCH   3  22
ATOM     22  C   UNL     1       4.034   1.165  -5.749  0.00  0.00    +0.105 C 
BRANCH  22  23
ATOM     23  C   UNL     1       4.848   1.546  -6.988  0.00  0.00    +0.025 C 
BRANCH  23  24
ATOM     24  C   UNL     1       4.322   2.865  -7.557  0.00  0.00    +0.058 C 
BRANCH  24  25
ATOM     25  C   UNL     1       5.124   3.241  -8.777  0.00  0.00    +0.055 A 
ATOM     26  C   UNL     1       4.896   2.808 -10.068  0.00  0.00    +0.113 A 
ATOM     27  C   UNL     1       5.884   3.408 -10.890  0.00  0.00    +0.156 A 
ATOM     28  N   UNL     1       6.647   4.149 -10.125  0.00  0.00    -0.158 NA
ATOM     29  N   UNL     1       6.186   4.062  -8.807  0.00  0.00    -0.279 N 
ATOM     30  H   UNL     1       6.572   4.517  -8.042  0.00  0.00    +0.189 HD
ATOM     31  N   UNL     1       6.019   3.239 -12.269  0.00  0.00    -0.341 N 
ATOM     32  H   UNL     1       5.402   2.666 -12.750  0.00  0.00    +0.144 HD
ATOM     33  H   UNL     1       6.731   3.694 -12.745  0.00  0.00    +0.144 HD
BRANCH  26  34
ATOM     34  C   UNL     1       3.857   1.921 -10.497  0.00  0.00    +0.104 C 
ATOM     35  N   UNL     1       3.033   1.216 -10.837  0.00  0.00    -0.191 NA
ENDBRANCH  26  34
ENDBRANCH  24  25
ENDBRANCH  23  24
ENDBRANCH  22  23
ENDBRANCH   3  22
TORSDOF 9
