REMARK  Name = ZINC04702710
REMARK  9 active torsions:
REMARK  status: ('A' for Active; 'I' for Inactive)
REMARK    1  A    between atoms: C_1  and  C_2
REMARK    2  A    between atoms: N_8  and  C_9
REMARK    3  A    between atoms: C_9  and  C_10
REMARK    4  A    between atoms: C_10  and  N_48
REMARK    5  A    between atoms: C_11  and  N_48
REMARK    6  A    between atoms: C_12  and  N_48
REMARK    7  A    between atoms: C_13  and  C_21
REMARK    8  A    between atoms: C_15  and  C_19
REMARK    9  A    between atoms: C_16  and  N_18
REMARK                            x       y       z     vdW  Elec       q    Type
REMARK                         _______ _______ _______ _____ _____    ______ ____
ROOT
ATOM      1  C   UNL     1      -2.480   0.958   0.019  0.00  0.00    +0.064 C 
ATOM      2  C   UNL     1      -1.190   1.737   0.017  0.00  0.00    +0.022 A 
ATOM      3  C   UNL     1      -0.013   1.076   0.008  0.00  0.00    +0.068 A 
ATOM      4  C   UNL     1       1.198   1.800   0.000  0.00  0.00    +0.141 A 
ATOM      5  C   UNL     1       1.151   3.178   0.008  0.00  0.00    +0.072 A 
ATOM      6  C   UNL     1      -0.093   3.821   0.024  0.00  0.00    +0.259 A 
ATOM      7  O   UNL     1      -0.149   5.041   0.031  0.00  0.00    -0.267 OA
ATOM      8  N   UNL     1      -1.227   3.096   0.030  0.00  0.00    -0.314 N 
ATOM      9  C   UNL     1       2.418   3.990  -0.001  0.00  0.00    +0.105 C 
ATOM     10  C   UNL     1       3.589   3.127   0.379  0.00  0.00    +0.098 C 
ATOM     11  C   UNL     1       3.504   1.776   0.351  0.00  0.00    +0.199 C 
ATOM     12  O   UNL     1       2.376   1.141  -0.015  0.00  0.00    -0.441 OA
ENDROOT
BRANCH   9  13
ATOM     13  C   UNL     1       2.639   4.553  -1.381  0.00  0.00    -0.015 A 
ATOM     14  C   UNL     1       2.784   3.702  -2.461  0.00  0.00    +0.006 A 
ATOM     15  C   UNL     1       2.982   4.218  -3.728  0.00  0.00    +0.002 A 
ATOM     16  C   UNL     1       3.047   5.586  -3.915  0.00  0.00    +0.021 A 
ATOM     17  C   UNL     1       2.908   6.439  -2.836  0.00  0.00    +0.060 A 
ATOM     18  C   UNL     1       2.704   5.922  -1.567  0.00  0.00    +0.063 A 
ATOM     19 CL   UNL     1       2.529   6.992  -0.211  0.00  0.00    -0.082 Cl
ATOM     20 CL   UNL     1       2.988   8.158  -3.070  0.00  0.00    -0.082 Cl
ENDBRANCH   9  13
BRANCH  11  21
ATOM     21  N   UNL     1       4.601   1.032   0.707  0.00  0.00    -0.328 N 
ATOM     22  H   UNL     1       5.422   1.475   0.973  0.00  0.00    +0.145 HD
ATOM     23  H   UNL     1       4.556   0.063   0.692  0.00  0.00    +0.145 HD
ENDBRANCH  11  21
BRANCH  10  24
ATOM     24  C   UNL     1       4.817   3.745   0.777  0.00  0.00    +0.101 C 
ATOM     25  N   UNL     1       5.792   4.236   1.093  0.00  0.00    -0.191 NA
ENDBRANCH  10  24
BRANCH   8  26
ATOM     26  C   UNL     1      -2.521   3.781   0.046  0.00  0.00    +0.106 C 
BRANCH  26  27
ATOM     27  C   UNL     1      -2.985   4.028  -1.391  0.00  0.00    -0.058 C 
BRANCH  27  30
ATOM     28  C   UNL     1      -4.157   6.066  -0.812  0.00  0.00    -0.097 C 
ATOM     29  C   UNL     1      -4.872   4.759  -2.720  0.00  0.00    -0.097 C 
ATOM     30  N   UNL     1      -4.301   4.700  -1.359  0.00  0.00    +0.377 N 
ATOM     31  H   UNL     1      -4.935   4.165  -0.754  0.00  0.00    -0.083 HD
ENDBRANCH  27  30
ENDBRANCH  26  27
ENDBRANCH   8  26
TORSDOF 6
