REMARK  Name = ZINC40743808
REMARK  14 active torsions:
REMARK  status: ('A' for Active; 'I' for Inactive)
REMARK    1  A    between atoms: C_1  and  C_2
REMARK    2  A    between atoms: C_2  and  O_3
REMARK    3  A    between atoms: O_3  and  C_4
REMARK    4  A    between atoms: C_6  and  C_23
REMARK    5  A    between atoms: C_9  and  O_10
REMARK    6  A    between atoms: O_10  and  C_11
REMARK    7  A    between atoms: C_11  and  C_12
REMARK    8  A    between atoms: N_14  and  C_15
REMARK    9  A    between atoms: C_18  and  C_21
REMARK   10  A    between atoms: C_23  and  N_24
REMARK   11  A    between atoms: N_24  and  C_25
REMARK   12  A    between atoms: C_25  and  C_26
REMARK   13  A    between atoms: C_26  and  C_27
REMARK   14  A    between atoms: C_27  and  O_28
REMARK                            x       y       z     vdW  Elec       q    Type
REMARK                         _______ _______ _______ _____ _____    ______ ____
ROOT
ATOM      1  C   UNL     1       0.770  -1.797  -1.336  0.00  0.00    +0.163 A 
ATOM      2  C   UNL     1       0.234  -2.650  -0.384  0.00  0.00    +0.051 A 
ATOM      3  C   UNL     1       0.345  -4.018  -0.541  0.00  0.00    -0.060 A 
ATOM      4  C   UNL     1       0.990  -4.541  -1.647  0.00  0.00    +0.021 A 
ATOM      5  C   UNL     1       1.527  -3.696  -2.601  0.00  0.00    +0.063 A 
ATOM      6  C   UNL     1       1.413  -2.322  -2.452  0.00  0.00    +0.176 A 
ATOM      7 BR   UNL     1       2.409  -4.414  -4.111  0.00  0.00    -0.046 Br
ENDROOT
BRANCH   1   8
ATOM      8  O   UNL     1       0.661  -0.450  -1.183  0.00  0.00    -0.489 OA
BRANCH   8  10
ATOM      9  C   UNL     1      -0.035   1.547  -0.014  0.00  0.00    +0.048 C 
ATOM     10  C   UNL     1      -0.012   0.018  -0.012  0.00  0.00    +0.226 C 
ENDBRANCH   8  10
ENDBRANCH   1   8
BRANCH   6  11
ATOM     11  O   UNL     1       1.935  -1.489  -3.393  0.00  0.00    -0.478 OA
BRANCH  11  12
ATOM     12  C   UNL     1       3.291  -1.075  -3.211  0.00  0.00    +0.325 C 
BRANCH  12  13
ATOM     13  C   UNL     1       3.693  -0.163  -4.341  0.00  0.00    +0.255 C 
ATOM     14  O   UNL     1       2.897   0.106  -5.216  0.00  0.00    -0.272 OA
ATOM     15  N   UNL     1       4.937   0.354  -4.380  0.00  0.00    -0.283 N 
ATOM     16  H   UNL     1       5.551   0.195  -3.647  0.00  0.00    +0.155 HD
BRANCH  15  17
ATOM     17  C   UNL     1       5.341   1.122  -5.478  0.00  0.00    +0.034 A 
ATOM     18  C   UNL     1       6.652   1.053  -5.930  0.00  0.00    +0.023 A 
ATOM     19  C   UNL     1       7.049   1.812  -7.014  0.00  0.00    +0.005 A 
ATOM     20  C   UNL     1       6.141   2.640  -7.649  0.00  0.00    -0.050 A 
ATOM     21  C   UNL     1       4.835   2.712  -7.200  0.00  0.00    +0.005 A 
ATOM     22  C   UNL     1       4.431   1.951  -6.121  0.00  0.00    +0.023 A 
ATOM     23  C   UNL     1       6.577   3.467  -8.831  0.00  0.00    +0.044 C 
ENDBRANCH  15  17
ENDBRANCH  12  13
ENDBRANCH  11  12
ENDBRANCH   6  11
BRANCH   3  24
ATOM     24  C   UNL     1      -0.237  -4.944   0.497  0.00  0.00    -0.047 C 
BRANCH  24  25
ATOM     25  N   UNL     1      -1.627  -5.263   0.143  0.00  0.00    +0.382 N 
ATOM     26  H   UNL     1      -2.169  -4.412   0.109  0.00  0.00    -0.085 HD
ATOM     27  H   UNL     1      -1.649  -5.713  -0.760  0.00  0.00    -0.085 HD
BRANCH  25  28
ATOM     28  C   UNL     1      -2.195  -6.165   1.154  0.00  0.00    -0.080 C 
BRANCH  28  29
ATOM     29  C   UNL     1      -3.642  -6.497   0.786  0.00  0.00    +0.009 C 
BRANCH  29  30
ATOM     30  C   UNL     1      -4.234  -7.436   1.839  0.00  0.00    +0.154 C 
BRANCH  30  31
ATOM     31  O   UNL     1      -5.585  -7.746   1.495  0.00  0.00    -0.395 OA
ATOM     32  H   UNL     1      -6.024  -8.339   2.120  0.00  0.00    +0.209 HD
ENDBRANCH  30  31
ENDBRANCH  29  30
ENDBRANCH  28  29
ENDBRANCH  25  28
ENDBRANCH  24  25
ENDBRANCH   3  24
TORSDOF 12
