REMARK  Name = ZINC59171140
REMARK  8 active torsions:
REMARK  status: ('A' for Active; 'I' for Inactive)
REMARK    1  A    between atoms: C_1  and  C_2
REMARK    2  A    between atoms: C_2  and  O_3
REMARK    3  A    between atoms: O_3  and  C_4
REMARK    4  A    between atoms: N_12  and  C_13
REMARK    5  A    between atoms: C_16  and  O_19
REMARK    6  A    between atoms: O_19  and  C_20
REMARK    7  A    between atoms: C_21  and  C_23
REMARK    8  A    between atoms: C_23  and  N_25
REMARK                            x       y       z     vdW  Elec       q    Type
REMARK                         _______ _______ _______ _____ _____    ______ ____
ROOT
ATOM      1  C   UNL     1       0.549  -1.595   1.601  0.00  0.00    +0.163 A 
ATOM      2  C   UNL     1       0.117  -2.313   0.498  0.00  0.00    +0.049 A 
ATOM      3  C   UNL     1       0.435  -3.656   0.361  0.00  0.00    +0.004 A 
ATOM      4  C   UNL     1       1.185  -4.297   1.322  0.00  0.00    +0.012 A 
ATOM      5  C   UNL     1       1.628  -3.587   2.445  0.00  0.00    +0.022 A 
ATOM      6  C   UNL     1       1.313  -2.223   2.579  0.00  0.00    +0.179 A 
ATOM      7  O   UNL     1       1.754  -1.531   3.660  0.00  0.00    -0.435 OA
ATOM      8  C   UNL     1       1.969  -2.239   4.798  0.00  0.00    +0.209 A 
ATOM      9  N   UNL     1       1.623  -1.757   5.971  0.00  0.00    -0.325 N 
ATOM     10  C   UNL     1       2.605  -3.567   4.678  0.00  0.00    +0.064 A 
ATOM     11  C   UNL     1       2.421  -4.248   3.484  0.00  0.00    +0.027 A 
ATOM     12  H   UNL     1       1.691  -2.312   6.763  0.00  0.00    +0.169 HD
ENDROOT
BRANCH   9  13
ATOM     13  C   UNL     1       1.166  -0.471   6.075  0.00  0.00    +0.042 A 
ATOM     14  C   UNL     1       1.825   0.563   5.404  0.00  0.00    +0.029 A 
ATOM     15  C   UNL     1       1.361   1.857   5.511  0.00  0.00    +0.047 A 
ATOM     16  C   UNL     1       0.241   2.134   6.285  0.00  0.00    +0.120 A 
ATOM     17  C   UNL     1      -0.416   1.110   6.953  0.00  0.00    +0.047 A 
ATOM     18  C   UNL     1       0.037  -0.188   6.848  0.00  0.00    +0.029 A 
BRANCH  16  19
ATOM     19  O   UNL     1      -0.212   3.411   6.388  0.00  0.00    -0.495 OA
ATOM     20  C   UNL     1      -1.369   3.626   7.199  0.00  0.00    +0.277 C 
ENDBRANCH  16  19
ENDBRANCH   9  13
BRANCH  10  21
ATOM     21  C   UNL     1       3.388  -4.146   5.780  0.00  0.00    +0.082 C 
ATOM     22  S   UNL     1       3.721  -3.212   7.176  0.00  0.00    -0.035 S 
BRANCH  21  23
ATOM     23  N   UNL     1       3.843  -5.411   5.692  0.00  0.00    -0.352 N 
ATOM     24  H   UNL     1       3.655  -5.940   4.901  0.00  0.00    +0.143 HD
ATOM     25  H   UNL     1       4.360  -5.793   6.418  0.00  0.00    +0.143 HD
ENDBRANCH  21  23
ENDBRANCH  10  21
BRANCH   1  26
ATOM     26  O   UNL     1       0.232  -0.279   1.723  0.00  0.00    -0.489 OA
BRANCH  26  28
ATOM     27  C   UNL     1      -0.810   1.775   0.991  0.00  0.00    +0.048 C 
ATOM     28  C   UNL     1      -0.556   0.299   0.680  0.00  0.00    +0.226 C 
ENDBRANCH  26  28
ENDBRANCH   1  26
TORSDOF 6
