REMARK  Name = ZINC36014189
REMARK  6 active torsions:
REMARK  status: ('A' for Active; 'I' for Inactive)
REMARK    1  A    between atoms: C_1  and  C_2
REMARK    2  A    between atoms: C_2  and  N_3
REMARK    3  A    between atoms: C_13  and  C_26
REMARK    4  A    between atoms: N_17  and  C_18
REMARK    5  A    between atoms: C_18  and  C_19
REMARK    6  A    between atoms: C_26  and  C_27
REMARK                            x       y       z     vdW  Elec       q    Type
REMARK                         _______ _______ _______ _____ _____    ______ ____
ROOT
ATOM      1  N   UNL     1      -0.495  -1.795  -0.735  0.00  0.00    -0.300 N 
ATOM      2  C   UNL     1      -1.624  -1.061  -0.790  0.00  0.00    +0.302 C 
ATOM      3  O   UNL     1      -1.561   0.136  -0.994  0.00  0.00    -0.253 OA
ATOM      4  N   UNL     1      -2.822  -1.653  -0.621  0.00  0.00    -0.286 N 
ATOM      5  C   UNL     1      -4.066  -0.891  -0.798  0.00  0.00    +0.109 C 
ATOM      6  C   UNL     1      -4.921  -1.042   0.464  0.00  0.00    +0.025 C 
ATOM      7  C   UNL     1      -5.121  -2.526   0.767  0.00  0.00    +0.006 C 
ATOM      8  C   UNL     1      -3.774  -3.206   1.004  0.00  0.00    +0.025 C 
ATOM      9  C   UNL     1      -2.910  -3.075  -0.260  0.00  0.00    +0.109 C 
ATOM     10  N   UNL     1      -5.975  -2.680   1.964  0.00  0.00    +0.401 N 
ATOM     11  C   UNL     1      -6.744  -3.914   1.671  0.00  0.00    +0.023 C 
ATOM     12  C   UNL     1      -6.782  -3.996   0.161  0.00  0.00    +0.201 C 
ATOM     13  O   UNL     1      -7.539  -4.682  -0.493  0.00  0.00    -0.277 OA
ATOM     14  N   UNL     1      -5.832  -3.177  -0.337  0.00  0.00    -0.309 N 
ATOM     15  H   UNL     1      -0.539  -2.736  -0.502  0.00  0.00    +0.150 HD
ATOM     16  H   UNL     1      -5.410  -2.800   2.791  0.00  0.00    -0.082 HD
ATOM     17  H   UNL     1      -6.594  -1.889   2.064  0.00  0.00    -0.082 HD
ENDROOT
BRANCH   1  19
ATOM     18  C   UNL     1       1.909  -2.217  -0.893  0.00  0.00    +0.024 C 
ATOM     19  C   UNL     1       0.799  -1.173  -1.026  0.00  0.00    +0.102 C 
ENDBRANCH   1  19
BRANCH  14  20
ATOM     20  C   UNL     1      -5.554  -2.971  -1.760  0.00  0.00    +0.141 C 
BRANCH  20  21
ATOM     21  C   UNL     1      -6.587  -2.042  -2.344  0.00  0.00    -0.030 A 
ATOM     22  C   UNL     1      -7.529  -2.528  -3.232  0.00  0.00    +0.008 A 
ATOM     23  C   UNL     1      -8.478  -1.677  -3.768  0.00  0.00    +0.038 A 
ATOM     24  C   UNL     1      -8.484  -0.338  -3.415  0.00  0.00    +0.123 A 
ATOM     25  C   UNL     1      -7.540   0.147  -2.526  0.00  0.00    +0.038 A 
ATOM     26  C   UNL     1      -6.596  -0.707  -1.987  0.00  0.00    +0.008 A 
ATOM     27  F   UNL     1      -9.411   0.494  -3.939  0.00  0.00    -0.205 F 
ENDBRANCH  20  21
ENDBRANCH  14  20
BRANCH  11  28
ATOM     28  C   UNL     1      -8.161  -3.805   2.237  0.00  0.00    +0.028 C 
BRANCH  28  29
ATOM     29  C   UNL     1      -8.098  -3.735   3.741  0.00  0.00    -0.048 A 
ATOM     30  C   UNL     1      -8.131  -4.897   4.489  0.00  0.00    +0.003 A 
ATOM     31  C   UNL     1      -8.073  -4.832   5.869  0.00  0.00    +0.000 A 
ATOM     32  C   UNL     1      -7.981  -3.606   6.501  0.00  0.00    +0.000 A 
ATOM     33  C   UNL     1      -7.946  -2.444   5.752  0.00  0.00    +0.000 A 
ATOM     34  C   UNL     1      -8.000  -2.509   4.373  0.00  0.00    +0.003 A 
ENDBRANCH  28  29
ENDBRANCH  11  28
TORSDOF 5
