REMARK  Name = ZINC20737619
REMARK  9 active torsions:
REMARK  status: ('A' for Active; 'I' for Inactive)
REMARK    1  A    between atoms: C_1  and  O_2
REMARK    2  A    between atoms: O_2  and  C_3
REMARK    3  A    between atoms: C_3  and  C_5
REMARK    4  A    between atoms: C_5  and  C_7
REMARK    5  A    between atoms: C_5  and  N_11
REMARK    6  A    between atoms: C_7  and  C_8
REMARK    7  A    between atoms: C_8  and  S_9
REMARK    8  A    between atoms: S_9  and  C_10
REMARK    9  A    between atoms: C_23  and  C_25
REMARK                            x       y       z     vdW  Elec       q    Type
REMARK                         _______ _______ _______ _____ _____    ______ ____
ROOT
ATOM      1  N   UNL     1      -0.606  -2.324  -3.520  0.00  0.00    -0.286 N 
ATOM      2  C   UNL     1       0.710  -2.612  -3.504  0.00  0.00    +0.304 C 
ATOM      3  O   UNL     1       1.355  -2.451  -2.486  0.00  0.00    -0.253 OA
ATOM      4  N   UNL     1       1.312  -3.077  -4.617  0.00  0.00    -0.273 N 
ATOM      5  C   UNL     1       2.719  -3.502  -4.590  0.00  0.00    +0.116 C 
ATOM      6  C   UNL     1       2.795  -5.005  -4.887  0.00  0.00    +0.074 C 
ATOM      7  C   UNL     1       1.896  -5.316  -6.054  0.00  0.00    +0.040 A 
ATOM      8  C   UNL     1       0.907  -4.512  -6.502  0.00  0.00    +0.062 A 
ATOM      9  N   UNL     1       0.324  -5.111  -7.542  0.00  0.00    -0.348 N 
ATOM     10  C   UNL     1       0.913  -6.257  -7.762  0.00  0.00    +0.171 A 
ATOM     11  N   UNL     1       1.902  -6.420  -6.852  0.00  0.00    -0.349 N 
ATOM     12  H   UNL     1       2.501  -7.179  -6.782  0.00  0.00    +0.166 HD
ATOM     13  C   UNL     1       0.573  -3.177  -5.888  0.00  0.00    +0.158 C 
ATOM     14  H   UNL     1      -1.104  -2.375  -4.351  0.00  0.00    +0.151 HD
ATOM     15  H   UNL     1      -0.419  -4.753  -8.054  0.00  0.00    +0.167 HD
ENDROOT
BRANCH  13  16
ATOM     16  C   UNL     1       0.998  -2.070  -6.817  0.00  0.00    -0.001 A 
ATOM     17  C   UNL     1       2.300  -2.016  -7.279  0.00  0.00    +0.007 A 
ATOM     18  C   UNL     1       2.691  -1.001  -8.132  0.00  0.00    +0.002 A 
ATOM     19  C   UNL     1       1.781  -0.037  -8.523  0.00  0.00    +0.021 A 
ATOM     20  C   UNL     1       0.478  -0.088  -8.062  0.00  0.00    +0.060 A 
ATOM     21  C   UNL     1       0.085  -1.110  -7.213  0.00  0.00    +0.065 A 
ATOM     22 CL   UNL     1      -1.552  -1.180  -6.639  0.00  0.00    -0.082 Cl
ATOM     23 CL   UNL     1      -0.666   1.122  -8.552  0.00  0.00    -0.082 Cl
ENDBRANCH  13  16
BRANCH   1  24
ATOM     24  C   UNL     1      -1.286  -1.935  -2.282  0.00  0.00    +0.184 C 
BRANCH  24  25
ATOM     25  C   UNL     1      -1.712  -3.171  -1.533  0.00  0.00    +0.327 C 
ATOM     26  O   UNL     1      -1.473  -4.265  -1.986  0.00  0.00    -0.249 OA
BRANCH  25  28
ATOM     27  C   UNL     1      -2.732  -4.270   0.294  0.00  0.00    +0.280 C 
ATOM     28  O   UNL     1      -2.358  -3.057  -0.361  0.00  0.00    -0.467 OA
ENDBRANCH  25  28
ENDBRANCH  24  25
BRANCH  24  29
ATOM     29  C   UNL     1      -2.518  -1.093  -2.619  0.00  0.00    +0.044 C 
BRANCH  29  30
ATOM     30  C   UNL     1      -2.076   0.220  -3.269  0.00  0.00    +0.071 C 
BRANCH  30  31
ATOM     31  S   UNL     1      -3.537   1.218  -3.669  0.00  0.00    -0.164 S 
ATOM     32  C   UNL     1      -2.850   2.719  -4.421  0.00  0.00    +0.084 C 
ENDBRANCH  30  31
ENDBRANCH  29  30
ENDBRANCH  24  29
ENDBRANCH   1  24
TORSDOF 7
