REMARK  Name = ZINC03482524
REMARK  9 active torsions:
REMARK  status: ('A' for Active; 'I' for Inactive)
REMARK    1  A    between atoms: C_1  and  C_2
REMARK    2  A    between atoms: C_2  and  C_4
REMARK    3  A    between atoms: C_2  and  S_10
REMARK    4  A    between atoms: S_10  and  C_11
REMARK    5  A    between atoms: C_14  and  C_25
REMARK    6  A    between atoms: N_15  and  C_16
REMARK    7  A    between atoms: C_21  and  C_22
REMARK    8  A    between atoms: C_22  and  C_23
REMARK    9  A    between atoms: C_22  and  C_24
REMARK                            x       y       z     vdW  Elec       q    Type
REMARK                         _______ _______ _______ _____ _____    ______ ____
ROOT
ATOM      1  C   UNL     1      -2.365  -0.093  -1.525  0.00  0.00    +0.197 A 
ATOM      2  N   UNL     1      -1.734   0.598  -2.448  0.00  0.00    -0.122 NA
ATOM      3  N   UNL     1      -2.514   0.821  -3.445  0.00  0.00    -0.128 NA
ATOM      4  C   UNL     1      -3.692   0.287  -3.222  0.00  0.00    +0.169 A 
ATOM      5  N   UNL     1      -3.632  -0.322  -1.987  0.00  0.00    -0.270 N 
ENDROOT
BRANCH   4   6
ATOM      6  C   UNL     1      -4.859   0.325  -4.127  0.00  0.00    +0.020 A 
ATOM      7  C   UNL     1      -6.130   0.002  -3.647  0.00  0.00    +0.013 A 
ATOM      8  C   UNL     1      -7.215   0.039  -4.496  0.00  0.00    +0.021 A 
ATOM      9  C   UNL     1      -7.048   0.397  -5.823  0.00  0.00    +0.041 A 
ATOM     10  C   UNL     1      -5.790   0.719  -6.306  0.00  0.00    +0.021 A 
ATOM     11  C   UNL     1      -4.697   0.690  -5.465  0.00  0.00    +0.013 A 
ATOM     12 CL   UNL     1      -8.419   0.441  -6.887  0.00  0.00    -0.084 Cl
ENDBRANCH   4   6
BRANCH   5  13
ATOM     13  C   UNL     1      -4.657  -1.025  -1.338  0.00  0.00    +0.054 A 
ATOM     14  C   UNL     1      -5.541  -0.354  -0.504  0.00  0.00    +0.026 A 
ATOM     15  C   UNL     1      -6.549  -1.049   0.133  0.00  0.00    +0.002 A 
ATOM     16  C   UNL     1      -6.679  -2.413  -0.058  0.00  0.00    +0.000 A 
ATOM     17  C   UNL     1      -5.800  -3.084  -0.887  0.00  0.00    +0.006 A 
ATOM     18  C   UNL     1      -4.793  -2.393  -1.533  0.00  0.00    -0.021 A 
BRANCH  18  19
ATOM     19  C   UNL     1      -3.839  -3.124  -2.442  0.00  0.00    +0.015 C 
ATOM     20  C   UNL     1      -3.102  -4.203  -1.646  0.00  0.00    +0.012 C 
ATOM     21  C   UNL     1      -4.621  -3.777  -3.583  0.00  0.00    +0.012 C 
ENDBRANCH  18  19
ENDBRANCH   5  13
BRANCH   1  22
ATOM     22  S   UNL     1      -1.700  -0.632   0.015  0.00  0.00    -0.073 S 
BRANCH  22  24
ATOM     23  C   UNL     1      -0.019   1.526   0.010  0.00  0.00    +0.029 C 
ATOM     24  C   UNL     1       0.002  -0.004   0.002  0.00  0.00    +0.137 C 
BRANCH  24  25
ATOM     25  C   UNL     1       0.731  -0.503   1.223  0.00  0.00    +0.233 C 
ATOM     26  O   UNL     1       0.105  -0.891   2.186  0.00  0.00    -0.274 OA
ATOM     27  N   UNL     1       2.079  -0.519   1.244  0.00  0.00    -0.239 N 
ATOM     28  C   UNL     1       2.730  -0.965   2.336  0.00  0.00    +0.303 C 
ATOM     29  O   UNL     1       2.103  -1.354   3.301  0.00  0.00    -0.253 OA
ATOM     30  N   UNL     1       4.078  -0.981   2.357  0.00  0.00    -0.313 N 
ATOM     31  H   UNL     1       2.579  -0.208   0.473  0.00  0.00    +0.159 HD
ATOM     32  H   UNL     1       4.579  -0.670   1.586  0.00  0.00    +0.146 HD
ATOM     33  H   UNL     1       4.547  -1.302   3.143  0.00  0.00    +0.146 HD
ENDBRANCH  24  25
ENDBRANCH  22  24
ENDBRANCH   1  22
TORSDOF 6
