REMARK  Name = ZINC63598801
REMARK  9 active torsions:
REMARK  status: ('A' for Active; 'I' for Inactive)
REMARK    1  A    between atoms: C_1  and  C_2
REMARK    2  A    between atoms: C_4  and  S_12
REMARK    3  A    between atoms: S_12  and  C_13
REMARK    4  A    between atoms: C_13  and  C_14
REMARK    5  A    between atoms: C_17  and  S_21
REMARK    6  A    between atoms: N_19  and  C_20
REMARK    7  A    between atoms: S_21  and  C_22
REMARK    8  A    between atoms: C_22  and  C_23
REMARK    9  A    between atoms: N_25  and  C_26
REMARK                            x       y       z     vdW  Elec       q    Type
REMARK                         _______ _______ _______ _____ _____    ______ ____
ROOT
ATOM      1  C   UNL     1      -5.185  -1.331  -1.668  0.00  0.00    +0.127 C 
ATOM      2  N   UNL     1      -5.031  -0.544  -2.669  0.00  0.00    -0.173 NA
ATOM      3  N   UNL     1      -6.157  -0.542  -3.502  0.00  0.00    -0.238 N 
ATOM      4  C   UNL     1      -7.119  -1.475  -2.889  0.00  0.00    +0.237 C 
ATOM      5  N   UNL     1      -6.418  -1.965  -1.690  0.00  0.00    -0.292 N 
ATOM      6  C   UNL     1      -6.924  -2.930  -0.711  0.00  0.00    +0.133 C 
ATOM      7  H   UNL     1      -6.279  -0.030  -4.316  0.00  0.00    +0.171 HD
ENDROOT
BRANCH   1   8
ATOM      8  C   UNL     1      -4.146  -1.546  -0.598  0.00  0.00    +0.147 C 
BRANCH   8   9
ATOM      9  S   UNL     1      -2.690  -0.525  -0.956  0.00  0.00    -0.119 S 
BRANCH   9  12
ATOM     10  C   UNL     1      -0.075   0.980   0.500  0.00  0.00    +0.036 C 
ATOM     11  C   UNL     1      -0.145  -0.536   0.309  0.00  0.00    +0.113 C 
ATOM     12  C   UNL     1      -1.586  -0.981   0.197  0.00  0.00    +0.017 C 
ATOM     13  C   UNL     1      -1.794  -1.854   1.261  0.00  0.00    +0.009 A 
ATOM     14  C   UNL     1      -2.924  -2.587   1.685  0.00  0.00    +0.011 A 
ATOM     15  C   UNL     1      -2.840  -3.379   2.785  0.00  0.00    +0.001 A 
ATOM     16  C   UNL     1      -1.656  -3.490   3.515  0.00  0.00    +0.002 A 
ATOM     17  C   UNL     1      -0.533  -2.815   3.165  0.00  0.00    +0.026 A 
ATOM     18  C   UNL     1      -0.544  -1.969   2.028  0.00  0.00    +0.044 A 
ATOM     19  N   UNL     1       0.400  -1.219   1.487  0.00  0.00    -0.377 N 
ATOM     20  H   UNL     1       1.309  -1.133   1.817  0.00  0.00    +0.160 HD
ENDBRANCH   9  12
ENDBRANCH   8   9
ENDBRANCH   1   8
BRANCH   4  21
ATOM     21  S   UNL     1      -8.647  -0.609  -2.436  0.00  0.00    -0.109 S 
BRANCH  21  22
ATOM     22  C   UNL     1      -8.094   0.687  -1.293  0.00  0.00    +0.168 C 
BRANCH  22  23
ATOM     23  C   UNL     1      -9.283   1.492  -0.834  0.00  0.00    +0.227 C 
ATOM     24  O   UNL     1     -10.393   1.219  -1.239  0.00  0.00    -0.275 OA
ATOM     25  N   UNL     1      -9.111   2.516   0.025  0.00  0.00    -0.285 N 
ATOM     26  H   UNL     1      -8.217   2.782   0.291  0.00  0.00    +0.155 HD
BRANCH  25  27
ATOM     27  C   UNL     1     -10.224   3.195   0.535  0.00  0.00    +0.033 A 
ATOM     28  C   UNL     1     -10.145   4.555   0.807  0.00  0.00    +0.025 A 
ATOM     29  C   UNL     1     -11.244   5.222   1.310  0.00  0.00    +0.022 A 
ATOM     30  C   UNL     1     -12.424   4.538   1.544  0.00  0.00    +0.041 A 
ATOM     31  C   UNL     1     -12.505   3.183   1.274  0.00  0.00    +0.022 A 
ATOM     32  C   UNL     1     -11.411   2.512   0.766  0.00  0.00    +0.025 A 
ATOM     33 CL   UNL     1     -13.803   5.380   2.177  0.00  0.00    -0.084 Cl
ENDBRANCH  25  27
ENDBRANCH  22  23
ENDBRANCH  21  22
ENDBRANCH   4  21
TORSDOF 7
