REMARK  Name = ZINC35354078
REMARK  7 active torsions:
REMARK  status: ('A' for Active; 'I' for Inactive)
REMARK    1  A    between atoms: C_1  and  C_2
REMARK    2  A    between atoms: C_4  and  C_20
REMARK    3  A    between atoms: C_6  and  N_8
REMARK    4  A    between atoms: N_8  and  S_9
REMARK    5  A    between atoms: S_9  and  C_12
REMARK    6  A    between atoms: C_15  and  N_18
REMARK    7  A    between atoms: N_18  and  N_19
REMARK                            x       y       z     vdW  Elec       q    Type
REMARK                         _______ _______ _______ _____ _____    ______ ____
ROOT
ATOM      1  S   UNL     1       0.045  -1.831   3.770  0.00  0.00    +0.094 S 
ATOM      2  O   UNL     1       1.282  -1.133   3.831  0.00  0.00    -0.148 OA
ATOM      3  O   UNL     1      -1.209  -1.167   3.843  0.00  0.00    -0.148 OA
ENDROOT
BRANCH   1   4
ATOM      4  C   UNL     1       0.067  -3.010   5.080  0.00  0.00    +0.111 A 
ATOM      5  C   UNL     1      -1.122  -3.492   5.594  0.00  0.00    +0.031 A 
ATOM      6  C   UNL     1      -1.109  -4.416   6.621  0.00  0.00    +0.026 A 
ATOM      7  C   UNL     1       0.102  -4.861   7.136  0.00  0.00    +0.041 A 
ATOM      8  C   UNL     1       1.295  -4.375   6.617  0.00  0.00    +0.026 A 
ATOM      9  C   UNL     1       1.274  -3.455   5.587  0.00  0.00    +0.031 A 
BRANCH   7  10
ATOM     10  N   UNL     1       0.119  -5.795   8.175  0.00  0.00    -0.283 N 
ATOM     11  H   UNL     1      -0.715  -6.134   8.536  0.00  0.00    +0.166 HD
BRANCH  10  12
ATOM     12  N   UNL     1       1.311  -6.232   8.681  0.00  0.00    -0.257 NA
ATOM     13  H   UNL     1       1.874  -5.457   8.998  0.00  0.00    +0.140 HD
ATOM     14  H   UNL     1       1.165  -6.901   9.422  0.00  0.00    +0.140 HD
ENDBRANCH  10  12
ENDBRANCH   7  10
ENDBRANCH   1   4
BRANCH   1  15
ATOM     15  N   UNL     1       0.050  -2.679   2.348  0.00  0.00    -0.058 NA
BRANCH  15  21
ATOM     16  C   UNL     1      -0.018   1.503   0.010  0.00  0.00    +0.066 C 
ATOM     17  C   UNL     1       0.002  -0.004   0.002  0.00  0.00    +0.044 A 
ATOM     18  C   UNL     1       0.006  -0.699  -1.197  0.00  0.00    +0.046 A 
ATOM     19  C   UNL     1       0.025  -2.084  -1.160  0.00  0.00    +0.044 A 
ATOM     20  N   UNL     1       0.040  -2.698   0.011  0.00  0.00    -0.217 NA
ATOM     21  C   UNL     1       0.035  -2.004   1.140  0.00  0.00    +0.258 A 
ATOM     22  N   UNL     1       0.022  -0.679   1.139  0.00  0.00    -0.217 NA
ATOM     23  C   UNL     1       0.030  -2.881  -2.439  0.00  0.00    +0.066 C 
ENDBRANCH  15  21
ENDBRANCH   1  15
TORSDOF 5
