REMARK  Name = ZINC38576470
REMARK  5 active torsions:
REMARK  status: ('A' for Active; 'I' for Inactive)
REMARK    1  A    between atoms: C_4  and  S_7
REMARK    2  A    between atoms: S_7  and  C_10
REMARK    3  A    between atoms: N_22  and  N_26
REMARK    4  A    between atoms: C_23  and  N_25
REMARK    5  A    between atoms: C_27  and  C_28
REMARK                            x       y       z     vdW  Elec       q    Type
REMARK                         _______ _______ _______ _____ _____    ______ ____
ROOT
ATOM      1  C   UNL     1       4.298  -1.301   1.623  0.00  0.00    +0.224 C 
ATOM      2  C   UNL     1       4.211   0.147   2.055  0.00  0.00    +0.111 A 
ATOM      3  C   UNL     1       5.426   0.497   2.665  0.00  0.00    +0.166 A 
ATOM      4  N   UNL     1       5.594   1.729   3.131  0.00  0.00    -0.227 NA
ATOM      5  C   UNL     1       4.613   2.628   3.019  0.00  0.00    +0.091 A 
ATOM      6  C   UNL     1       4.771   3.938   3.505  0.00  0.00    +0.030 A 
ATOM      7  C   UNL     1       3.754   4.833   3.377  0.00  0.00    +0.002 A 
ATOM      8  C   UNL     1       2.553   4.472   2.769  0.00  0.00    +0.002 A 
ATOM      9  C   UNL     1       2.364   3.213   2.287  0.00  0.00    +0.030 A 
ATOM     10  C   UNL     1       3.391   2.262   2.401  0.00  0.00    +0.090 A 
ATOM     11  N   UNL     1       3.236   1.016   1.937  0.00  0.00    -0.245 NA
ATOM     12  N   UNL     1       6.311  -0.570   2.682  0.00  0.00    -0.186 N 
ATOM     13  C   UNL     1       5.704  -1.749   2.055  0.00  0.00    +0.195 C 
ENDROOT
BRANCH   1  14
ATOM     14  S   UNL     1       4.115  -1.438  -0.176  0.00  0.00    +0.008 S 
ATOM     15  O   UNL     1       3.976  -2.801  -0.552  0.00  0.00    -0.169 OA
ATOM     16  O   UNL     1       5.059  -0.599  -0.830  0.00  0.00    -0.169 OA
BRANCH  14  20
ATOM     17  C   UNL     1       0.091   0.426  -1.083  0.00  0.00    +0.000 A 
ATOM     18  C   UNL     1       1.230   1.210  -1.078  0.00  0.00    +0.002 A 
ATOM     19  C   UNL     1       2.459   0.640  -0.801  0.00  0.00    +0.027 A 
ATOM     20  C   UNL     1       2.549  -0.712  -0.528  0.00  0.00    +0.089 A 
ATOM     21  C   UNL     1       1.410  -1.495  -0.533  0.00  0.00    +0.027 A 
ATOM     22  C   UNL     1       0.181  -0.926  -0.811  0.00  0.00    +0.002 A 
ENDBRANCH  14  20
ENDBRANCH   1  14
BRANCH  13  23
ATOM     23  N   UNL     1       5.612  -2.851   3.022  0.00  0.00    -0.309 NA
ATOM     24  H   UNL     1       6.526  -3.220   3.238  0.00  0.00    +0.120 HD
ATOM     25  H   UNL     1       5.133  -2.558   3.860  0.00  0.00    +0.120 HD
ENDBRANCH  13  23
BRANCH  12  26
ATOM     26  N   UNL     1       7.501  -0.532   3.181  0.00  0.00    -0.185 NA
ATOM     27  C   UNL     1       8.303  -1.560   3.042  0.00  0.00    +0.136 C 
BRANCH  27  28
ATOM     28  C   UNL     1       9.550  -1.564   3.674  0.00  0.00    +0.000 C 
ATOM     29  C   UNL     1      10.519  -2.568   3.625  0.00  0.00    +0.004 A 
ATOM     30  C   UNL     1      10.562  -3.820   2.974  0.00  0.00    +0.010 A 
ATOM     31  C   UNL     1      11.659  -4.609   3.106  0.00  0.00    +0.001 A 
ATOM     32  C   UNL     1      12.756  -4.215   3.875  0.00  0.00    +0.002 A 
ATOM     33  C   UNL     1      12.782  -3.028   4.528  0.00  0.00    +0.026 A 
ATOM     34  C   UNL     1      11.672  -2.148   4.437  0.00  0.00    +0.043 A 
ATOM     35  N   UNL     1      11.456  -0.960   4.966  0.00  0.00    -0.380 N 
ATOM     36  C   UNL     1      10.136  -0.477   4.548  0.00  0.00    +0.150 C 
ATOM     37  H   UNL     1      12.074  -0.479   5.538  0.00  0.00    +0.160 HD
ENDBRANCH  27  28
ENDBRANCH  12  26
TORSDOF 5
