REMARK  Name = ZINC04872382
REMARK  14 active torsions:
REMARK  status: ('A' for Active; 'I' for Inactive)
REMARK    1  A    between atoms: C_1  and  C_2
REMARK    2  A    between atoms: C_2  and  C_3
REMARK    3  A    between atoms: C_2  and  C_4
REMARK    4  A    between atoms: C_4  and  C_6
REMARK    5  A    between atoms: C_4  and  N_18
REMARK    6  A    between atoms: N_8  and  C_9
REMARK    7  A    between atoms: C_9  and  C_10
REMARK    8  A    between atoms: C_10  and  C_11
REMARK    9  A    between atoms: C_11  and  N_12
REMARK   10  A    between atoms: C_19  and  C_21
REMARK   11  A    between atoms: C_24  and  C_27
REMARK   12  A    between atoms: C_27  and  C_28
REMARK   13  A    between atoms: C_27  and  C_29
REMARK   14  A    between atoms: C_27  and  C_30
REMARK                            x       y       z     vdW  Elec       q    Type
REMARK                         _______ _______ _______ _____ _____    ______ ____
ROOT
ATOM      1  C   UNL     1      -1.386  -0.633  -0.056  0.00  0.00    +0.161 C 
ENDROOT
BRANCH   1   2
ATOM      2  C   UNL     1      -2.074  -0.231  -1.335  0.00  0.00    +0.234 C 
ATOM      3  O   UNL     1      -2.511  -1.081  -2.081  0.00  0.00    -0.274 OA
ATOM      4  N   UNL     1      -2.204   1.073  -1.649  0.00  0.00    -0.314 N 
ATOM      5  H   UNL     1      -1.924   1.754  -1.018  0.00  0.00    +0.149 HD
BRANCH   4   6
ATOM      6  C   UNL     1      -2.768   1.462  -2.944  0.00  0.00    +0.102 C 
BRANCH   6   7
ATOM      7  C   UNL     1      -2.804   2.988  -3.047  0.00  0.00    +0.000 C 
BRANCH   7   8
ATOM      8  C   UNL     1      -3.393   3.394  -4.399  0.00  0.00    -0.077 C 
BRANCH   8   9
ATOM      9  N   UNL     1      -3.428   4.859  -4.498  0.00  0.00    +0.380 N 
ATOM     10  C   UNL     1      -4.348   5.395  -3.488  0.00  0.00    -0.079 C 
ATOM     11  C   UNL     1      -4.327   6.925  -3.532  0.00  0.00    -0.019 C 
ATOM     12  C   UNL     1      -4.763   7.395  -4.923  0.00  0.00    -0.004 C 
ATOM     13  C   UNL     1      -3.841   6.771  -5.974  0.00  0.00    -0.019 C 
ATOM     14  C   UNL     1      -3.881   5.247  -5.839  0.00  0.00    -0.079 C 
ATOM     15  H   UNL     1      -2.503   5.228  -4.337  0.00  0.00    -0.082 HD
ENDBRANCH   8   9
ENDBRANCH   7   8
ENDBRANCH   6   7
ENDBRANCH   4   6
ENDBRANCH   1   2
BRANCH   1  16
ATOM     16  N   UNL     1      -1.702  -2.030   0.251  0.00  0.00    -0.304 N 
ATOM     17  C   UNL     1      -1.649  -2.470   1.523  0.00  0.00    +0.217 C 
ATOM     18  O   UNL     1      -1.340  -1.709   2.416  0.00  0.00    -0.275 OA
ATOM     19  H   UNL     1      -1.949  -2.639  -0.463  0.00  0.00    +0.149 HD
BRANCH  17  20
ATOM     20  C   UNL     1      -1.974  -3.908   1.838  0.00  0.00    +0.075 C 
ATOM     21  C   UNL     1      -3.408  -4.214   1.401  0.00  0.00    +0.013 C 
ATOM     22  C   UNL     1      -3.737  -5.673   1.720  0.00  0.00    +0.005 C 
ATOM     23  C   UNL     1      -3.602  -5.909   3.226  0.00  0.00    -0.006 C 
ATOM     24  C   UNL     1      -2.168  -5.603   3.663  0.00  0.00    +0.005 C 
ATOM     25  C   UNL     1      -1.839  -4.143   3.344  0.00  0.00    +0.013 C 
BRANCH  23  26
ATOM     26  C   UNL     1      -3.932  -7.369   3.546  0.00  0.00    -0.035 C 
ATOM     27  C   UNL     1      -2.963  -8.286   2.797  0.00  0.00    +0.011 C 
ATOM     28  C   UNL     1      -3.797  -7.604   5.051  0.00  0.00    +0.011 C 
ATOM     29  C   UNL     1      -5.366  -7.675   3.108  0.00  0.00    +0.011 C 
ENDBRANCH  23  26
ENDBRANCH  17  20
ENDBRANCH   1  16
BRANCH   1  31
ATOM     30  C   UNL     1       0.820  -0.801   1.106  0.00  0.00    +0.009 C 
ATOM     31  C   UNL     1       0.127  -0.476  -0.219  0.00  0.00    +0.012 C 
ATOM     32  C   UNL     1       0.625  -1.434  -1.303  0.00  0.00    +0.009 C 
ENDBRANCH   1  31
TORSDOF 9
