REMARK  Name = ZINC05954005
REMARK  6 active torsions:
REMARK  status: ('A' for Active; 'I' for Inactive)
REMARK    1  A    between atoms: C_1  and  C_2
REMARK    2  A    between atoms: C_2  and  C_3
REMARK    3  A    between atoms: C_12  and  C_15
REMARK    4  A    between atoms: N_17  and  N_18
REMARK    5  A    between atoms: N_18  and  C_19
REMARK    6  A    between atoms: C_19  and  N_21
REMARK                            x       y       z     vdW  Elec       q    Type
REMARK                         _______ _______ _______ _____ _____    ______ ____
ROOT
ATOM      1  C   UNL     1      -1.433  -0.534   0.013  0.00  0.00    -0.028 C 
ATOM      2  C   UNL     1      -2.149  -0.040   1.272  0.00  0.00    +0.010 C 
ATOM      3  C   UNL     1      -3.585  -0.570   1.282  0.00  0.00    -0.009 C 
ATOM      4  C   UNL     1      -4.325  -0.063   0.043  0.00  0.00    +0.007 C 
ATOM      5  C   UNL     1      -3.609  -0.556  -1.216  0.00  0.00    -0.009 C 
ATOM      6  C   UNL     1      -2.173  -0.027  -1.227  0.00  0.00    +0.010 C 
ATOM      7  C   UNL     1      -3.588  -2.086  -1.224  0.00  0.00    +0.019 C 
ATOM      8  C   UNL     1      -2.848  -2.593   0.015  0.00  0.00    +0.049 C 
ATOM      9  C   UNL     1      -3.564  -2.100   1.274  0.00  0.00    +0.019 C 
ATOM     10  C   UNL     1      -1.413  -2.063   0.004  0.00  0.00    +0.023 C 
ENDROOT
BRANCH   8  11
ATOM     11  C   UNL     1      -2.828  -4.100   0.007  0.00  0.00    +0.235 C 
ATOM     12  O   UNL     1      -1.769  -4.692  -0.006  0.00  0.00    -0.274 OA
ATOM     13  N   UNL     1      -3.985  -4.790   0.014  0.00  0.00    -0.235 N 
ATOM     14  H   UNL     1      -4.832  -4.316   0.025  0.00  0.00    +0.173 HD
BRANCH  13  15
ATOM     15  N   UNL     1      -3.966  -6.191   0.007  0.00  0.00    -0.246 N 
ATOM     16  H   UNL     1      -3.120  -6.664  -0.004  0.00  0.00    +0.172 HD
BRANCH  15  17
ATOM     17  C   UNL     1      -5.124  -6.880   0.014  0.00  0.00    +0.144 C 
ATOM     18  S   UNL     1      -5.101  -8.592   0.005  0.00  0.00    -0.018 S 
BRANCH  17  19
ATOM     19  N   UNL     1      -6.301  -6.222   0.029  0.00  0.00    -0.340 N 
ATOM     20  H   UNL     1      -6.314  -5.252   0.034  0.00  0.00    +0.144 HD
ATOM     21  H   UNL     1      -7.134  -6.719   0.034  0.00  0.00    +0.144 HD
ENDBRANCH  17  19
ENDBRANCH  15  17
ENDBRANCH  13  15
ENDBRANCH   8  11
BRANCH   1  23
ATOM     22  C   UNL     1      -0.019   1.526   0.010  0.00  0.00    +0.004 C 
ATOM     23  C   UNL     1       0.002  -0.004   0.002  0.00  0.00    +0.003 C 
ENDBRANCH   1  23
TORSDOF 5
