REMARK  Name = ZINC32985923
REMARK  13 active torsions:
REMARK  status: ('A' for Active; 'I' for Inactive)
REMARK    1  A    between atoms: C_1  and  C_2
REMARK    2  A    between atoms: C_2  and  C_3
REMARK    3  A    between atoms: C_2  and  C_4
REMARK    4  A    between atoms: C_4  and  N_5
REMARK    5  A    between atoms: N_5  and  C_6
REMARK    6  A    between atoms: C_7  and  N_22
REMARK    7  A    between atoms: N_8  and  C_15
REMARK    8  A    between atoms: C_15  and  C_16
REMARK    9  A    between atoms: C_23  and  C_25
REMARK   10  A    between atoms: C_25  and  C_26
REMARK   11  A    between atoms: C_26  and  C_28
REMARK   12  A    between atoms: C_26  and  N_34
REMARK   13  A    between atoms: C_35  and  C_37
REMARK                            x       y       z     vdW  Elec       q    Type
REMARK                         _______ _______ _______ _____ _____    ______ ____
ROOT
ATOM      1  N   UNL     1      -0.599   1.962   4.129  0.00  0.00    -0.264 N 
ATOM      2  C   UNL     1      -0.094   1.465   2.981  0.00  0.00    +0.222 C 
ATOM      3  O   UNL     1       0.933   0.820   2.999  0.00  0.00    -0.275 OA
ENDROOT
BRANCH   1   4
ATOM      4  C   UNL     1       0.011   1.650   5.362  0.00  0.00    +0.140 A 
ATOM      5  C   UNL     1       0.104   0.341   5.788  0.00  0.00    +0.128 A 
ATOM      6  N   UNL     1       0.708   0.068   6.993  0.00  0.00    -0.276 N 
ATOM      7  C   UNL     1       1.196   1.066   7.752  0.00  0.00    +0.331 A 
ATOM      8  O   UNL     1       1.722   0.805   8.816  0.00  0.00    -0.246 OA
ATOM      9  N   UNL     1       1.111   2.349   7.355  0.00  0.00    -0.273 N 
ATOM     10  H   UNL     1       1.516   3.149   7.991  0.00  0.00    +0.173 HD
ATOM     11  C   UNL     1       0.532   2.670   6.181  0.00  0.00    +0.277 A 
ATOM     12  O   UNL     1       0.460   3.835   5.831  0.00  0.00    -0.266 OA
BRANCH   5  13
ATOM     13  N   UNL     1      -0.399  -0.678   5.015  0.00  0.00    -0.343 N 
ATOM     14  H   UNL     1      -0.322  -1.720   5.361  0.00  0.00    +0.144 HD
ATOM     15  H   UNL     1      -0.879  -0.453   4.051  0.00  0.00    +0.144 HD
ENDBRANCH   5  13
BRANCH   6  16
ATOM     16  C   UNL     1       0.817  -1.318   7.455  0.00  0.00    +0.163 C 
BRANCH  16  17
ATOM     17  C   UNL     1      -0.403  -1.674   8.265  0.00  0.00    -0.028 A 
ATOM     18  C   UNL     1      -0.409  -1.468   9.632  0.00  0.00    +0.005 A 
ATOM     19  C   UNL     1      -1.530  -1.791  10.374  0.00  0.00    +0.000 A 
ATOM     20  C   UNL     1      -2.640  -2.329   9.751  0.00  0.00    +0.000 A 
ATOM     21  C   UNL     1      -2.632  -2.541   8.384  0.00  0.00    +0.000 A 
ATOM     22  C   UNL     1      -1.513  -2.213   7.642  0.00  0.00    +0.005 A 
ENDBRANCH  16  17
ENDBRANCH   6  16
ENDBRANCH   1   4
BRANCH   1  23
ATOM     23  C   UNL     1      -1.782   2.826   4.095  0.00  0.00    +0.117 C 
BRANCH  23  25
ATOM     24  C   UNL     1      -3.167   1.202   5.394  0.00  0.00    +0.009 C 
ATOM     25  C   UNL     1      -3.044   1.962   4.071  0.00  0.00    +0.001 C 
ATOM     26  C   UNL     1      -4.271   2.857   3.881  0.00  0.00    +0.009 C 
ENDBRANCH  23  25
ENDBRANCH   1  23
BRANCH   2  27
ATOM     27  C   UNL     1      -0.806   1.710   1.675  0.00  0.00    +0.123 C 
BRANCH  27  28
ATOM     28  C   UNL     1      -0.030   1.044   0.538  0.00  0.00    +0.112 C 
BRANCH  28  29
ATOM     29  C   UNL     1      -0.804   1.184  -0.748  0.00  0.00    -0.027 A 
ATOM     30  C   UNL     1      -0.757   2.369  -1.458  0.00  0.00    +0.005 A 
ATOM     31  C   UNL     1      -1.464   2.496  -2.639  0.00  0.00    +0.000 A 
ATOM     32  C   UNL     1      -2.225   1.440  -3.106  0.00  0.00    +0.000 A 
ATOM     33  C   UNL     1      -2.276   0.257  -2.393  0.00  0.00    +0.000 A 
ATOM     34  C   UNL     1      -1.566   0.129  -1.214  0.00  0.00    +0.005 A 
ENDBRANCH  28  29
BRANCH  28  35
ATOM     35  N   UNL     1       1.276   1.690   0.394  0.00  0.00    -0.308 N 
ATOM     36  C   UNL     1       2.312   1.007  -0.134  0.00  0.00    +0.210 C 
ATOM     37  O   UNL     1       2.140  -0.110  -0.573  0.00  0.00    -0.276 OA
ATOM     38  C   UNL     1       3.682   1.632  -0.177  0.00  0.00    +0.109 C 
ATOM     39  H   UNL     1       1.412   2.733   0.716  0.00  0.00    +0.149 HD
ENDBRANCH  28  35
ENDBRANCH  27  28
ENDBRANCH   2  27
TORSDOF 10
