REMARK  Name = ZINC39561962
REMARK  7 active torsions:
REMARK  status: ('A' for Active; 'I' for Inactive)
REMARK    1  A    between atoms: C_1  and  N_2
REMARK    2  A    between atoms: C_3  and  C_23
REMARK    3  A    between atoms: C_7  and  S_9
REMARK    4  A    between atoms: S_9  and  C_10
REMARK    5  A    between atoms: C_10  and  C_11
REMARK    6  A    between atoms: C_23  and  C_24
REMARK    7  A    between atoms: N_26  and  C_27
REMARK                            x       y       z     vdW  Elec       q    Type
REMARK                         _______ _______ _______ _____ _____    ______ ____
ROOT
ATOM      1  C   UNL     1      -0.032   1.454   0.015  0.00  0.00    +0.108 C 
ATOM      2  N   UNL     1      -0.001  -0.014   0.005  0.00  0.00    -0.264 NA
ATOM      3  C   UNL     1       0.792  -0.522  -1.146  0.00  0.00    +0.149 C 
ATOM      4  N   UNL     1       1.199  -1.878  -0.693  0.00  0.00    -0.237 NA
ATOM      5  N   UNL     1       1.473  -1.720   0.738  0.00  0.00    -0.229 NA
ATOM      6  C   UNL     1       0.711  -0.539   1.192  0.00  0.00    +0.200 C 
ATOM      7  H   UNL     1       2.021  -2.193  -1.186  0.00  0.00    +0.142 HD
ATOM      8  H   UNL     1       2.461  -1.600   0.906  0.00  0.00    +0.143 HD
ENDROOT
BRANCH   6   9
ATOM      9  S   UNL     1      -0.482  -1.023   2.470  0.00  0.00    -0.117 S 
BRANCH   9  10
ATOM     10  C   UNL     1      -1.491  -2.300   1.667  0.00  0.00    +0.146 C 
BRANCH  10  11
ATOM     11  C   UNL     1      -2.537  -2.795   2.632  0.00  0.00    +0.120 A 
ATOM     12  N   UNL     1      -3.392  -3.764   2.215  0.00  0.00    -0.310 N 
ATOM     13  H   UNL     1      -3.317  -4.116   1.314  0.00  0.00    +0.170 HD
ATOM     14  C   UNL     1      -4.349  -4.243   3.044  0.00  0.00    +0.259 A 
ATOM     15  O   UNL     1      -5.122  -5.111   2.683  0.00  0.00    -0.267 OA
ATOM     16  C   UNL     1      -4.418  -3.673   4.398  0.00  0.00    +0.065 A 
ATOM     17  C   UNL     1      -5.366  -4.095   5.328  0.00  0.00    +0.015 A 
ATOM     18  C   UNL     1      -5.387  -3.526   6.582  0.00  0.00    +0.001 A 
ATOM     19  C   UNL     1      -4.473  -2.539   6.925  0.00  0.00    +0.002 A 
ATOM     20  C   UNL     1      -3.529  -2.107   6.021  0.00  0.00    +0.028 A 
ATOM     21  C   UNL     1      -3.487  -2.668   4.743  0.00  0.00    +0.078 A 
ATOM     22  N   UNL     1      -2.571  -2.277   3.822  0.00  0.00    -0.233 NA
ENDBRANCH  10  11
ENDBRANCH   9  10
ENDBRANCH   6   9
BRANCH   3  23
ATOM     23  C   UNL     1      -0.071  -0.604  -2.406  0.00  0.00    +0.132 C 
BRANCH  23  24
ATOM     24  C   UNL     1       0.760  -1.122  -3.552  0.00  0.00    +0.220 C 
ATOM     25  O   UNL     1       1.928  -1.398  -3.377  0.00  0.00    -0.275 OA
ATOM     26  N   UNL     1       0.205  -1.278  -4.770  0.00  0.00    -0.285 N 
ATOM     27  H   UNL     1      -0.744  -1.121  -4.894  0.00  0.00    +0.155 HD
BRANCH  26  28
ATOM     28  C   UNL     1       0.998  -1.665  -5.856  0.00  0.00    +0.033 A 
ATOM     29  C   UNL     1       0.735  -1.164  -7.124  0.00  0.00    +0.025 A 
ATOM     30  C   UNL     1       1.519  -1.548  -8.194  0.00  0.00    +0.022 A 
ATOM     31  C   UNL     1       2.567  -2.432  -8.003  0.00  0.00    +0.041 A 
ATOM     32  C   UNL     1       2.832  -2.933  -6.740  0.00  0.00    +0.022 A 
ATOM     33  C   UNL     1       2.054  -2.547  -5.666  0.00  0.00    +0.025 A 
ATOM     34 CL   UNL     1       3.551  -2.913  -9.350  0.00  0.00    -0.084 Cl
ENDBRANCH  26  28
ENDBRANCH  23  24
ENDBRANCH   3  23
TORSDOF 6
