REMARK  Name = ZINC54167857
REMARK  7 active torsions:
REMARK  status: ('A' for Active; 'I' for Inactive)
REMARK    1  A    between atoms: C_3  and  N_23
REMARK    2  A    between atoms: C_6  and  C_7
REMARK    3  A    between atoms: C_7  and  C_8
REMARK    4  A    between atoms: C_8  and  N_9
REMARK    5  A    between atoms: C_10  and  C_12
REMARK    6  A    between atoms: C_14  and  S_19
REMARK    7  A    between atoms: S_19  and  N_22
REMARK                            x       y       z     vdW  Elec       q    Type
REMARK                         _______ _______ _______ _____ _____    ______ ____
ROOT
ATOM      1  N   UNL     1      -3.003  -1.778  -1.421  0.00  0.00    -0.311 N 
ATOM      2  C   UNL     1      -3.593  -2.117  -2.585  0.00  0.00    +0.246 C 
ATOM      3  O   UNL     1      -3.081  -1.800  -3.641  0.00  0.00    -0.270 OA
ATOM      4  H   UNL     1      -3.412  -2.031  -0.579  0.00  0.00    +0.149 HD
ENDROOT
BRANCH   2   5
ATOM      5  C   UNL     1      -4.863  -2.873  -2.577  0.00  0.00    +0.057 A 
ATOM      6  C   UNL     1      -5.457  -3.233  -1.366  0.00  0.00    +0.043 A 
ATOM      7  C   UNL     1      -6.642  -3.939  -1.365  0.00  0.00    +0.106 A 
ATOM      8  C   UNL     1      -7.243  -4.290  -2.562  0.00  0.00    +0.030 A 
ATOM      9  C   UNL     1      -6.661  -3.938  -3.765  0.00  0.00    +0.022 A 
ATOM     10  C   UNL     1      -5.477  -3.226  -3.781  0.00  0.00    +0.053 A 
ATOM     11 CL   UNL     1      -4.751  -2.777  -5.293  0.00  0.00    -0.083 Cl
BRANCH   7  12
ATOM     12  S   UNL     1      -7.393  -4.394   0.162  0.00  0.00    +0.056 S 
ATOM     13  O   UNL     1      -8.213  -5.522  -0.109  0.00  0.00    -0.153 OA
ATOM     14  O   UNL     1      -6.354  -4.423   1.132  0.00  0.00    -0.153 OA
BRANCH  12  15
ATOM     15  N   UNL     1      -8.410  -3.161   0.594  0.00  0.00    -0.204 NA
ATOM     16  H   UNL     1      -8.493  -2.379   0.026  0.00  0.00    +0.144 HD
ATOM     17  H   UNL     1      -8.923  -3.221   1.415  0.00  0.00    +0.144 HD
ENDBRANCH  12  15
ENDBRANCH   7  12
ENDBRANCH   2   5
BRANCH   1  18
ATOM     18  C   UNL     1      -1.744  -1.028  -1.429  0.00  0.00    +0.109 C 
BRANCH  18  19
ATOM     19  C   UNL     1      -1.293  -0.775   0.010  0.00  0.00    +0.054 C 
BRANCH  19  25
ATOM     20  C   UNL     1      -0.017   1.378   0.010  0.00  0.00    +0.006 A 
ATOM     21  C   UNL     1       1.171   2.086   0.002  0.00  0.00    +0.033 A 
ATOM     22  C   UNL     1       2.377   1.411  -0.013  0.00  0.00    +0.126 A 
ATOM     23  C   UNL     1       2.396   0.029  -0.020  0.00  0.00    +0.033 A 
ATOM     24  C   UNL     1       1.208  -0.679  -0.012  0.00  0.00    +0.006 A 
ATOM     25  C   UNL     1       0.002  -0.004   0.002  0.00  0.00    -0.046 A 
BRANCH  22  26
ATOM     26  N   UNL     1       3.649   2.168  -0.022  0.00  0.00    +0.056 N 
ATOM     27  O   UNL     1       3.633   3.377  -0.016  0.00  0.00    -0.126 OA
ATOM     28  O   UNL     1       4.704   1.578  -0.035  0.00  0.00    -0.126 OA
ENDBRANCH  22  26
ENDBRANCH  19  25
ENDBRANCH  18  19
ENDBRANCH   1  18
TORSDOF 7
