REMARK  Name = ZINC39232255
REMARK  5 active torsions:
REMARK  status: ('A' for Active; 'I' for Inactive)
REMARK    1  A    between atoms: C_4  and  C_7
REMARK    2  A    between atoms: C_7  and  C_8
REMARK    3  A    between atoms: C_8  and  C_10
REMARK    4  A    between atoms: C_8  and  N_27
REMARK    5  A    between atoms: C_28  and  C_30
REMARK                            x       y       z     vdW  Elec       q    Type
REMARK                         _______ _______ _______ _____ _____    ______ ____
ROOT
ATOM      1  C   UNL     1       4.172  -0.963   1.405  0.00  0.00    +0.164 C 
ENDROOT
BRANCH   1   2
ATOM      2  C   UNL     1       5.487  -1.699   1.381  0.00  0.00    +0.236 C 
ATOM      3  O   UNL     1       5.506  -2.909   1.462  0.00  0.00    -0.274 OA
ATOM      4  N   UNL     1       6.641  -1.013   1.271  0.00  0.00    -0.300 N 
ATOM      5  C   UNL     1       6.643   0.457   1.283  0.00  0.00    +0.106 C 
ATOM      6  C   UNL     1       7.380   0.958   0.037  0.00  0.00    +0.009 C 
ATOM      7  C   UNL     1       8.771   0.327  -0.017  0.00  0.00    -0.037 C 
ATOM      8  C   UNL     1       8.647  -1.194  -0.107  0.00  0.00    +0.009 C 
ATOM      9  C   UNL     1       7.923  -1.719   1.143  0.00  0.00    +0.106 C 
ATOM     10  C   UNL     1       9.528   0.855  -1.237  0.00  0.00    +0.140 C 
ATOM     11  C   UNL     1       9.717   2.349  -0.989  0.00  0.00    +0.042 C 
ATOM     12  N   UNL     1       9.207   2.942  -1.996  0.00  0.00    -0.243 NA
ATOM     13  C   UNL     1       8.617   2.067  -2.847  0.00  0.00    +0.216 C 
ATOM     14  N   UNL     1       8.736   0.812  -2.466  0.00  0.00    -0.264 NA
ATOM     15  C   UNL     1      10.291   2.864   0.306  0.00  0.00    +0.034 C 
ATOM     16  C   UNL     1       9.526   2.136   1.428  0.00  0.00    -0.076 C 
ATOM     17  N   UNL     1       9.526   0.691   1.191  0.00  0.00    +0.385 N 
ATOM     18  H   UNL     1       9.112   0.229   1.987  0.00  0.00    -0.085 HD
ATOM     19  H   UNL     1      10.479   0.375   1.089  0.00  0.00    -0.085 HD
ENDBRANCH   1   2
BRANCH   1  20
ATOM     20  N   UNL     1       3.162  -1.788   2.074  0.00  0.00    -0.300 N 
ATOM     21  C   UNL     1       2.098  -1.206   2.662  0.00  0.00    +0.245 C 
ATOM     22  O   UNL     1       1.976   0.004   2.637  0.00  0.00    -0.270 OA
ATOM     23  H   UNL     1       3.260  -2.753   2.094  0.00  0.00    +0.150 HD
BRANCH  21  24
ATOM     24  C   UNL     1       1.081  -2.037   3.336  0.00  0.00    +0.040 A 
ATOM     25  C   UNL     1       1.223  -3.426   3.370  0.00  0.00    +0.017 A 
ATOM     26  C   UNL     1       0.274  -4.200   4.000  0.00  0.00    +0.050 A 
ATOM     27  C   UNL     1      -0.827  -3.605   4.602  0.00  0.00    +0.166 A 
ATOM     28  C   UNL     1      -0.975  -2.217   4.571  0.00  0.00    +0.167 A 
ATOM     29  C   UNL     1      -0.023  -1.436   3.946  0.00  0.00    +0.062 A 
ATOM     30  O   UNL     1      -2.126  -1.887   5.226  0.00  0.00    -0.453 OA
ATOM     31  C   UNL     1      -2.887  -3.107   5.302  0.00  0.00    +0.466 C 
ATOM     32  O   UNL     1      -1.884  -4.139   5.277  0.00  0.00    -0.453 OA
ENDBRANCH  21  24
ENDBRANCH   1  20
BRANCH   1  33
ATOM     33  C   UNL     1       3.724  -0.671  -0.028  0.00  0.00    +0.067 C 
BRANCH  33  37
ATOM     34  C   UNL     1       0.220   1.771   0.040  0.00  0.00    +0.000 A 
ATOM     35  C   UNL     1       1.472   2.358   0.016  0.00  0.00    +0.000 A 
ATOM     36  C   UNL     1       2.605   1.568  -0.006  0.00  0.00    +0.004 A 
ATOM     37  C   UNL     1       2.488   0.190  -0.003  0.00  0.00    -0.045 A 
ATOM     38  C   UNL     1       1.237  -0.397   0.022  0.00  0.00    +0.004 A 
ATOM     39  C   UNL     1       0.103   0.394   0.043  0.00  0.00    +0.000 A 
ENDBRANCH  33  37
ENDBRANCH   1  33
TORSDOF 5
