REMARK  Name = ZINC12491446
REMARK  13 active torsions:
REMARK  status: ('A' for Active; 'I' for Inactive)
REMARK    1  A    between atoms: C_1  and  C_2
REMARK    2  A    between atoms: C_2  and  C_3
REMARK    3  A    between atoms: C_3  and  C_4
REMARK    4  A    between atoms: C_3  and  C_5
REMARK    5  A    between atoms: C_3  and  N_6
REMARK    6  A    between atoms: C_7  and  C_9
REMARK    7  A    between atoms: C_9  and  C_11
REMARK    8  A    between atoms: C_9  and  N_18
REMARK    9  A    between atoms: N_18  and  C_19
REMARK   10  A    between atoms: C_26  and  C_28
REMARK   11  A    between atoms: C_28  and  C_29
REMARK   12  A    between atoms: C_29  and  C_30
REMARK   13  A    between atoms: C_35  and  C_38
REMARK                            x       y       z     vdW  Elec       q    Type
REMARK                         _______ _______ _______ _____ _____    ______ ____
ROOT
ATOM      1  N   UNL     1      -6.280  -3.166  -0.069  0.00  0.00    -0.253 N 
ATOM      2  C   UNL     1      -6.302  -1.899  -0.530  0.00  0.00    +0.221 C 
ATOM      3  O   UNL     1      -7.345  -1.281  -0.555  0.00  0.00    -0.275 OA
ENDROOT
BRANCH   1   4
ATOM      4  C   UNL     1      -5.075  -3.879  -0.039  0.00  0.00    +0.073 A 
ATOM      5  C   UNL     1      -4.394  -4.044   1.159  0.00  0.00    +0.026 A 
ATOM      6  C   UNL     1      -3.206  -4.749   1.185  0.00  0.00    +0.002 A 
ATOM      7  C   UNL     1      -2.695  -5.291   0.020  0.00  0.00    +0.003 A 
ATOM      8  C   UNL     1      -3.370  -5.130  -1.175  0.00  0.00    +0.040 A 
ATOM      9  C   UNL     1      -4.562  -4.429  -1.208  0.00  0.00    +0.145 A 
ATOM     10  F   UNL     1      -5.225  -4.276  -2.376  0.00  0.00    -0.204 F 
ENDBRANCH   1   4
BRANCH   1  11
ATOM     11  C   UNL     1      -7.516  -3.795   0.402  0.00  0.00    +0.199 C 
BRANCH  11  12
ATOM     12  C   UNL     1      -7.309  -4.331   1.795  0.00  0.00    +0.000 A 
ATOM     13  C   UNL     1      -7.155  -5.690   1.997  0.00  0.00    +0.007 A 
ATOM     14  C   UNL     1      -6.960  -6.181   3.274  0.00  0.00    +0.000 A 
ATOM     15  C   UNL     1      -6.928  -5.315   4.351  0.00  0.00    +0.001 A 
ATOM     16  C   UNL     1      -7.087  -3.957   4.151  0.00  0.00    +0.020 A 
ATOM     17  C   UNL     1      -7.277  -3.464   2.872  0.00  0.00    +0.046 A 
ATOM     18 CL   UNL     1      -7.477  -1.758   2.620  0.00  0.00    -0.083 Cl
ENDBRANCH  11  12
BRANCH  11  20
ATOM     19  N   UNL     1      -9.052  -5.582  -0.352  0.00  0.00    -0.308 N 
ATOM     20  C   UNL     1      -7.886  -4.927  -0.522  0.00  0.00    +0.239 C 
ATOM     21  O   UNL     1      -7.135  -5.249  -1.418  0.00  0.00    -0.273 OA
ATOM     22  H   UNL     1      -9.688  -5.275   0.313  0.00  0.00    +0.149 HD
BRANCH  19  23
ATOM     23  C   UNL     1      -9.359  -6.756  -1.172  0.00  0.00    +0.029 C 
ATOM     24  C   UNL     1      -9.370  -6.358  -2.649  0.00  0.00    +0.031 C 
ATOM     25  C   UNL     1      -8.295  -7.831  -0.942  0.00  0.00    +0.031 C 
BRANCH  23  27
ATOM     26  C   UNL     1     -11.053  -8.533  -1.638  0.00  0.00    +0.006 C 
ATOM     27  C   UNL     1     -10.732  -7.306  -0.782  0.00  0.00    +0.022 C 
ENDBRANCH  23  27
ENDBRANCH  19  23
ENDBRANCH  11  20
ENDBRANCH   1  11
BRANCH   2  28
ATOM     28  C   UNL     1      -5.030  -1.252  -1.013  0.00  0.00    +0.105 C 
BRANCH  28  29
ATOM     29  C   UNL     1      -5.330   0.175  -1.480  0.00  0.00    +0.105 C 
BRANCH  29  30
ATOM     30  C   UNL     1      -4.058   0.823  -1.964  0.00  0.00    +0.219 C 
ATOM     31  O   UNL     1      -3.015   0.204  -1.938  0.00  0.00    -0.275 OA
ATOM     32  N   UNL     1      -4.080   2.089  -2.425  0.00  0.00    -0.268 N 
ATOM     33  C   UNL     1      -2.902   2.688  -2.873  0.00  0.00    +0.168 A 
ATOM     34  C   UNL     1      -1.608   2.104  -2.908  0.00  0.00    +0.091 A 
ATOM     35  C   UNL     1      -0.825   3.079  -3.424  0.00  0.00    +0.136 A 
ATOM     36  O   UNL     1      -1.623   4.131  -3.653  0.00  0.00    -0.358 OA
ATOM     37  N   UNL     1      -2.768   3.902  -3.340  0.00  0.00    -0.063 NA
ATOM     38  C   UNL     1       0.656   2.998  -3.689  0.00  0.00    +0.089 C 
ATOM     39  H   UNL     1      -4.914   2.583  -2.445  0.00  0.00    +0.156 HD
ENDBRANCH  29  30
ENDBRANCH  28  29
ENDBRANCH   2  28
TORSDOF 9
