REMARK  Name = ZINC02124077
REMARK  6 active torsions:
REMARK  status: ('A' for Active; 'I' for Inactive)
REMARK    1  A    between atoms: C_1  and  C_2
REMARK    2  A    between atoms: C_2  and  N_3
REMARK    3  A    between atoms: C_14  and  C_16
REMARK    4  A    between atoms: C_17  and  C_18
REMARK    5  A    between atoms: C_19  and  C_32
REMARK    6  A    between atoms: C_19  and  C_33
REMARK                            x       y       z     vdW  Elec       q    Type
REMARK                         _______ _______ _______ _____ _____    ______ ____
ROOT
ATOM      1  C   UNL     1      -5.060  -1.835  -4.023  0.00  0.00    +0.007 C 
ATOM      2  C   UNL     1      -4.778  -1.719  -5.313  0.00  0.00    +0.020 C 
ENDROOT
BRANCH   2   3
ATOM      3  C   UNL     1      -5.811  -2.091  -6.346  0.00  0.00    +0.130 C 
ATOM      4  C   UNL     1      -5.317  -3.266  -7.200  0.00  0.00    +0.034 C 
ATOM      5  C   UNL     1      -6.189  -4.417  -6.784  0.00  0.00    -0.017 A 
ATOM      6  C   UNL     1      -6.130  -5.745  -7.165  0.00  0.00    +0.006 A 
ATOM      7  C   UNL     1      -7.066  -6.607  -6.606  0.00  0.00    +0.000 A 
ATOM      8  C   UNL     1      -8.013  -6.157  -5.710  0.00  0.00    +0.002 A 
ATOM      9  C   UNL     1      -8.084  -4.828  -5.327  0.00  0.00    +0.023 A 
ATOM     10  C   UNL     1      -7.152  -3.946  -5.885  0.00  0.00    +0.035 A 
ATOM     11  N   UNL     1      -7.039  -2.586  -5.694  0.00  0.00    -0.304 N 
ATOM     12  C   UNL     1      -7.978  -1.669  -5.028  0.00  0.00    +0.117 C 
ATOM     13  C   UNL     1      -8.443  -0.667  -6.093  0.00  0.00    +0.115 C 
ATOM     14  C   UNL     1      -7.315  -0.267  -6.992  0.00  0.00    +0.216 C 
ATOM     15  O   UNL     1      -7.449   0.761  -7.621  0.00  0.00    -0.276 OA
ATOM     16  N   UNL     1      -6.170  -0.927  -7.148  0.00  0.00    -0.290 N 
ATOM     17  C   UNL     1      -3.849  -3.570  -6.895  0.00  0.00    +0.020 C 
ATOM     18  C   UNL     1      -5.505  -2.963  -8.688  0.00  0.00    +0.020 C 
ATOM     19  H   UNL     1      -5.560  -0.633  -7.843  0.00  0.00    +0.151 HD
ENDBRANCH   2   3
BRANCH   1  31
ATOM     20  N   UNL     1      -1.372  -0.511   0.012  0.00  0.00    -0.340 N 
ATOM     21  C   UNL     1      -2.105  -0.785   1.153  0.00  0.00    +0.050 A 
ATOM     22  C   UNL     1      -1.804  -0.679   2.508  0.00  0.00    +0.026 A 
ATOM     23  C   UNL     1      -2.744  -1.028   3.453  0.00  0.00    +0.002 A 
ATOM     24  C   UNL     1      -3.994  -1.489   3.068  0.00  0.00    +0.001 A 
ATOM     25  C   UNL     1      -4.311  -1.601   1.732  0.00  0.00    +0.010 A 
ATOM     26  C   UNL     1      -3.370  -1.251   0.766  0.00  0.00    +0.008 A 
ATOM     27  C   UNL     1      -3.382  -1.250  -0.709  0.00  0.00    +0.008 A 
ATOM     28  C   UNL     1      -2.124  -0.778  -1.117  0.00  0.00    +0.050 A 
ATOM     29  C   UNL     1      -1.843  -0.663  -2.476  0.00  0.00    +0.027 A 
ATOM     30  C   UNL     1      -2.791  -1.004  -3.412  0.00  0.00    +0.010 A 
ATOM     31  C   UNL     1      -4.047  -1.471  -3.010  0.00  0.00    -0.025 A 
ATOM     32  C   UNL     1      -4.339  -1.600  -1.655  0.00  0.00    +0.018 A 
BRANCH  20  34
ATOM     33  C   UNL     1      -0.019   1.526   0.010  0.00  0.00    +0.027 C 
ATOM     34  C   UNL     1       0.002  -0.004   0.002  0.00  0.00    +0.119 C 
ENDBRANCH  20  34
ENDBRANCH   1  31
TORSDOF 3
