REMARK  Name = ZINC39638000
REMARK  10 active torsions:
REMARK  status: ('A' for Active; 'I' for Inactive)
REMARK    1  A    between atoms: C_1  and  C_2
REMARK    2  A    between atoms: C_2  and  C_3
REMARK    3  A    between atoms: C_3  and  C_5
REMARK    4  A    between atoms: C_3  and  N_8
REMARK    5  A    between atoms: C_5  and  O_6
REMARK    6  A    between atoms: O_6  and  C_7
REMARK    7  A    between atoms: C_9  and  C_11
REMARK    8  A    between atoms: C_22  and  C_24
REMARK    9  A    between atoms: C_25  and  C_36
REMARK   10  A    between atoms: C_28  and  C_29
REMARK                            x       y       z     vdW  Elec       q    Type
REMARK                         _______ _______ _______ _____ _____    ______ ____
ROOT
ATOM      1  C   UNL     1      -0.608   1.458   4.234  0.00  0.00    +0.100 C 
ATOM      2  C   UNL     1      -2.112   1.596   3.909  0.00  0.00    +0.121 C 
ATOM      3  N   UNL     1      -2.569   2.741   4.730  0.00  0.00    -0.296 N 
ATOM      4  C   UNL     1      -1.455   3.716   4.656  0.00  0.00    +0.115 C 
ATOM      5  C   UNL     1      -0.180   2.852   4.724  0.00  0.00    -0.004 C 
ATOM      6  C   UNL     1       0.896   3.427   3.807  0.00  0.00    -0.010 C 
ATOM      7  C   UNL     1       1.346   4.787   4.347  0.00  0.00    -0.082 C 
ATOM      8  N   UNL     1       1.870   4.626   5.709  0.00  0.00    +0.379 N 
ATOM      9  C   UNL     1       0.803   4.161   6.604  0.00  0.00    -0.082 C 
ATOM     10  C   UNL     1       0.330   2.774   6.159  0.00  0.00    -0.010 C 
ATOM     11  C   UNL     1      -3.735   2.868   5.394  0.00  0.00    +0.252 C 
ATOM     12  O   UNL     1      -3.966   3.879   6.030  0.00  0.00    -0.270 OA
ATOM     13  H   UNL     1       2.620   3.951   5.702  0.00  0.00    -0.086 HD
ATOM     14  H   UNL     1       2.222   5.512   6.039  0.00  0.00    -0.086 HD
ENDROOT
BRANCH  11  15
ATOM     15  C   UNL     1      -4.729   1.782   5.351  0.00  0.00    +0.106 A 
ATOM     16  C   UNL     1      -4.826   0.733   6.217  0.00  0.00    +0.147 A 
ATOM     17  O   UNL     1      -5.855  -0.029   5.838  0.00  0.00    -0.359 OA
ATOM     18  N   UNL     1      -6.459   0.531   4.689  0.00  0.00    -0.077 NA
ATOM     19  C   UNL     1      -5.813   1.624   4.370  0.00  0.00    +0.127 A 
ATOM     20  C   UNL     1      -3.925   0.476   7.397  0.00  0.00    +0.090 C 
BRANCH  19  21
ATOM     21  C   UNL     1      -6.114   2.527   3.233  0.00  0.00    +0.023 A 
ATOM     22  C   UNL     1      -5.328   3.657   3.010  0.00  0.00    +0.011 A 
ATOM     23  C   UNL     1      -5.613   4.494   1.950  0.00  0.00    +0.001 A 
ATOM     24  C   UNL     1      -6.677   4.215   1.111  0.00  0.00    +0.001 A 
ATOM     25  C   UNL     1      -7.461   3.097   1.326  0.00  0.00    +0.020 A 
ATOM     26  C   UNL     1      -7.181   2.247   2.380  0.00  0.00    +0.050 A 
ATOM     27 CL   UNL     1      -8.161   0.839   2.645  0.00  0.00    -0.083 Cl
ENDBRANCH  19  21
ENDBRANCH  11  15
BRANCH   1  29
ATOM     28  N   UNL     1       1.304   0.366   3.107  0.00  0.00    -0.310 N 
ATOM     29  C   UNL     1       0.164   1.077   2.997  0.00  0.00    +0.218 C 
ATOM     30  O   UNL     1      -0.240   1.409   1.903  0.00  0.00    -0.275 OA
ATOM     31  H   UNL     1       1.628   0.100   3.982  0.00  0.00    +0.149 HD
BRANCH  28  32
ATOM     32  C   UNL     1       2.054  -0.005   1.905  0.00  0.00    +0.098 C 
BRANCH  32  34
ATOM     33  C   UNL     1       0.046  -1.046   0.844  0.00  0.00    +0.006 C 
ATOM     34  C   UNL     1       1.478  -1.297   1.322  0.00  0.00    +0.021 C 
ENDBRANCH  32  34
BRANCH  32  35
ATOM     35  C   UNL     1       3.525  -0.221   2.268  0.00  0.00    +0.181 C 
BRANCH  35  36
ATOM     36  O   UNL     1       3.639  -1.343   3.145  0.00  0.00    -0.381 OA
ATOM     37  C   UNL     1       4.979  -1.633   3.547  0.00  0.00    +0.194 C 
ENDBRANCH  35  36
ENDBRANCH  32  35
ENDBRANCH  28  32
ENDBRANCH   1  29
TORSDOF 7
