REMARK  Name = ZINC38596249
REMARK  13 active torsions:
REMARK  status: ('A' for Active; 'I' for Inactive)
REMARK    1  A    between atoms: C_1  and  C_2
REMARK    2  A    between atoms: C_4  and  C_37
REMARK    3  A    between atoms: C_5  and  C_36
REMARK    4  A    between atoms: C_6  and  S_9
REMARK    5  A    between atoms: C_7  and  C_8
REMARK    6  A    between atoms: S_9  and  N_12
REMARK    7  A    between atoms: N_12  and  C_13
REMARK    8  A    between atoms: C_13  and  C_15
REMARK    9  A    between atoms: C_13  and  C_16
REMARK   10  A    between atoms: C_16  and  C_18
REMARK   11  A    between atoms: C_16  and  N_23
REMARK   12  A    between atoms: N_26  and  C_29
REMARK   13  A    between atoms: C_29  and  C_30
REMARK                            x       y       z     vdW  Elec       q    Type
REMARK                         _______ _______ _______ _____ _____    ______ ____
ROOT
ATOM      1  C   UNL     1       3.380  -2.299   3.549  0.00  0.00    +0.112 C 
ENDROOT
BRANCH   1   2
ATOM      2  N   UNL     1       4.304  -1.239   3.974  0.00  0.00    -0.297 NA
ATOM      3  C   UNL     1       3.999   0.029   3.296  0.00  0.00    +0.066 C 
ATOM      4  C   UNL     1       4.942   1.118   3.811  0.00  0.00    -0.063 C 
ATOM      5  N   UNL     1       6.333   0.725   3.549  0.00  0.00    +0.384 N 
ATOM      6  C   UNL     1       6.630  -0.529   4.252  0.00  0.00    -0.063 C 
ATOM      7  C   UNL     1       5.701  -1.633   3.741  0.00  0.00    +0.066 C 
ATOM      8  H   UNL     1       6.464   0.594   2.557  0.00  0.00    -0.081 HD
BRANCH   5   9
ATOM      9  C   UNL     1       7.238   1.780   4.026  0.00  0.00    -0.043 C 
BRANCH   9  10
ATOM     10  C   UNL     1       8.655   1.435   3.648  0.00  0.00    -0.064 A 
ATOM     11  C   UNL     1       9.438   0.688   4.508  0.00  0.00    +0.002 A 
ATOM     12  C   UNL     1      10.738   0.371   4.162  0.00  0.00    +0.000 A 
ATOM     13  C   UNL     1      11.255   0.801   2.954  0.00  0.00    +0.000 A 
ATOM     14  C   UNL     1      10.473   1.548   2.093  0.00  0.00    +0.000 A 
ATOM     15  C   UNL     1       9.171   1.861   2.438  0.00  0.00    +0.002 A 
ENDBRANCH   9  10
ENDBRANCH   5   9
ENDBRANCH   1   2
BRANCH   1  16
ATOM     16  C   UNL     1       3.665  -3.557   4.329  0.00  0.00    +0.008 A 
ATOM     17  C   UNL     1       3.682  -4.842   3.900  0.00  0.00    +0.013 A 
ATOM     18  C   UNL     1       3.972  -5.847   4.804  0.00  0.00    +0.008 A 
ATOM     19  C   UNL     1       4.232  -5.517   6.093  0.00  0.00    +0.045 A 
ATOM     20  S   UNL     1       4.075  -3.739   6.057  0.00  0.00    -0.100 S 
ENDBRANCH   1  16
BRANCH   1  21
ATOM     21  C   UNL     1       1.939  -1.854   3.806  0.00  0.00    +0.095 C 
ATOM     22  C   UNL     1       1.782  -1.462   5.277  0.00  0.00    +0.027 C 
BRANCH  21  23
ATOM     23  N   UNL     1       1.025  -2.955   3.493  0.00  0.00    -0.185 NA
ATOM     24  H   UNL     1       1.291  -3.871   3.670  0.00  0.00    +0.148 HD
BRANCH  23  25
ATOM     25  S   UNL     1      -0.462  -2.635   2.839  0.00  0.00    +0.059 S 
ATOM     26  O   UNL     1      -1.046  -1.615   3.637  0.00  0.00    -0.153 OA
ATOM     27  O   UNL     1      -1.092  -3.892   2.629  0.00  0.00    -0.153 OA
BRANCH  25  33
ATOM     28  C   UNL     1       0.616  -3.101  -2.254  0.00  0.00    +0.044 C 
ATOM     29  C   UNL     1       0.307  -2.206  -1.081  0.00  0.00    -0.045 A 
ATOM     30  C   UNL     1       0.237  -0.837  -1.256  0.00  0.00    +0.007 A 
ATOM     31  C   UNL     1      -0.046  -0.017  -0.180  0.00  0.00    -0.045 A 
ATOM     32  C   UNL     1      -0.260  -0.566   1.071  0.00  0.00    -0.021 A 
ATOM     33  C   UNL     1      -0.191  -1.935   1.245  0.00  0.00    +0.112 A 
ATOM     34  C   UNL     1       0.088  -2.756   0.168  0.00  0.00    -0.021 A 
ATOM     35  C   UNL     1       0.159  -4.250   0.357  0.00  0.00    +0.046 C 
ATOM     36  C   UNL     1      -0.568   0.328   2.244  0.00  0.00    +0.046 C 
ATOM     37  C   UNL     1      -0.122   1.476  -0.370  0.00  0.00    +0.044 C 
ENDBRANCH  25  33
ENDBRANCH  23  25
ENDBRANCH  21  23
ENDBRANCH   1  21
TORSDOF 8
