REMARK  Name = ZINC03358660
REMARK  7 active torsions:
REMARK  status: ('A' for Active; 'I' for Inactive)
REMARK    1  A    between atoms: C_1  and  C_2
REMARK    2  A    between atoms: C_2  and  N_3
REMARK    3  A    between atoms: N_3  and  C_4
REMARK    4  A    between atoms: N_3  and  C_6
REMARK    5  A    between atoms: C_4  and  C_5
REMARK    6  A    between atoms: C_7  and  C_33
REMARK    7  A    between atoms: C_24  and  C_27
REMARK                            x       y       z     vdW  Elec       q    Type
REMARK                         _______ _______ _______ _____ _____    ______ ____
ROOT
ATOM      1  C   UNL     1       1.211   2.122   0.014  0.00  0.00    +0.118 A 
ATOM      2  C   UNL     1       0.009   1.459   0.313  0.00  0.00    +0.098 A 
ATOM      3  C   UNL     1       0.021  -0.002   0.293  0.00  0.00    +0.018 A 
ATOM      4  C   UNL     1      -1.085  -0.799   0.572  0.00  0.00    +0.027 A 
ATOM      5  C   UNL     1      -0.969  -2.178   0.519  0.00  0.00    +0.221 A 
ATOM      6  N   UNL     1       0.205  -2.747   0.213  0.00  0.00    -0.197 NA
ATOM      7  C   UNL     1       1.288  -2.050  -0.054  0.00  0.00    +0.135 A 
ATOM      8  C   UNL     1       1.242  -0.642  -0.028  0.00  0.00    +0.062 A 
ATOM      9  C   UNL     1       2.384   0.136  -0.309  0.00  0.00    +0.110 A 
ATOM     10  N   UNL     1       3.560  -0.525  -0.621  0.00  0.00    -0.309 N 
ATOM     11  C   UNL     1       3.733  -1.900  -0.125  0.00  0.00    +0.099 C 
ATOM     12  N   UNL     1       2.495  -2.656  -0.370  0.00  0.00    -0.308 N 
ATOM     13  C   UNL     1       4.892  -2.565  -0.866  0.00  0.00    +0.045 C 
ATOM     14  C   UNL     1       5.075  -3.994  -0.350  0.00  0.00    +0.004 C 
ATOM     15  C   UNL     1       5.375  -3.961   1.150  0.00  0.00    +0.000 C 
ATOM     16  C   UNL     1       4.209  -3.299   1.888  0.00  0.00    +0.004 C 
ATOM     17  C   UNL     1       4.025  -1.870   1.374  0.00  0.00    +0.045 C 
ATOM     18  O   UNL     1      -2.157  -2.778   0.803  0.00  0.00    -0.468 OA
ATOM     19  C   UNL     1      -3.008  -1.849   1.495  0.00  0.00    +0.210 C 
ATOM     20  C   UNL     1      -2.513  -0.481   0.967  0.00  0.00    +0.090 C 
ATOM     21  H   UNL     1       4.250  -0.095  -1.150  0.00  0.00    +0.149 HD
ATOM     22  H   UNL     1       2.523  -3.552  -0.741  0.00  0.00    +0.150 HD
ATOM     23  N   UNL     1       2.396   1.500  -0.295  0.00  0.00    -0.330 N 
ATOM     24  H   UNL     1       3.247   2.034  -0.505  0.00  0.00    +0.168 HD
ENDROOT
BRANCH  19  25
ATOM     25  C   UNL     1      -4.452  -2.072   1.129  0.00  0.00    -0.007 A 
ATOM     26  C   UNL     1      -4.786  -2.488  -0.147  0.00  0.00    +0.007 A 
ATOM     27  C   UNL     1      -6.111  -2.697  -0.481  0.00  0.00    +0.000 A 
ATOM     28  C   UNL     1      -7.103  -2.481   0.458  0.00  0.00    +0.000 A 
ATOM     29  C   UNL     1      -6.770  -2.061   1.732  0.00  0.00    +0.000 A 
ATOM     30  C   UNL     1      -5.444  -1.856   2.067  0.00  0.00    +0.007 A 
ENDBRANCH  19  25
BRANCH   2  31
ATOM     31  C   UNL     1      -1.185   2.188   0.620  0.00  0.00    +0.103 C 
ATOM     32  N   UNL     1      -2.132   2.767   0.863  0.00  0.00    -0.191 NA
ENDBRANCH   2  31
BRANCH   1  33
ATOM     33  N   UNL     1       1.239   3.504   0.023  0.00  0.00    -0.316 N 
BRANCH  33  35
ATOM     34  C   UNL     1       2.597   5.478   0.529  0.00  0.00    +0.024 C 
ATOM     35  C   UNL     1       2.617   4.001   0.130  0.00  0.00    +0.103 C 
ENDBRANCH  33  35
BRANCH  33  36
ATOM     36  C   UNL     1       0.573   4.051  -1.166  0.00  0.00    +0.103 C 
ATOM     37  C   UNL     1       1.202   3.452  -2.425  0.00  0.00    +0.024 C 
ENDBRANCH  33  36
ENDBRANCH   1  33
TORSDOF 5
