REMARK  Name = ZINC66474017
REMARK  8 active torsions:
REMARK  status: ('A' for Active; 'I' for Inactive)
REMARK    1  A    between atoms: C_1  and  C_2
REMARK    2  A    between atoms: C_2  and  C_3
REMARK    3  A    between atoms: C_3  and  C_4
REMARK    4  A    between atoms: C_4  and  N_5
REMARK    5  A    between atoms: C_6  and  C_8
REMARK    6  A    between atoms: C_12  and  C_30
REMARK    7  A    between atoms: N_14  and  C_16
REMARK    8  A    between atoms: C_16  and  C_17
REMARK                            x       y       z     vdW  Elec       q    Type
REMARK                         _______ _______ _______ _____ _____    ______ ____
ROOT
ATOM      1  C   UNL     1      -4.429  -4.420   0.021  0.00  0.00    +0.058 C 
ATOM      2  C   UNL     1      -5.146  -3.929   1.281  0.00  0.00    +0.009 C 
ATOM      3  C   UNL     1      -4.442  -4.504   2.514  0.00  0.00    -0.015 C 
ATOM      4  C   UNL     1      -4.422  -6.031   2.417  0.00  0.00    -0.071 C 
ATOM      5  N   UNL     1      -3.700  -6.438   1.205  0.00  0.00    +0.388 N 
ATOM      6  C   UNL     1      -4.409  -5.950   0.014  0.00  0.00    -0.065 C 
ATOM      7  C   UNL     1      -3.720  -6.611   3.646  0.00  0.00    -0.013 C 
ATOM      8  H   UNL     1      -2.769  -6.050   1.223  0.00  0.00    -0.081 HD
ENDROOT
BRANCH   1  10
ATOM      9  N   UNL     1      -2.787  -2.571   0.015  0.00  0.00    -0.315 N 
ATOM     10  C   UNL     1      -3.015  -3.899   0.010  0.00  0.00    +0.214 C 
ATOM     11  O   UNL     1      -2.083  -4.674  -0.003  0.00  0.00    -0.276 OA
ATOM     12  H   UNL     1      -3.533  -1.950   0.025  0.00  0.00    +0.149 HD
BRANCH   9  13
ATOM     13  C   UNL     1      -1.413  -2.063   0.004  0.00  0.00    +0.104 C 
BRANCH  13  14
ATOM     14  C   UNL     1      -1.433  -0.534   0.013  0.00  0.00    +0.018 C 
BRANCH  14  16
ATOM     15  C   UNL     1      -0.019   1.526   0.010  0.00  0.00    +0.004 C 
ATOM     16  C   UNL     1       0.002  -0.004   0.002  0.00  0.00    -0.002 C 
ENDBRANCH  14  16
ENDBRANCH  13  14
ENDBRANCH   9  13
ENDBRANCH   1  10
BRANCH   5  17
ATOM     17  C   UNL     1      -3.616  -7.904   1.156  0.00  0.00    +0.020 C 
BRANCH  17  18
ATOM     18  C   UNL     1      -2.771  -8.320  -0.021  0.00  0.00    +0.204 C 
ATOM     19  O   UNL     1      -2.287  -7.478  -0.747  0.00  0.00    -0.277 OA
ATOM     20  N   UNL     1      -2.554  -9.627  -0.266  0.00  0.00    -0.262 N 
ATOM     21  C   UNL     1      -3.134 -10.668   0.596  0.00  0.00    +0.209 C 
ATOM     22  C   UNL     1      -2.102 -11.738   0.838  0.00  0.00    +0.235 C 
ATOM     23  O   UNL     1      -2.131 -12.377   1.868  0.00  0.00    -0.274 OA
ATOM     24  N   UNL     1      -1.147 -11.995  -0.077  0.00  0.00    -0.283 N 
ATOM     25  C   UNL     1      -1.060 -11.240  -1.251  0.00  0.00    +0.055 A 
ATOM     26  C   UNL     1      -1.770 -10.039  -1.355  0.00  0.00    +0.058 A 
ATOM     27  C   UNL     1      -1.695  -9.280  -2.508  0.00  0.00    +0.025 A 
ATOM     28  C   UNL     1      -0.917  -9.715  -3.567  0.00  0.00    +0.002 A 
ATOM     29  C   UNL     1      -0.218 -10.905  -3.473  0.00  0.00    +0.002 A 
ATOM     30  C   UNL     1      -0.282 -11.669  -2.314  0.00  0.00    +0.025 A 
ATOM     31  H   UNL     1      -0.512 -12.711   0.081  0.00  0.00    +0.155 HD
ENDBRANCH  17  18
ENDBRANCH   5  17
TORSDOF 6
