REMARK  Name = ZINC27765156
REMARK  8 active torsions:
REMARK  status: ('A' for Active; 'I' for Inactive)
REMARK    1  A    between atoms: C_1  and  C_2
REMARK    2  A    between atoms: C_2  and  C_3
REMARK    3  A    between atoms: C_3  and  C_28
REMARK    4  A    between atoms: N_6  and  N_10
REMARK    5  A    between atoms: C_11  and  C_13
REMARK    6  A    between atoms: C_13  and  S_14
REMARK    7  A    between atoms: S_14  and  C_15
REMARK    8  A    between atoms: C_18  and  C_21
REMARK                            x       y       z     vdW  Elec       q    Type
REMARK                         _______ _______ _______ _____ _____    ______ ____
ROOT
ATOM      1  N   UNL     1       2.729  -3.545  -1.236  0.00  0.00    -0.223 N 
ATOM      2  C   UNL     1       3.264  -4.058  -2.362  0.00  0.00    +0.240 C 
ATOM      3  O   UNL     1       3.263  -3.407  -3.385  0.00  0.00    -0.273 OA
ATOM      4  H   UNL     1       2.730  -4.066  -0.418  0.00  0.00    +0.174 HD
ENDROOT
BRANCH   1   8
ATOM      5  C   UNL     1       0.718  -0.497  -1.257  0.00  0.00    +0.111 C 
ATOM      6  C   UNL     1       0.848  -2.008  -1.239  0.00  0.00    +0.263 C 
ATOM      7  O   UNL     1      -0.051  -2.820  -1.221  0.00  0.00    -0.271 OA
ATOM      8  N   UNL     1       2.172  -2.259  -1.248  0.00  0.00    -0.137 N 
ATOM      9  C   UNL     1       2.889  -1.130  -1.269  0.00  0.00    +0.326 C 
ATOM     10  O   UNL     1       4.104  -1.101  -1.280  0.00  0.00    -0.251 OA
ATOM     11  N   UNL     1       2.115  -0.030  -1.275  0.00  0.00    -0.284 N 
ATOM     12  C   UNL     1      -0.022  -0.032  -2.513  0.00  0.00    +0.041 C 
ATOM     13  H   UNL     1       2.418   0.892  -1.290  0.00  0.00    +0.151 HD
BRANCH   5  15
ATOM     14  C   UNL     1      -0.019   1.526   0.010  0.00  0.00    +0.006 C 
ATOM     15  C   UNL     1       0.002  -0.004   0.002  0.00  0.00    +0.032 C 
ENDBRANCH   5  15
ENDBRANCH   1   8
BRANCH   2  16
ATOM     16  C   UNL     1       3.862  -5.441  -2.349  0.00  0.00    +0.174 C 
BRANCH  16  17
ATOM     17  S   UNL     1       4.494  -5.842  -4.002  0.00  0.00    -0.079 S 
BRANCH  17  18
ATOM     18  C   UNL     1       5.152  -7.466  -3.825  0.00  0.00    +0.167 A 
ATOM     19  N   UNL     1       5.747  -8.194  -4.810  0.00  0.00    -0.333 N 
ATOM     20  H   UNL     1       5.885  -7.917  -5.729  0.00  0.00    +0.168 HD
ATOM     21  C   UNL     1       6.118  -9.404  -4.248  0.00  0.00    +0.067 A 
ATOM     22  C   UNL     1       5.733  -9.362  -2.946  0.00  0.00    +0.139 A 
ATOM     23  N   UNL     1       5.155  -8.175  -2.718  0.00  0.00    -0.230 NA
BRANCH  21  24
ATOM     24  C   UNL     1       6.799 -10.523  -4.932  0.00  0.00    +0.000 A 
ATOM     25  C   UNL     1       7.139 -10.416  -6.282  0.00  0.00    +0.013 A 
ATOM     26  C   UNL     1       7.776 -11.463  -6.915  0.00  0.00    +0.039 A 
ATOM     27  C   UNL     1       8.077 -12.620  -6.214  0.00  0.00    +0.123 A 
ATOM     28  C   UNL     1       7.741 -12.732  -4.874  0.00  0.00    +0.039 A 
ATOM     29  C   UNL     1       7.110 -11.688  -4.229  0.00  0.00    +0.013 A 
ATOM     30  F   UNL     1       8.700 -13.643  -6.839  0.00  0.00    -0.205 F 
ENDBRANCH  21  24
ENDBRANCH  17  18
ENDBRANCH  16  17
ENDBRANCH   2  16
TORSDOF 6
