REMARK  Name = ZINC02649941
REMARK  9 active torsions:
REMARK  status: ('A' for Active; 'I' for Inactive)
REMARK    1  A    between atoms: C_2  and  C_3
REMARK    2  A    between atoms: C_2  and  N_17
REMARK    3  A    between atoms: C_6  and  S_9
REMARK    4  A    between atoms: S_9  and  N_12
REMARK    5  A    between atoms: N_17  and  N_18
REMARK    6  A    between atoms: C_19  and  C_21
REMARK    7  A    between atoms: C_26  and  N_27
REMARK    8  A    between atoms: N_27  and  S_28
REMARK    9  A    between atoms: S_28  and  C_31
REMARK                            x       y       z     vdW  Elec       q    Type
REMARK                         _______ _______ _______ _____ _____    ______ ____
ROOT
ATOM      1  N   UNL     1       1.054   1.367   0.289  0.00  0.00    -0.232 N 
ATOM      2  C   UNL     1       2.277   0.811   0.179  0.00  0.00    +0.262 C 
ATOM      3  O   UNL     1       2.386  -0.390   0.022  0.00  0.00    -0.269 OA
ATOM      4  H   UNL     1       0.967   2.325   0.414  0.00  0.00    +0.173 HD
ENDROOT
BRANCH   2   5
ATOM      5  C   UNL     1       3.482   1.657   0.248  0.00  0.00    +0.060 A 
ATOM      6  C   UNL     1       3.361   3.038   0.428  0.00  0.00    +0.015 A 
ATOM      7  C   UNL     1       4.491   3.824   0.491  0.00  0.00    +0.001 A 
ATOM      8  C   UNL     1       5.749   3.253   0.378  0.00  0.00    +0.002 A 
ATOM      9  C   UNL     1       5.884   1.891   0.200  0.00  0.00    +0.025 A 
ATOM     10  C   UNL     1       4.757   1.081   0.139  0.00  0.00    +0.060 A 
BRANCH  10  11
ATOM     11  N   UNL     1       4.891  -0.290  -0.035  0.00  0.00    -0.215 N 
ATOM     12  H   UNL     1       4.242  -0.777  -0.567  0.00  0.00    +0.174 HD
BRANCH  11  13
ATOM     13  S   UNL     1       6.157  -1.093   0.667  0.00  0.00    +0.079 S 
ATOM     14  O   UNL     1       5.945  -2.477   0.425  0.00  0.00    -0.149 OA
ATOM     15  O   UNL     1       7.341  -0.421   0.258  0.00  0.00    -0.149 OA
BRANCH  13  16
ATOM     16  C   UNL     1       6.022  -0.860   2.408  0.00  0.00    +0.146 A 
ATOM     17  C   UNL     1       5.366  -1.617   3.322  0.00  0.00    +0.036 A 
ATOM     18  C   UNL     1       5.397  -1.238   4.651  0.00  0.00    +0.010 A 
ATOM     19  C   UNL     1       6.082  -0.123   5.002  0.00  0.00    +0.047 A 
ATOM     20  S   UNL     1       6.720   0.429   3.428  0.00  0.00    -0.077 S 
ENDBRANCH  13  16
ENDBRANCH  11  13
ENDBRANCH  10  11
ENDBRANCH   2   5
BRANCH   1  21
ATOM     21  N   UNL     1      -0.090   0.563   0.224  0.00  0.00    -0.264 N 
ATOM     22  H   UNL     1      -0.004  -0.395   0.099  0.00  0.00    +0.170 HD
BRANCH  21  24
ATOM     23  C   UNL     1      -1.476   2.457   0.504  0.00  0.00    +0.035 C 
ATOM     24  C   UNL     1      -1.356   1.140   0.333  0.00  0.00    +0.044 C 
BRANCH  24  25
ATOM     25  C   UNL     1      -2.567   0.290   0.257  0.00  0.00    -0.003 A 
ATOM     26  C   UNL     1      -2.445  -1.087   0.072  0.00  0.00    +0.012 A 
ATOM     27  C   UNL     1      -3.576  -1.874   0.007  0.00  0.00    +0.029 A 
ATOM     28  C   UNL     1      -4.830  -1.299   0.116  0.00  0.00    +0.106 A 
ATOM     29  C   UNL     1      -4.957   0.067   0.294  0.00  0.00    +0.029 A 
ATOM     30  C   UNL     1      -3.833   0.864   0.365  0.00  0.00    +0.012 A 
BRANCH  28  31
ATOM     31  S   UNL     1      -6.270  -2.310   0.025  0.00  0.00    +0.061 S 
ATOM     32  O   UNL     1      -5.870  -3.621   0.402  0.00  0.00    -0.153 OA
ATOM     33  O   UNL     1      -7.304  -1.606   0.699  0.00  0.00    -0.153 OA
BRANCH  31  34
ATOM     34  N   UNL     1      -6.713  -2.390  -1.569  0.00  0.00    -0.177 NA
ATOM     35  C   UNL     1      -7.635  -1.469  -2.249  0.00  0.00    +0.109 C 
ATOM     36  C   UNL     1      -7.763  -1.946  -3.711  0.00  0.00    +0.018 C 
ATOM     37  C   UNL     1      -7.358  -3.441  -3.623  0.00  0.00    +0.018 C 
ATOM     38  C   UNL     1      -6.253  -3.401  -2.538  0.00  0.00    +0.109 C 
ENDBRANCH  31  34
ENDBRANCH  28  31
ENDBRANCH  24  25
ENDBRANCH  21  24
ENDBRANCH   1  21
TORSDOF 9
