REMARK  Name = ZINC39856375
REMARK  8 active torsions:
REMARK  status: ('A' for Active; 'I' for Inactive)
REMARK    1  A    between atoms: C_1  and  C_2
REMARK    2  A    between atoms: C_9  and  O_12
REMARK    3  A    between atoms: O_12  and  C_13
REMARK    4  A    between atoms: C_13  and  C_15
REMARK    5  A    between atoms: C_16  and  C_31
REMARK    6  A    between atoms: C_21  and  C_29
REMARK    7  A    between atoms: C_21  and  C_30
REMARK    8  A    between atoms: N_24  and  N_25
REMARK                            x       y       z     vdW  Elec       q    Type
REMARK                         _______ _______ _______ _____ _____    ______ ____
ROOT
ATOM      1  C   UNL     1      -0.165  -1.975   6.017  0.00  0.00    +0.215 A 
ATOM      2  C   UNL     1      -0.257  -2.564   7.248  0.00  0.00    +0.011 A 
ATOM      3  C   UNL     1      -0.354  -1.520   8.175  0.00  0.00    +0.042 A 
ATOM      4  C   UNL     1      -0.319  -0.339   7.472  0.00  0.00    +0.116 A 
ATOM      5  O   UNL     1      -0.197  -0.633   6.180  0.00  0.00    -0.452 OA
ATOM      6  C   UNL     1      -0.406   1.013   8.134  0.00  0.00    +0.081 C 
ATOM      7  C   UNL     1      -1.033   0.860   9.522  0.00  0.00    -0.023 C 
ATOM      8  C   UNL     1      -0.289  -0.203  10.338  0.00  0.00    +0.064 C 
ATOM      9  C   UNL     1      -0.474  -1.547   9.650  0.00  0.00    +0.071 C 
ATOM     10  N   UNL     1      -0.719  -2.638  10.309  0.00  0.00    -0.183 NA
ATOM     11  C   UNL     1      -0.964   2.200  10.257  0.00  0.00    +0.011 C 
ATOM     12  C   UNL     1      -2.498   0.444   9.370  0.00  0.00    +0.011 C 
ATOM     13  C   UNL     1      -0.255  -4.042   7.547  0.00  0.00    +0.048 C 
ENDROOT
BRANCH  10  14
ATOM     14  N   UNL     1      -0.822  -2.605  11.705  0.00  0.00    -0.191 N 
ATOM     15  C   UNL     1      -1.077  -3.738  12.389  0.00  0.00    +0.317 C 
ATOM     16  O   UNL     1      -1.166  -3.709  13.602  0.00  0.00    -0.251 OA
ATOM     17  N   UNL     1      -1.232  -4.903  11.730  0.00  0.00    -0.312 N 
ATOM     18  H   UNL     1      -0.711  -1.766  12.180  0.00  0.00    +0.179 HD
ATOM     19  H   UNL     1      -1.161  -4.926  10.762  0.00  0.00    +0.147 HD
ATOM     20  H   UNL     1      -1.415  -5.718  12.222  0.00  0.00    +0.147 HD
ENDBRANCH  10  14
BRANCH   1  21
ATOM     21  C   UNL     1      -0.045  -2.680   4.738  0.00  0.00    +0.380 C 
ATOM     22  O   UNL     1      -0.026  -3.896   4.713  0.00  0.00    -0.241 OA
BRANCH  21  23
ATOM     23  O   UNL     1       0.044  -1.980   3.588  0.00  0.00    -0.418 OA
BRANCH  23  32
ATOM     24  C   UNL     1      -4.763  -2.971   2.669  0.00  0.00    +0.065 C 
ATOM     25  C   UNL     1      -3.475  -3.278   1.948  0.00  0.00    +0.039 A 
ATOM     26  C   UNL     1      -3.522  -3.991   0.751  0.00  0.00    +0.023 A 
ATOM     27  C   UNL     1      -2.365  -4.278   0.084  0.00  0.00    +0.012 A 
ATOM     28  C   UNL     1      -1.150  -3.835   0.641  0.00  0.00    +0.004 A 
ATOM     29  C   UNL     1       0.079  -4.093   0.011  0.00  0.00    +0.010 A 
ATOM     30  C   UNL     1       1.234  -3.648   0.579  0.00  0.00    +0.004 A 
ATOM     31  C   UNL     1       1.217  -2.940   1.777  0.00  0.00    +0.048 A 
ATOM     32  C   UNL     1       0.042  -2.671   2.419  0.00  0.00    +0.158 A 
ATOM     33  C   UNL     1      -1.175  -3.115   1.860  0.00  0.00    +0.113 A 
ATOM     34  N   UNL     1      -2.342  -2.863   2.459  0.00  0.00    -0.248 NA
ENDBRANCH  23  32
ENDBRANCH  21  23
ENDBRANCH   1  21
TORSDOF 4
