REMARK  Name = ZINC16951589
REMARK  10 active torsions:
REMARK  status: ('A' for Active; 'I' for Inactive)
REMARK    1  A    between atoms: C_1  and  C_2
REMARK    2  A    between atoms: C_5  and  C_25
REMARK    3  A    between atoms: C_6  and  O_8
REMARK    4  A    between atoms: O_8  and  C_9
REMARK    5  A    between atoms: C_11  and  O_24
REMARK    6  A    between atoms: C_13  and  O_23
REMARK    7  A    between atoms: C_15  and  O_22
REMARK    8  A    between atoms: C_17  and  C_20
REMARK    9  A    between atoms: C_25  and  C_26
REMARK   10  A    between atoms: C_25  and  C_27
REMARK                            x       y       z     vdW  Elec       q    Type
REMARK                         _______ _______ _______ _____ _____    ______ ____
ROOT
ATOM      1  C   UNL     1       3.268   3.192   1.317  0.00  0.00    +0.340 C 
ATOM      2  C   UNL     1       2.541   3.717   0.076  0.00  0.00    +0.214 C 
ATOM      3  C   UNL     1       1.146   3.087   0.008  0.00  0.00    +0.180 C 
ATOM      4  C   UNL     1       1.286   1.562  -0.002  0.00  0.00    +0.186 C 
ATOM      5  C   UNL     1       2.062   1.121   1.242  0.00  0.00    +0.266 C 
ATOM      6  O   UNL     1       3.337   1.766   1.260  0.00  0.00    -0.322 OA
ENDROOT
BRANCH   5   7
ATOM      7  C   UNL     1       2.256  -0.373   1.210  0.00  0.00    +0.387 C 
ATOM      8  O   UNL     1       3.368  -0.837   1.113  0.00  0.00    -0.243 OA
ATOM      9  O   UNL     1       1.193  -1.190   1.289  0.00  0.00    -0.243 OA
ENDBRANCH   5   7
BRANCH   4  10
ATOM     10  O   UNL     1      -0.011   0.963   0.007  0.00  0.00    -0.386 OA
ATOM     11  H   UNL     1       0.002  -0.004   0.002  0.00  0.00    +0.210 HD
ENDBRANCH   4  10
BRANCH   3  12
ATOM     12  O   UNL     1       0.487   3.514  -1.186  0.00  0.00    -0.386 OA
ATOM     13  H   UNL     1       0.365   4.471  -1.247  0.00  0.00    +0.210 HD
ENDBRANCH   3  12
BRANCH   2  14
ATOM     14  O   UNL     1       2.420   5.138   0.158  0.00  0.00    -0.383 OA
ATOM     15  H   UNL     1       3.266   5.603   0.204  0.00  0.00    +0.210 HD
ENDBRANCH   2  14
BRANCH   1  16
ATOM     16  O   UNL     1       4.591   3.732   1.358  0.00  0.00    -0.461 OA
BRANCH  16  22
ATOM     17  C   UNL     1       5.003   1.530   5.694  0.00  0.00    +0.044 C 
ATOM     18  C   UNL     1       5.575   2.379   4.589  0.00  0.00    -0.047 A 
ATOM     19  C   UNL     1       6.864   2.870   4.691  0.00  0.00    +0.004 A 
ATOM     20  C   UNL     1       7.391   3.650   3.679  0.00  0.00    +0.008 A 
ATOM     21  C   UNL     1       6.632   3.940   2.562  0.00  0.00    -0.003 A 
ATOM     22  C   UNL     1       5.339   3.448   2.456  0.00  0.00    +0.128 A 
ATOM     23  C   UNL     1       4.810   2.671   3.476  0.00  0.00    +0.049 A 
BRANCH  21  24
ATOM     24  C   UNL     1       7.208   4.790   1.459  0.00  0.00    +0.016 C 
ATOM     25  C   UNL     1       7.583   6.165   2.017  0.00  0.00    +0.012 C 
ATOM     26  C   UNL     1       8.456   4.112   0.891  0.00  0.00    +0.012 C 
ENDBRANCH  21  24
ENDBRANCH  16  22
ENDBRANCH   1  16
TORSDOF 7
