REMARK  Name = ZINC24764685
REMARK  15 active torsions:
REMARK  status: ('A' for Active; 'I' for Inactive)
REMARK    1  A    between atoms: C_1  and  C_2
REMARK    2  A    between atoms: C_5  and  C_8
REMARK    3  A    between atoms: N_10  and  C_11
REMARK    4  A    between atoms: C_11  and  C_12
REMARK    5  A    between atoms: C_12  and  O_14
REMARK    6  A    between atoms: O_14  and  C_15
REMARK    7  A    between atoms: C_15  and  C_16
REMARK    8  A    between atoms: N_18  and  C_19
REMARK    9  A    between atoms: N_18  and  C_23
REMARK   10  A    between atoms: C_19  and  C_20
REMARK   11  A    between atoms: C_20  and  C_21
REMARK   12  A    between atoms: C_20  and  C_22
REMARK   13  A    between atoms: C_24  and  N_39
REMARK   14  A    between atoms: N_25  and  C_32
REMARK   15  A    between atoms: C_32  and  C_33
REMARK                            x       y       z     vdW  Elec       q    Type
REMARK                         _______ _______ _______ _____ _____    ______ ____
ROOT
ATOM      1  C   UNL     1       0.655 -10.011   4.610  0.00  0.00    +0.258 C 
ATOM      2  O   UNL     1       1.083 -10.574   3.625  0.00  0.00    -0.272 OA
ATOM      3  N   UNL     1       0.478 -10.699   5.757  0.00  0.00    -0.261 N 
ENDROOT
BRANCH   3   4
ATOM      4  C   UNL     1       0.702 -12.092   5.786  0.00  0.00    +0.140 A 
ATOM      5  C   UNL     1      -0.040 -12.938   4.988  0.00  0.00    +0.128 A 
ATOM      6  N   UNL     1       0.201 -14.292   5.037  0.00  0.00    -0.276 N 
ATOM      7  C   UNL     1       1.150 -14.784   5.854  0.00  0.00    +0.331 A 
ATOM      8  O   UNL     1       1.348 -15.984   5.884  0.00  0.00    -0.246 OA
ATOM      9  N   UNL     1       1.883 -13.975   6.639  0.00  0.00    -0.273 N 
ATOM     10  H   UNL     1       2.561 -14.355   7.220  0.00  0.00    +0.173 HD
ATOM     11  C   UNL     1       1.690 -12.642   6.625  0.00  0.00    +0.277 A 
ATOM     12  O   UNL     1       2.363 -11.916   7.337  0.00  0.00    -0.266 OA
BRANCH   5  13
ATOM     13  N   UNL     1      -1.009 -12.435   4.153  0.00  0.00    -0.343 N 
ATOM     14  H   UNL     1      -1.134 -11.476   4.078  0.00  0.00    +0.144 HD
ATOM     15  H   UNL     1      -1.568 -13.039   3.639  0.00  0.00    +0.144 HD
ENDBRANCH   5  13
BRANCH   6  16
ATOM     16  C   UNL     1      -0.579 -15.202   4.196  0.00  0.00    +0.163 C 
BRANCH  16  17
ATOM     17  C   UNL     1       0.115 -15.380   2.870  0.00  0.00    -0.028 A 
ATOM     18  C   UNL     1      -0.170 -14.527   1.820  0.00  0.00    +0.005 A 
ATOM     19  C   UNL     1       0.468 -14.691   0.605  0.00  0.00    +0.000 A 
ATOM     20  C   UNL     1       1.390 -15.707   0.439  0.00  0.00    +0.000 A 
ATOM     21  C   UNL     1       1.675 -16.560   1.489  0.00  0.00    +0.000 A 
ATOM     22  C   UNL     1       1.041 -16.393   2.706  0.00  0.00    +0.005 A 
ENDBRANCH  16  17
ENDBRANCH   6  16
ENDBRANCH   3   4
BRANCH   1  23
ATOM     23  C   UNL     1       0.319  -8.543   4.553  0.00  0.00    +0.328 C 
BRANCH  23  24
ATOM     24  O   UNL     1       0.589  -8.043   3.242  0.00  0.00    -0.454 OA
BRANCH  24  25
ATOM     25  C   UNL     1       0.342  -6.742   3.023  0.00  0.00    +0.325 C 
ATOM     26  O   UNL     1      -0.090  -6.051   3.914  0.00  0.00    -0.249 OA
BRANCH  25  27
ATOM     27  C   UNL     1       0.603  -6.144   1.664  0.00  0.00    +0.225 C 
BRANCH  27  30
ATOM     28  C   UNL     1       0.408  -3.976   0.570  0.00  0.00    +0.245 C 
ATOM     29  O   UNL     1       0.834  -4.485  -0.449  0.00  0.00    -0.270 OA
ATOM     30  N   UNL     1       0.256  -4.721   1.682  0.00  0.00    -0.301 N 
ATOM     31  H   UNL     1      -0.084  -4.315   2.495  0.00  0.00    +0.150 HD
BRANCH  28  36
ATOM     32  C   UNL     1      -0.958   1.614   0.640  0.00  0.00    +0.044 C 
ATOM     33  C   UNL     1      -0.600   0.150   0.622  0.00  0.00    -0.050 A 
ATOM     34  C   UNL     1      -0.115  -0.426  -0.539  0.00  0.00    +0.004 A 
ATOM     35  C   UNL     1       0.214  -1.766  -0.563  0.00  0.00    +0.013 A 
ATOM     36  C   UNL     1       0.057  -2.540   0.588  0.00  0.00    +0.037 A 
ATOM     37  C   UNL     1      -0.432  -1.953   1.756  0.00  0.00    +0.013 A 
ATOM     38  C   UNL     1      -0.752  -0.611   1.767  0.00  0.00    +0.004 A 
ENDBRANCH  28  36
ENDBRANCH  27  30
ENDBRANCH  25  27
ENDBRANCH  24  25
ENDBRANCH  23  24
ENDBRANCH   1  23
BRANCH   3  39
ATOM     39  C   UNL     1       0.055 -10.000   6.973  0.00  0.00    +0.117 C 
BRANCH  39  40
ATOM     40  C   UNL     1      -1.472  -9.900   6.999  0.00  0.00    +0.001 C 
ATOM     41  C   UNL     1      -2.073 -11.302   7.118  0.00  0.00    +0.009 C 
ATOM     42  C   UNL     1      -1.908  -9.054   8.197  0.00  0.00    +0.009 C 
ENDBRANCH  39  40
ENDBRANCH   3  39
TORSDOF 12
