REMARK  Name = ZINC40575830
REMARK  12 active torsions:
REMARK  status: ('A' for Active; 'I' for Inactive)
REMARK    1  A    between atoms: C_6  and  C_7
REMARK    2  A    between atoms: N_9  and  C_10
REMARK    3  A    between atoms: C_10  and  C_12
REMARK    4  A    between atoms: C_10  and  C_21
REMARK    5  A    between atoms: C_12  and  C_13
REMARK    6  A    between atoms: C_13  and  C_14
REMARK    7  A    between atoms: C_14  and  C_15
REMARK    8  A    between atoms: C_15  and  C_16
REMARK    9  A    between atoms: C_16  and  C_17
REMARK   10  A    between atoms: N_19  and  O_20
REMARK   11  A    between atoms: N_23  and  C_24
REMARK   12  A    between atoms: C_24  and  C_25
REMARK                            x       y       z     vdW  Elec       q    Type
REMARK                         _______ _______ _______ _____ _____    ______ ____
ROOT
ATOM      1  C   UNL     1      -2.501  -2.864   0.011  0.00  0.00    +0.159 C 
ENDROOT
BRANCH   1   4
ATOM      2  C   UNL     1      -1.266  -0.763   0.011  0.00  0.00    +0.245 C 
ATOM      3  O   UNL     1      -2.328  -0.172   0.024  0.00  0.00    -0.270 OA
ATOM      4  N   UNL     1      -1.244  -2.111   0.003  0.00  0.00    -0.300 N 
ATOM      5  H   UNL     1      -0.397  -2.583  -0.008  0.00  0.00    +0.150 HD
BRANCH   2  11
ATOM      6  C   UNL     1      -0.017   1.392   0.010  0.00  0.00    +0.014 A 
ATOM      7  C   UNL     1       1.170   2.095   0.002  0.00  0.00    +0.016 A 
ATOM      8  C   UNL     1       2.378   1.419  -0.013  0.00  0.00    +0.018 A 
ATOM      9  C   UNL     1       2.403   0.034  -0.021  0.00  0.00    +0.016 A 
ATOM     10  C   UNL     1       1.224  -0.680  -0.014  0.00  0.00    +0.014 A 
ATOM     11  C   UNL     1       0.002  -0.004   0.002  0.00  0.00    +0.037 A 
ATOM     12 BR   UNL     1       4.000   2.390  -0.024  0.00  0.00    -0.050 Br
ENDBRANCH   2  11
ENDBRANCH   1   4
BRANCH   1  13
ATOM     13  C   UNL     1      -2.982  -3.023   1.431  0.00  0.00    +0.234 C 
ATOM     14  O   UNL     1      -2.338  -2.554   2.345  0.00  0.00    -0.274 OA
ATOM     15  N   UNL     1      -4.127  -3.687   1.684  0.00  0.00    -0.310 N 
ATOM     16  H   UNL     1      -4.642  -4.062   0.953  0.00  0.00    +0.149 HD
BRANCH  15  17
ATOM     17  C   UNL     1      -4.594  -3.842   3.064  0.00  0.00    +0.139 C 
BRANCH  17  18
ATOM     18  C   UNL     1      -5.887  -4.616   3.073  0.00  0.00    -0.027 A 
ATOM     19  C   UNL     1      -7.106  -3.962   2.979  0.00  0.00    +0.025 A 
ATOM     20  C   UNL     1      -8.272  -4.706   2.990  0.00  0.00    +0.111 A 
ATOM     21  N   UNL     1      -8.232  -6.020   3.089  0.00  0.00    -0.263 NA
ATOM     22  C   UNL     1      -7.091  -6.675   3.180  0.00  0.00    +0.111 A 
ATOM     23  C   UNL     1      -5.886  -5.999   3.169  0.00  0.00    +0.025 A 
ENDBRANCH  17  18
ENDBRANCH  15  17
ENDBRANCH   1  13
BRANCH   1  24
ATOM     24  C   UNL     1      -2.273  -4.244  -0.608  0.00  0.00    +0.032 C 
BRANCH  24  25
ATOM     25  C   UNL     1      -1.906  -4.086  -2.085  0.00  0.00    +0.002 C 
BRANCH  25  26
ATOM     26  C   UNL     1      -1.678  -5.466  -2.704  0.00  0.00    +0.001 C 
BRANCH  26  27
ATOM     27  C   UNL     1      -1.311  -5.308  -4.181  0.00  0.00    +0.009 C 
BRANCH  27  28
ATOM     28  C   UNL     1      -1.083  -6.689  -4.800  0.00  0.00    +0.098 C 
BRANCH  28  29
ATOM     29  C   UNL     1      -0.721  -6.533  -6.255  0.00  0.00    +0.235 C 
ATOM     30  O   UNL     1      -0.652  -5.427  -6.748  0.00  0.00    -0.274 OA
ATOM     31  N   UNL     1      -0.474  -7.623  -7.008  0.00  0.00    -0.197 N 
ATOM     32  H   UNL     1      -0.529  -8.508  -6.614  0.00  0.00    +0.182 HD
BRANCH  31  33
ATOM     33  O   UNL     1      -0.134  -7.477  -8.375  0.00  0.00    -0.295 OA
ATOM     34  H   UNL     1       0.025  -8.314  -8.832  0.00  0.00    +0.241 HD
ENDBRANCH  31  33
ENDBRANCH  28  29
ENDBRANCH  27  28
ENDBRANCH  26  27
ENDBRANCH  25  26
ENDBRANCH  24  25
ENDBRANCH   1  24
TORSDOF 12
