REMARK  Name = ZINC16361814
REMARK  11 active torsions:
REMARK  status: ('A' for Active; 'I' for Inactive)
REMARK    1  A    between atoms: C_1  and  C_2
REMARK    2  A    between atoms: C_2  and  O_3
REMARK    3  A    between atoms: O_3  and  C_4
REMARK    4  A    between atoms: C_6  and  C_12
REMARK    5  A    between atoms: C_9  and  O_10
REMARK    6  A    between atoms: C_14  and  C_21
REMARK    7  A    between atoms: C_15  and  C_20
REMARK    8  A    between atoms: N_23  and  C_24
REMARK    9  A    between atoms: C_29  and  C_30
REMARK   10  A    between atoms: C_30  and  O_32
REMARK   11  A    between atoms: O_32  and  C_33
REMARK                            x       y       z     vdW  Elec       q    Type
REMARK                         _______ _______ _______ _____ _____    ______ ____
ROOT
ATOM      1  C   UNL     1      -5.282   0.893  -0.549  0.00  0.00    +0.139 C 
ATOM      2  C   UNL     1      -5.046  -0.579  -0.279  0.00  0.00    +0.056 C 
ATOM      3  C   UNL     1      -6.129  -1.370  -0.122  0.00  0.00    +0.017 C 
ATOM      4  N   UNL     1      -7.393  -0.861  -0.209  0.00  0.00    -0.300 N 
ATOM      5  C   UNL     1      -7.659   0.428  -0.450  0.00  0.00    +0.135 C 
ATOM      6  S   UNL     1      -9.292   0.935  -0.534  0.00  0.00    -0.019 S 
ATOM      7  N   UNL     1      -6.683   1.341  -0.629  0.00  0.00    -0.315 N 
ATOM      8  C   UNL     1      -5.939  -2.840   0.153  0.00  0.00    +0.061 C 
ATOM      9  H   UNL     1      -8.140  -1.468  -0.089  0.00  0.00    +0.154 HD
ATOM     10  H   UNL     1      -6.898   2.271  -0.802  0.00  0.00    +0.149 HD
ENDROOT
BRANCH   1  13
ATOM     11  C   UNL     1      -2.790   3.071   1.274  0.00  0.00    +0.163 A 
ATOM     12  C   UNL     1      -3.418   2.346   0.274  0.00  0.00    +0.055 A 
ATOM     13  C   UNL     1      -4.601   1.681   0.540  0.00  0.00    -0.018 A 
ATOM     14  C   UNL     1      -5.162   1.740   1.802  0.00  0.00    +0.025 A 
ATOM     15  C   UNL     1      -4.537   2.458   2.807  0.00  0.00    +0.063 A 
ATOM     16  C   UNL     1      -3.351   3.127   2.546  0.00  0.00    +0.173 A 
ATOM     17 BR   UNL     1      -5.304   2.531   4.534  0.00  0.00    -0.046 Br
BRANCH  16  18
ATOM     18  O   UNL     1      -2.738   3.837   3.530  0.00  0.00    -0.503 OA
ATOM     19  H   UNL     1      -3.018   4.761   3.582  0.00  0.00    +0.292 HD
ENDBRANCH  16  18
BRANCH  11  20
ATOM     20  O   UNL     1      -1.627   3.726   1.012  0.00  0.00    -0.489 OA
BRANCH  20  22
ATOM     21  C   UNL     1       0.202   4.395  -0.418  0.00  0.00    +0.048 C 
ATOM     22  C   UNL     1      -1.167   3.716  -0.340  0.00  0.00    +0.226 C 
ENDBRANCH  20  22
ENDBRANCH  11  20
ENDBRANCH   1  13
BRANCH   2  23
ATOM     23  C   UNL     1      -3.735  -1.105  -0.189  0.00  0.00    +0.248 C 
ATOM     24  O   UNL     1      -3.052  -1.215  -1.191  0.00  0.00    -0.270 OA
ATOM     25  N   UNL     1      -3.242  -1.485   1.007  0.00  0.00    -0.281 N 
ATOM     26  H   UNL     1      -3.764  -1.346   1.813  0.00  0.00    +0.155 HD
BRANCH  25  27
ATOM     27  C   UNL     1      -1.986  -2.077   1.085  0.00  0.00    +0.048 A 
ATOM     28  C   UNL     1      -0.966  -1.665   0.237  0.00  0.00    +0.024 A 
ATOM     29  C   UNL     1       0.278  -2.256   0.313  0.00  0.00    +0.002 A 
ATOM     30  C   UNL     1       0.523  -3.261   1.237  0.00  0.00    +0.001 A 
ATOM     31  C   UNL     1      -0.475  -3.680   2.089  0.00  0.00    +0.017 A 
ATOM     32  C   UNL     1      -1.740  -3.090   2.025  0.00  0.00    +0.080 A 
BRANCH  32  33
ATOM     33  C   UNL     1      -2.812  -3.534   2.933  0.00  0.00    +0.341 C 
ATOM     34  O   UNL     1      -3.882  -2.958   2.938  0.00  0.00    -0.245 OA
BRANCH  33  35
ATOM     35  O   UNL     1      -2.604  -4.575   3.763  0.00  0.00    -0.464 OA
ATOM     36  C   UNL     1      -3.736  -5.023   4.556  0.00  0.00    +0.280 C 
ENDBRANCH  33  35
ENDBRANCH  32  33
ENDBRANCH  25  27
ENDBRANCH   2  23
TORSDOF 8
