REMARK  Name = ZINC33597648
REMARK  9 active torsions:
REMARK  status: ('A' for Active; 'I' for Inactive)
REMARK    1  A    between atoms: C_1  and  C_2
REMARK    2  A    between atoms: C_2  and  C_3
REMARK    3  A    between atoms: C_6  and  N_9
REMARK    4  A    between atoms: C_14  and  C_33
REMARK    5  A    between atoms: C_17  and  C_22
REMARK    6  A    between atoms: C_17  and  C_30
REMARK    7  A    between atoms: C_22  and  C_23
REMARK    8  A    between atoms: C_26  and  O_29
REMARK    9  A    between atoms: C_38  and  C_39
REMARK                            x       y       z     vdW  Elec       q    Type
REMARK                         _______ _______ _______ _____ _____    ______ ____
ROOT
ATOM      1  N   UNL     1      -4.448   0.924  -3.111  0.00  0.00    -0.210 N 
ATOM      2  C   UNL     1      -3.802   1.779  -2.262  0.00  0.00    +0.229 C 
ATOM      3  O   UNL     1      -3.819   2.991  -2.284  0.00  0.00    -0.275 OA
ATOM      4  C   UNL     1      -3.096   0.923  -1.336  0.00  0.00    +0.077 C 
ATOM      5  C   UNL     1      -2.514   0.980   0.019  0.00  0.00    -0.026 C 
ATOM      6  N   UNL     1      -2.273  -0.475   0.316  0.00  0.00    +0.396 N 
ATOM      7  C   UNL     1      -3.199  -1.275  -0.541  0.00  0.00    +0.052 C 
ATOM      8  C   UNL     1      -4.142  -0.254  -1.174  0.00  0.00    +0.086 C 
ATOM      9  C   UNL     1      -4.484  -0.357  -2.635  0.00  0.00    +0.229 C 
ATOM     10  O   UNL     1      -4.739  -1.365  -3.259  0.00  0.00    -0.275 OA
ATOM     11  H   UNL     1      -1.227  -0.727   0.087  0.00  0.00    -0.083 HD
ATOM     12  H   UNL     1      -2.472  -0.670   1.380  0.00  0.00    -0.083 HD
ENDROOT
BRANCH   5  13
ATOM     13  C   UNL     1      -1.219   1.751   0.017  0.00  0.00    -0.058 A 
ATOM     14  C   UNL     1      -0.566   2.002  -1.175  0.00  0.00    +0.002 A 
ATOM     15  C   UNL     1       0.619   2.714  -1.177  0.00  0.00    +0.000 A 
ATOM     16  C   UNL     1       1.153   3.171   0.013  0.00  0.00    +0.000 A 
ATOM     17  C   UNL     1       0.502   2.916   1.206  0.00  0.00    +0.003 A 
ATOM     18  C   UNL     1      -0.682   2.203   1.208  0.00  0.00    -0.049 A 
ATOM     19  C   UNL     1      -1.391   1.924   2.508  0.00  0.00    +0.044 C 
ENDBRANCH   5  13
BRANCH   1  23
ATOM     20  C   UNL     1      -6.157   2.094  -6.729  0.00  0.00    -0.048 A 
ATOM     21  C   UNL     1      -5.509   3.025  -5.939  0.00  0.00    +0.005 A 
ATOM     22  C   UNL     1      -4.942   2.640  -4.739  0.00  0.00    +0.024 A 
ATOM     23  C   UNL     1      -5.023   1.317  -4.328  0.00  0.00    +0.044 A 
ATOM     24  C   UNL     1      -5.669   0.383  -5.126  0.00  0.00    +0.024 A 
ATOM     25  C   UNL     1      -6.239   0.774  -6.322  0.00  0.00    +0.005 A 
BRANCH  20  27
ATOM     26  C   UNL     1      -5.744   2.373  -9.158  0.00  0.00    +0.009 C 
ATOM     27  C   UNL     1      -6.775   2.516  -8.037  0.00  0.00    +0.032 C 
ENDBRANCH  20  27
ENDBRANCH   1  23
BRANCH   7  28
ATOM     28  C   UNL     1      -3.977  -2.253   0.301  0.00  0.00    +0.347 C 
ATOM     29  O   UNL     1      -5.143  -2.460   0.064  0.00  0.00    -0.248 OA
ATOM     30  O   UNL     1      -3.374  -2.894   1.315  0.00  0.00    -0.248 OA
ENDBRANCH   7  28
BRANCH   7  31
ATOM     31  C   UNL     1      -2.413  -2.014  -1.625  0.00  0.00    +0.035 C 
BRANCH  31  32
ATOM     32  C   UNL     1      -1.489  -3.016  -0.981  0.00  0.00    -0.048 A 
ATOM     33  C   UNL     1      -0.203  -2.645  -0.634  0.00  0.00    +0.007 A 
ATOM     34  C   UNL     1       0.643  -3.560  -0.038  0.00  0.00    +0.045 A 
ATOM     35  C   UNL     1       0.206  -4.855   0.201  0.00  0.00    +0.117 A 
ATOM     36  C   UNL     1      -1.083  -5.226  -0.154  0.00  0.00    +0.045 A 
ATOM     37  C   UNL     1      -1.927  -4.306  -0.744  0.00  0.00    +0.007 A 
BRANCH  35  38
ATOM     38  O   UNL     1       1.039  -5.758   0.781  0.00  0.00    -0.507 OA
ATOM     39  H   UNL     1       0.692  -6.785   0.970  0.00  0.00    +0.292 HD
ENDBRANCH  35  38
ENDBRANCH  31  32
ENDBRANCH   7  31
TORSDOF 7
