REMARK  Name = ZINC06889428
REMARK  3 active torsions:
REMARK  status: ('A' for Active; 'I' for Inactive)
REMARK    1  A    between atoms: C_5  and  C_7
REMARK    2  A    between atoms: N_8  and  N_9
REMARK    3  A    between atoms: N_9  and  C_10
REMARK                            x       y       z     vdW  Elec       q    Type
REMARK                         _______ _______ _______ _____ _____    ______ ____
ROOT
ATOM      1  C   UNL     1       1.258  -2.144  -0.128  0.00  0.00    +0.139 C 
ATOM      2  N   UNL     1       2.384  -2.779  -0.252  0.00  0.00    -0.190 NA
ENDROOT
BRANCH   1   7
ATOM      3  C   UNL     1       0.020   1.398  -0.067  0.00  0.00    +0.001 A 
ATOM      4  C   UNL     1       1.169   2.090  -0.409  0.00  0.00    +0.001 A 
ATOM      5  C   UNL     1       2.347   1.409  -0.660  0.00  0.00    +0.015 A 
ATOM      6  C   UNL     1       2.383   0.032  -0.570  0.00  0.00    +0.022 A 
ATOM      7  C   UNL     1       1.227  -0.673  -0.225  0.00  0.00    +0.008 A 
ATOM      8  C   UNL     1       0.042   0.022   0.026  0.00  0.00    +0.010 A 
ATOM      9  I   UNL     1       4.168  -0.998  -0.951  0.00  0.00    -0.043 I 
ENDBRANCH   1   7
BRANCH   2  10
ATOM     10  N   UNL     1       2.401  -4.180  -0.248  0.00  0.00    -0.236 N 
ATOM     11  H   UNL     1       1.567  -4.676  -0.235  0.00  0.00    +0.174 HD
BRANCH  10  12
ATOM     12  C   UNL     1       3.619  -4.863  -0.265  0.00  0.00    +0.067 A 
ATOM     13  C   UNL     1       4.814  -4.155  -0.268  0.00  0.00    +0.026 A 
ATOM     14  C   UNL     1       6.017  -4.833  -0.283  0.00  0.00    +0.002 A 
ATOM     15  C   UNL     1       6.033  -6.216  -0.297  0.00  0.00    +0.002 A 
ATOM     16  C   UNL     1       4.846  -6.925  -0.295  0.00  0.00    +0.022 A 
ATOM     17  C   UNL     1       3.638  -6.253  -0.273  0.00  0.00    +0.063 A 
ATOM     18 CL   UNL     1       2.148  -7.144  -0.263  0.00  0.00    -0.082 Cl
ENDBRANCH  10  12
ENDBRANCH   2  10
TORSDOF 3
