REMARK  Name = ZINC63589262
REMARK  9 active torsions:
REMARK  status: ('A' for Active; 'I' for Inactive)
REMARK    1  A    between atoms: C_1  and  C_2
REMARK    2  A    between atoms: C_2  and  C_3
REMARK    3  A    between atoms: C_8  and  N_9
REMARK    4  A    between atoms: N_11  and  C_12
REMARK    5  A    between atoms: C_12  and  C_13
REMARK    6  A    between atoms: C_13  and  C_14
REMARK    7  A    between atoms: N_23  and  C_24
REMARK    8  A    between atoms: C_24  and  C_26
REMARK    9  A    between atoms: C_29  and  C_32
REMARK                            x       y       z     vdW  Elec       q    Type
REMARK                         _______ _______ _______ _____ _____    ______ ____
ROOT
ATOM      1  N   UNL     1       3.788  -1.474   0.060  0.00  0.00    -0.328 N 
ATOM      2  C   UNL     1       4.880  -0.655   0.056  0.00  0.00    +0.194 C 
ATOM      3  N   UNL     1       5.110   0.180   1.110  0.00  0.00    -0.357 N 
ATOM      4  N   UNL     1       5.715  -0.670  -0.972  0.00  0.00    -0.143 NA
ATOM      5  H   UNL     1       5.859   0.796   1.086  0.00  0.00    +0.162 HD
ATOM      6  H   UNL     1       3.898  -2.428   0.201  0.00  0.00    +0.169 HD
ENDROOT
BRANCH   1  12
ATOM      7  C   UNL     1       1.389  -1.744   0.010  0.00  0.00    -0.024 A 
ATOM      8  C   UNL     1       0.129  -1.211  -0.182  0.00  0.00    +0.005 A 
ATOM      9  C   UNL     1      -0.015   0.120  -0.529  0.00  0.00    +0.000 A 
ATOM     10  C   UNL     1       1.101   0.922  -0.685  0.00  0.00    +0.002 A 
ATOM     11  C   UNL     1       2.364   0.395  -0.494  0.00  0.00    +0.026 A 
ATOM     12  C   UNL     1       2.511  -0.940  -0.140  0.00  0.00    +0.045 A 
BRANCH   7  14
ATOM     13  C   UNL     1       1.654  -3.315   1.911  0.00  0.00    +0.009 C 
ATOM     14  C   UNL     1       1.545  -3.194   0.389  0.00  0.00    +0.034 C 
ENDBRANCH   7  14
ENDBRANCH   1  12
BRANCH   4  15
ATOM     15  C   UNL     1       5.396  -1.343  -2.085  0.00  0.00    +0.270 C 
ATOM     16  O   UNL     1       4.290  -1.839  -2.200  0.00  0.00    -0.268 OA
BRANCH  15  17
ATOM     17  C   UNL     1       6.388  -1.483  -3.176  0.00  0.00    +0.039 A 
ATOM     18  C   UNL     1       7.692  -1.020  -3.000  0.00  0.00    +0.013 A 
ATOM     19  C   UNL     1       8.612  -1.154  -4.020  0.00  0.00    +0.004 A 
ATOM     20  C   UNL     1       8.243  -1.746  -5.215  0.00  0.00    -0.050 A 
ATOM     21  C   UNL     1       6.951  -2.207  -5.395  0.00  0.00    +0.004 A 
ATOM     22  C   UNL     1       6.024  -2.085  -4.381  0.00  0.00    +0.013 A 
ATOM     23  C   UNL     1       9.252  -1.889  -6.325  0.00  0.00    +0.044 C 
ENDBRANCH  15  17
ENDBRANCH   4  15
BRANCH   3  24
ATOM     24  C   UNL     1       4.227   0.145   2.278  0.00  0.00    +0.120 C 
BRANCH  24  25
ATOM     25  C   UNL     1       4.672   1.206   3.286  0.00  0.00    +0.054 C 
BRANCH  25  26
ATOM     26  C   UNL     1       3.839   1.093   4.536  0.00  0.00    -0.040 C 
ATOM     27  C   UNL     1       4.039   0.247   5.573  0.00  0.00    -0.001 A 
ATOM     28  C   UNL     1       5.052  -0.782   5.835  0.00  0.00    +0.010 A 
ATOM     29  C   UNL     1       4.990  -1.484   6.989  0.00  0.00    +0.001 A 
ATOM     30  C   UNL     1       3.984  -1.256   7.938  0.00  0.00    +0.002 A 
ATOM     31  C   UNL     1       3.018  -0.328   7.768  0.00  0.00    +0.026 A 
ATOM     32  C   UNL     1       2.987   0.469   6.591  0.00  0.00    +0.043 A 
ATOM     33  N   UNL     1       2.170   1.416   6.199  0.00  0.00    -0.380 N 
ATOM     34  C   UNL     1       2.614   1.906   4.889  0.00  0.00    +0.144 C 
ATOM     35  H   UNL     1       1.401   1.741   6.694  0.00  0.00    +0.160 HD
ENDBRANCH  25  26
ENDBRANCH  24  25
ENDBRANCH   3  24
TORSDOF 7
