REMARK  Name = ZINC39664969
REMARK  7 active torsions:
REMARK  status: ('A' for Active; 'I' for Inactive)
REMARK    1  A    between atoms: C_1  and  C_2
REMARK    2  A    between atoms: C_2  and  C_4
REMARK    3  A    between atoms: C_2  and  O_29
REMARK    4  A    between atoms: C_4  and  N_5
REMARK    5  A    between atoms: C_6  and  C_8
REMARK    6  A    between atoms: C_19  and  C_21
REMARK    7  A    between atoms: O_29  and  C_30
REMARK                            x       y       z     vdW  Elec       q    Type
REMARK                         _______ _______ _______ _____ _____    ______ ____
ROOT
ATOM      1  C   UNL     1       2.347  -3.660   2.893  0.00  0.00    +0.100 C 
ATOM      2  C   UNL     1       3.118  -4.403   1.779  0.00  0.00    +0.121 C 
ATOM      3  N   UNL     1       4.504  -4.512   2.292  0.00  0.00    -0.296 N 
ATOM      4  C   UNL     1       4.340  -4.804   3.736  0.00  0.00    +0.115 C 
ATOM      5  C   UNL     1       3.150  -3.929   4.177  0.00  0.00    -0.004 C 
ATOM      6  C   UNL     1       3.653  -2.617   4.770  0.00  0.00    -0.010 C 
ATOM      7  C   UNL     1       4.400  -2.905   6.075  0.00  0.00    -0.082 C 
ATOM      8  N   UNL     1       3.499  -3.579   7.018  0.00  0.00    +0.379 N 
ATOM      9  C   UNL     1       3.094  -4.882   6.480  0.00  0.00    -0.082 C 
ATOM     10  C   UNL     1       2.291  -4.677   5.192  0.00  0.00    -0.010 C 
ATOM     11  C   UNL     1       5.653  -4.376   1.602  0.00  0.00    +0.248 C 
ATOM     12  O   UNL     1       5.625  -4.048   0.431  0.00  0.00    -0.270 OA
ATOM     13  H   UNL     1       3.975  -3.713   7.898  0.00  0.00    -0.086 HD
ATOM     14  H   UNL     1       2.681  -3.007   7.165  0.00  0.00    -0.086 HD
ENDROOT
BRANCH  11  15
ATOM     15  C   UNL     1       6.949  -4.625   2.267  0.00  0.00    +0.055 A 
ATOM     16  C   UNL     1       7.063  -5.637   3.223  0.00  0.00    +0.016 A 
ATOM     17  C   UNL     1       8.274  -5.865   3.841  0.00  0.00    +0.021 A 
ATOM     18  C   UNL     1       9.377  -5.092   3.516  0.00  0.00    +0.042 A 
ATOM     19  C   UNL     1       9.272  -4.086   2.570  0.00  0.00    +0.040 A 
ATOM     20  C   UNL     1       8.066  -3.853   1.939  0.00  0.00    +0.054 A 
ATOM     21 CL   UNL     1       7.936  -2.597   0.748  0.00  0.00    -0.083 Cl
ATOM     22 CL   UNL     1      10.899  -5.385   4.299  0.00  0.00    -0.083 Cl
ENDBRANCH  11  15
BRANCH   1  24
ATOM     23  N   UNL     1       1.335  -1.418   3.153  0.00  0.00    -0.312 N 
ATOM     24  C   UNL     1       2.300  -2.182   2.604  0.00  0.00    +0.218 C 
ATOM     25  O   UNL     1       3.131  -1.680   1.876  0.00  0.00    -0.275 OA
ATOM     26  H   UNL     1       0.670  -1.819   3.734  0.00  0.00    +0.149 HD
BRANCH  23  27
ATOM     27  C   UNL     1       1.289   0.019   2.871  0.00  0.00    +0.148 C 
BRANCH  27  29
ATOM     28  C   UNL     1      -0.016   2.121   3.220  0.00  0.00    +0.053 C 
ATOM     29  C   UNL     1       0.107   0.647   3.611  0.00  0.00    +0.187 C 
BRANCH  29  30
ATOM     30  O   UNL     1       0.319   0.544   5.021  0.00  0.00    -0.488 OA
BRANCH  30  31
ATOM     31  C   UNL     1      -0.784   0.575   5.815  0.00  0.00    +0.121 A 
ATOM     32  C   UNL     1      -2.047   0.647   5.246  0.00  0.00    +0.045 A 
ATOM     33  C   UNL     1      -3.167   0.678   6.055  0.00  0.00    +0.004 A 
ATOM     34  C   UNL     1      -3.029   0.638   7.430  0.00  0.00    +0.000 A 
ATOM     35  C   UNL     1      -1.770   0.567   7.999  0.00  0.00    +0.004 A 
ATOM     36  C   UNL     1      -0.648   0.530   7.194  0.00  0.00    +0.045 A 
ENDBRANCH  30  31
ENDBRANCH  29  30
ENDBRANCH  27  29
ENDBRANCH  23  27
ENDBRANCH   1  24
TORSDOF 6
