REMARK  Name = ZINC39942261
REMARK  7 active torsions:
REMARK  status: ('A' for Active; 'I' for Inactive)
REMARK    1  A    between atoms: C_1  and  C_2
REMARK    2  A    between atoms: C_2  and  C_4
REMARK    3  A    between atoms: C_2  and  S_18
REMARK    4  A    between atoms: N_6  and  C_7
REMARK    5  A    between atoms: S_18  and  C_19
REMARK    6  A    between atoms: C_23  and  C_28
REMARK    7  A    between atoms: N_24  and  C_25
REMARK                            x       y       z     vdW  Elec       q    Type
REMARK                         _______ _______ _______ _____ _____    ______ ____
ROOT
ATOM      1  C   UNL     1      -0.223  -0.059  -2.770  0.00  0.00    +0.238 C 
ATOM      2  N   UNL     1      -0.397   1.386  -2.547  0.00  0.00    -0.237 N 
ATOM      3  N   UNL     1      -1.776   1.626  -2.557  0.00  0.00    -0.169 NA
ATOM      4  C   UNL     1      -2.449   0.523  -2.755  0.00  0.00    +0.147 C 
ATOM      5  N   UNL     1      -1.595  -0.577  -2.901  0.00  0.00    -0.282 N 
ATOM      6  H   UNL     1       0.305   2.042  -2.418  0.00  0.00    +0.171 HD
ENDROOT
BRANCH   4   7
ATOM      7  C   UNL     1      -3.849   0.450  -2.814  0.00  0.00    +0.022 C 
ATOM      8  C   UNL     1      -4.752   1.514  -2.777  0.00  0.00    +0.006 A 
ATOM      9  C   UNL     1      -4.575   2.910  -2.676  0.00  0.00    +0.010 A 
ATOM     10  C   UNL     1      -5.660   3.727  -2.663  0.00  0.00    +0.001 A 
ATOM     11  C   UNL     1      -6.958   3.219  -2.748  0.00  0.00    +0.002 A 
ATOM     12  C   UNL     1      -7.202   1.889  -2.848  0.00  0.00    +0.026 A 
ATOM     13  C   UNL     1      -6.118   0.974  -2.867  0.00  0.00    +0.043 A 
ATOM     14  N   UNL     1      -6.089  -0.342  -2.956  0.00  0.00    -0.380 N 
ATOM     15  C   UNL     1      -4.695  -0.797  -2.939  0.00  0.00    +0.152 C 
ATOM     16  H   UNL     1      -6.867  -0.917  -3.025  0.00  0.00    +0.160 HD
ENDBRANCH   4   7
BRANCH   5  17
ATOM     17  C   UNL     1      -1.987  -1.969  -3.137  0.00  0.00    +0.078 C 
ATOM     18  C   UNL     1      -0.875  -3.019  -3.176  0.00  0.00    +0.024 C 
ATOM     19  C   UNL     1      -1.579  -2.601  -4.469  0.00  0.00    +0.024 C 
ENDBRANCH   5  17
BRANCH   1  20
ATOM     20  S   UNL     1       0.611  -0.824  -1.352  0.00  0.00    -0.106 S 
BRANCH  20  22
ATOM     21  C   UNL     1      -0.442   1.110   0.272  0.00  0.00    +0.029 C 
ATOM     22  C   UNL     1      -0.450  -0.405   0.059  0.00  0.00    +0.132 C 
BRANCH  22  23
ATOM     23  C   UNL     1       0.068  -1.089   1.298  0.00  0.00    +0.226 C 
ATOM     24  O   UNL     1       1.238  -1.398   1.375  0.00  0.00    -0.275 OA
ATOM     25  N   UNL     1      -0.769  -1.358   2.319  0.00  0.00    -0.308 N 
ATOM     26  H   UNL     1      -1.705  -1.111   2.257  0.00  0.00    +0.149 HD
BRANCH  25  27
ATOM     27  C   UNL     1      -0.265  -2.023   3.523  0.00  0.00    +0.103 C 
ATOM     28  C   UNL     1      -1.154  -1.657   4.710  0.00  0.00    +0.027 C 
ATOM     29  C   UNL     1      -0.747  -2.526   5.906  0.00  0.00    +0.007 C 
ATOM     30  C   UNL     1      -1.171  -3.966   5.620  0.00  0.00    +0.035 C 
ATOM     31  C   UNL     1      -0.675  -4.405   4.268  0.00  0.00    -0.042 A 
ATOM     32  C   UNL     1      -0.263  -3.513   3.304  0.00  0.00    -0.024 A 
ATOM     33  C   UNL     1       0.176  -3.985   2.074  0.00  0.00    +0.006 A 
ATOM     34  C   UNL     1       0.206  -5.340   1.813  0.00  0.00    +0.000 A 
ATOM     35  C   UNL     1      -0.204  -6.235   2.783  0.00  0.00    +0.000 A 
ATOM     36  C   UNL     1      -0.641  -5.768   4.003  0.00  0.00    +0.004 A 
ENDBRANCH  25  27
ENDBRANCH  22  23
ENDBRANCH  20  22
ENDBRANCH   1  20
TORSDOF 6
