REMARK  Name = ZINC17329899
REMARK  11 active torsions:
REMARK  status: ('A' for Active; 'I' for Inactive)
REMARK    1  A    between atoms: C_1  and  S_2
REMARK    2  A    between atoms: S_2  and  C_3
REMARK    3  A    between atoms: C_3  and  C_4
REMARK    4  A    between atoms: C_4  and  C_5
REMARK    5  A    between atoms: C_5  and  C_7
REMARK    6  A    between atoms: C_5  and  N_22
REMARK    7  A    between atoms: N_9  and  N_10
REMARK    8  A    between atoms: C_11  and  C_13
REMARK    9  A    between atoms: C_17  and  N_19
REMARK   10  A    between atoms: N_22  and  S_23
REMARK   11  A    between atoms: S_23  and  C_26
REMARK                            x       y       z     vdW  Elec       q    Type
REMARK                         _______ _______ _______ _____ _____    ______ ____
ROOT
ATOM      1  C   UNL     1      -9.929   0.914   0.096  0.00  0.00    +0.164 C 
ENDROOT
BRANCH   1   2
ATOM      2  C   UNL     1      -8.651   1.704   0.201  0.00  0.00    +0.248 C 
ATOM      3  O   UNL     1      -8.690   2.914   0.281  0.00  0.00    -0.273 OA
ATOM      4  N   UNL     1      -7.463   1.067   0.207  0.00  0.00    -0.233 N 
ATOM      5  H   UNL     1      -7.431   0.100   0.143  0.00  0.00    +0.173 HD
BRANCH   4   6
ATOM      6  N   UNL     1      -6.274   1.802   0.305  0.00  0.00    -0.230 N 
ATOM      7  C   UNL     1      -5.087   1.165   0.311  0.00  0.00    +0.260 C 
ATOM      8  O   UNL     1      -5.047  -0.047   0.231  0.00  0.00    -0.269 OA
ATOM      9  H   UNL     1      -6.306   2.770   0.368  0.00  0.00    +0.173 HD
BRANCH   7  10
ATOM     10  C   UNL     1      -3.832   1.941   0.414  0.00  0.00    +0.040 A 
ATOM     11  C   UNL     1      -3.874   3.333   0.505  0.00  0.00    +0.013 A 
ATOM     12  C   UNL     1      -2.700   4.051   0.601  0.00  0.00    +0.003 A 
ATOM     13  C   UNL     1      -1.483   3.393   0.612  0.00  0.00    +0.033 A 
ATOM     14  C   UNL     1      -1.434   2.014   0.517  0.00  0.00    +0.127 A 
ATOM     15  C   UNL     1      -2.601   1.284   0.421  0.00  0.00    +0.045 A 
BRANCH  14  16
ATOM     16  N   UNL     1      -0.127   1.320   0.524  0.00  0.00    +0.056 N 
ATOM     17  O   UNL     1      -0.082   0.105   0.446  0.00  0.00    -0.126 OA
ATOM     18  O   UNL     1       0.904   1.963   0.604  0.00  0.00    -0.126 OA
ENDBRANCH  14  16
ENDBRANCH   7  10
ENDBRANCH   4   6
ENDBRANCH   1   2
BRANCH   1  19
ATOM     19  N   UNL     1     -11.072   1.830   0.110  0.00  0.00    -0.178 NA
ATOM     20  H   UNL     1     -11.428   2.148   0.955  0.00  0.00    +0.149 HD
BRANCH  19  21
ATOM     21  S   UNL     1     -11.758   2.321  -1.315  0.00  0.00    +0.059 S 
ATOM     22  O   UNL     1     -12.852   3.161  -0.971  0.00  0.00    -0.153 OA
ATOM     23  O   UNL     1     -10.693   2.760  -2.147  0.00  0.00    -0.153 OA
BRANCH  21  24
ATOM     24  C   UNL     1     -12.443   0.892  -2.084  0.00  0.00    +0.105 A 
ATOM     25  C   UNL     1     -11.714   0.203  -3.036  0.00  0.00    +0.030 A 
ATOM     26  C   UNL     1     -12.249  -0.921  -3.636  0.00  0.00    +0.022 A 
ATOM     27  C   UNL     1     -13.518  -1.352  -3.291  0.00  0.00    +0.041 A 
ATOM     28  C   UNL     1     -14.248  -0.660  -2.342  0.00  0.00    +0.022 A 
ATOM     29  C   UNL     1     -13.710   0.462  -1.739  0.00  0.00    +0.030 A 
ATOM     30 CL   UNL     1     -14.192  -2.761  -4.048  0.00  0.00    -0.084 Cl
ENDBRANCH  21  24
ENDBRANCH  19  21
ENDBRANCH   1  19
BRANCH   1  31
ATOM     31  C   UNL     1     -10.032  -0.049   1.280  0.00  0.00    +0.040 C 
BRANCH  31  32
ATOM     32  C   UNL     1     -11.280  -0.921   1.122  0.00  0.00    +0.071 C 
BRANCH  32  34
ATOM     33  C   UNL     1     -12.893  -3.027   2.188  0.00  0.00    +0.084 C 
ATOM     34  S   UNL     1     -11.481  -1.963   2.593  0.00  0.00    -0.164 S 
ENDBRANCH  32  34
ENDBRANCH  31  32
ENDBRANCH   1  31
TORSDOF 10
