REMARK  Name = ZINC39754554
REMARK  8 active torsions:
REMARK  status: ('A' for Active; 'I' for Inactive)
REMARK    1  A    between atoms: C_1  and  C_2
REMARK    2  A    between atoms: C_5  and  C_36
REMARK    3  A    between atoms: C_6  and  N_8
REMARK    4  A    between atoms: C_9  and  C_35
REMARK    5  A    between atoms: C_13  and  S_14
REMARK    6  A    between atoms: S_14  and  C_15
REMARK    7  A    between atoms: C_15  and  C_16
REMARK    8  A    between atoms: C_21  and  N_24
REMARK                            x       y       z     vdW  Elec       q    Type
REMARK                         _______ _______ _______ _____ _____    ______ ____
ROOT
ATOM      1  C   UNL     1      -5.167  -3.576   3.632  0.00  0.00    +0.226 C 
ATOM      2  O   UNL     1      -5.519  -2.990   2.630  0.00  0.00    -0.275 OA
ATOM      3  N   UNL     1      -6.089  -4.081   4.476  0.00  0.00    -0.301 N 
ATOM      4  C   UNL     1      -5.678  -4.787   5.697  0.00  0.00    +0.110 C 
ATOM      5  C   UNL     1      -6.353  -6.162   5.722  0.00  0.00    +0.044 C 
ATOM      6  C   UNL     1      -7.866  -5.986   5.577  0.00  0.00    +0.095 C 
ATOM      7  C   UNL     1      -8.177  -5.319   4.235  0.00  0.00    +0.044 C 
ATOM      8  C   UNL     1      -7.523  -3.929   4.196  0.00  0.00    +0.110 C 
ENDROOT
BRANCH   6   9
ATOM      9  N   UNL     1      -8.518  -7.296   5.633  0.00  0.00    -0.289 N 
ATOM     10  C   UNL     1      -9.472  -7.693   6.567  0.00  0.00    +0.070 A 
ATOM     11  C   UNL     1     -10.068  -7.058   7.646  0.00  0.00    +0.028 A 
ATOM     12  C   UNL     1     -11.005  -7.730   8.407  0.00  0.00    +0.002 A 
ATOM     13  C   UNL     1     -11.351  -9.034   8.097  0.00  0.00    +0.002 A 
ATOM     14  C   UNL     1     -10.762  -9.674   7.024  0.00  0.00    +0.028 A 
ATOM     15  C   UNL     1      -9.821  -9.008   6.255  0.00  0.00    +0.067 A 
ATOM     16  N   UNL     1      -9.069  -9.370   5.139  0.00  0.00    -0.306 N 
ATOM     17  H   UNL     1      -9.096 -10.229   4.691  0.00  0.00    +0.170 HD
ATOM     18  C   UNL     1      -8.302  -8.321   4.787  0.00  0.00    +0.328 A 
ATOM     19  O   UNL     1      -7.528  -8.303   3.848  0.00  0.00    -0.247 OA
ENDBRANCH   6   9
BRANCH   1  20
ATOM     20  C   UNL     1      -3.700  -3.739   3.933  0.00  0.00    +0.173 C 
BRANCH  20  21
ATOM     21  S   UNL     1      -2.722  -2.958   2.620  0.00  0.00    -0.079 S 
BRANCH  21  26
ATOM     22  N   UNL     1       0.051  -2.797   2.391  0.00  0.00    -0.258 N 
ATOM     23  C   UNL     1       1.241  -3.223   3.147  0.00  0.00    +0.179 C 
ATOM     24  N   UNL     1       0.684  -3.920   4.319  0.00  0.00    -0.246 N 
ATOM     25  N   UNL     1      -0.708  -3.862   4.183  0.00  0.00    -0.162 NA
ATOM     26  C   UNL     1      -1.052  -3.231   3.111  0.00  0.00    +0.180 C 
ATOM     27  C   UNL     1       2.098  -4.174   2.310  0.00  0.00    +0.051 C 
ATOM     28  H   UNL     1       1.182  -4.336   5.041  0.00  0.00    +0.170 HD
BRANCH  22  34
ATOM     29  C   UNL     1      -0.018   1.503   0.010  0.00  0.00    +0.044 C 
ATOM     30  C   UNL     1       0.002  -0.004   0.002  0.00  0.00    -0.049 A 
ATOM     31  C   UNL     1       0.006  -0.688  -1.200  0.00  0.00    +0.004 A 
ATOM     32  C   UNL     1       0.025  -2.071  -1.212  0.00  0.00    +0.005 A 
ATOM     33  C   UNL     1       0.040  -2.773  -0.023  0.00  0.00    -0.029 A 
ATOM     34  C   UNL     1       0.036  -2.089   1.186  0.00  0.00    +0.041 A 
ATOM     35  C   UNL     1       0.023  -0.700   1.194  0.00  0.00    +0.027 A 
ATOM     36  C   UNL     1       0.059  -4.280  -0.037  0.00  0.00    +0.045 C 
ENDBRANCH  22  34
ENDBRANCH  21  26
ENDBRANCH  20  21
ENDBRANCH   1  20
TORSDOF 5
