REMARK  Name = ZINC21262946
REMARK  16 active torsions:
REMARK  status: ('A' for Active; 'I' for Inactive)
REMARK    1  A    between atoms: C_1  and  C_2
REMARK    2  A    between atoms: C_2  and  C_3
REMARK    3  A    between atoms: C_2  and  C_4
REMARK    4  A    between atoms: C_7  and  C_10
REMARK    5  A    between atoms: C_10  and  N_11
REMARK    6  A    between atoms: N_11  and  C_12
REMARK    7  A    between atoms: N_11  and  C_21
REMARK    8  A    between atoms: C_12  and  C_13
REMARK    9  A    between atoms: C_16  and  O_19
REMARK   10  A    between atoms: O_19  and  C_20
REMARK   11  A    between atoms: C_21  and  N_23
REMARK   12  A    between atoms: N_23  and  C_24
REMARK   13  A    between atoms: C_26  and  C_32
REMARK   14  A    between atoms: C_26  and  C_33
REMARK   15  A    between atoms: C_28  and  C_30
REMARK   16  A    between atoms: C_28  and  C_31
REMARK                            x       y       z     vdW  Elec       q    Type
REMARK                         _______ _______ _______ _____ _____    ______ ____
ROOT
ATOM      1  N   UNL     1       1.034   4.069   1.384  0.00  0.00    -0.304 N 
ENDROOT
BRANCH   1   2
ATOM      2  C   UNL     1       2.145   4.401   2.071  0.00  0.00    +0.134 C 
ATOM      3  S   UNL     1       2.019   4.965   3.683  0.00  0.00    -0.019 S 
BRANCH   2   4
ATOM      4  N   UNL     1       3.355   4.290   1.489  0.00  0.00    -0.324 N 
ATOM      5  H   UNL     1       3.436   3.928   0.453  0.00  0.00    +0.148 HD
BRANCH   4   6
ATOM      6  C   UNL     1       4.566   4.651   2.237  0.00  0.00    +0.069 C 
ATOM      7  C   UNL     1       4.824   6.150   2.083  0.00  0.00    +0.009 C 
ATOM      8  C   UNL     1       6.092   6.551   2.832  0.00  0.00    -0.072 C 
ATOM      9  N   UNL     1       7.221   5.695   2.534  0.00  0.00    +0.386 N 
ATOM     10  C   UNL     1       7.038   4.264   2.407  0.00  0.00    -0.072 C 
ATOM     11  C   UNL     1       5.760   3.891   1.660  0.00  0.00    +0.009 C 
ATOM     12  C   UNL     1       7.048   3.581   3.779  0.00  0.00    -0.010 C 
ATOM     13  C   UNL     1       8.229   3.696   1.603  0.00  0.00    -0.010 C 
ATOM     14  C   UNL     1       5.807   6.587   4.339  0.00  0.00    -0.010 C 
ATOM     15  C   UNL     1       6.451   7.991   2.401  0.00  0.00    -0.010 C 
ATOM     16  H   UNL     1       7.660   5.991   1.570  0.00  0.00    -0.084 HD
ATOM     17  H   UNL     1       7.976   5.795   3.327  0.00  0.00    -0.084 HD
ENDBRANCH   4   6
ENDBRANCH   2   4
ENDBRANCH   1   2
BRANCH   1  18
ATOM     18  C   UNL     1       1.141   3.587   0.005  0.00  0.00    +0.142 C 
BRANCH  18  22
ATOM     19  C   UNL     1       1.507  -0.669   0.009  0.00  0.00    -0.045 A 
ATOM     20  C   UNL     1       0.256  -0.083   0.051  0.00  0.00    +0.004 A 
ATOM     21  C   UNL     1       0.137   1.295   0.050  0.00  0.00    +0.005 A 
ATOM     22  C   UNL     1       1.270   2.086   0.007  0.00  0.00    -0.030 A 
ATOM     23  C   UNL     1       2.521   1.499  -0.036  0.00  0.00    +0.005 A 
ATOM     24  C   UNL     1       2.639   0.122  -0.035  0.00  0.00    +0.004 A 
BRANCH  19  26
ATOM     25  C   UNL     1       2.353  -2.623  -1.262  0.00  0.00    +0.012 C 
ATOM     26  C   UNL     1       1.635  -2.171   0.011  0.00  0.00    +0.013 C 
ATOM     27  C   UNL     1       2.442  -2.611   1.234  0.00  0.00    +0.012 C 
ENDBRANCH  19  26
ENDBRANCH  18  22
ENDBRANCH   1  18
BRANCH   1  28
ATOM     28  C   UNL     1      -0.282   4.191   2.017  0.00  0.00    +0.142 C 
BRANCH  28  29
ATOM     29  C   UNL     1      -0.892   5.521   1.657  0.00  0.00    -0.030 A 
ATOM     30  C   UNL     1      -0.757   6.597   2.515  0.00  0.00    +0.009 A 
ATOM     31  C   UNL     1      -1.310   7.819   2.185  0.00  0.00    +0.046 A 
ATOM     32  C   UNL     1      -2.011   7.963   0.996  0.00  0.00    +0.120 A 
ATOM     33  C   UNL     1      -2.149   6.881   0.139  0.00  0.00    +0.046 A 
ATOM     34  C   UNL     1      -1.589   5.662   0.471  0.00  0.00    +0.009 A 
BRANCH  32  35
ATOM     35  O   UNL     1      -2.561   9.163   0.671  0.00  0.00    -0.495 OA
ATOM     36  C   UNL     1      -2.378  10.233   1.600  0.00  0.00    +0.277 C 
ENDBRANCH  32  35
ENDBRANCH  28  29
ENDBRANCH   1  28
TORSDOF 9
