REMARK  Name = ZINC39677061
REMARK  9 active torsions:
REMARK  status: ('A' for Active; 'I' for Inactive)
REMARK    1  A    between atoms: C_1  and  C_2
REMARK    2  A    between atoms: C_5  and  C_36
REMARK    3  A    between atoms: C_6  and  C_8
REMARK    4  A    between atoms: C_8  and  C_9
REMARK    5  A    between atoms: C_9  and  N_10
REMARK    6  A    between atoms: C_11  and  C_13
REMARK    7  A    between atoms: C_24  and  C_26
REMARK    8  A    between atoms: C_29  and  O_33
REMARK    9  A    between atoms: O_33  and  C_34
REMARK                            x       y       z     vdW  Elec       q    Type
REMARK                         _______ _______ _______ _____ _____    ______ ____
ROOT
ATOM      1  C   UNL     1       2.453  -5.393   6.516  0.00  0.00    +0.100 C 
ATOM      2  C   UNL     1       1.642  -6.623   6.051  0.00  0.00    +0.121 C 
ATOM      3  N   UNL     1       2.666  -7.623   5.668  0.00  0.00    -0.296 N 
ATOM      4  C   UNL     1       3.727  -7.476   6.693  0.00  0.00    +0.115 C 
ATOM      5  C   UNL     1       3.819  -5.957   6.940  0.00  0.00    -0.004 C 
ATOM      6  C   UNL     1       4.072  -5.678   8.418  0.00  0.00    -0.010 C 
ATOM      7  C   UNL     1       5.460  -6.196   8.802  0.00  0.00    -0.082 C 
ATOM      8  N   UNL     1       6.477  -5.533   7.977  0.00  0.00    +0.379 N 
ATOM      9  C   UNL     1       6.283  -5.883   6.565  0.00  0.00    -0.082 C 
ATOM     10  C   UNL     1       4.929  -5.351   6.087  0.00  0.00    -0.010 C 
ATOM     11  C   UNL     1       2.639  -8.474   4.623  0.00  0.00    +0.247 C 
ATOM     12  O   UNL     1       1.754  -8.390   3.793  0.00  0.00    -0.270 OA
ATOM     13  H   UNL     1       6.399  -4.533   8.088  0.00  0.00    -0.086 HD
ATOM     14  H   UNL     1       7.395  -5.831   8.273  0.00  0.00    -0.086 HD
ENDROOT
BRANCH  11  15
ATOM     15  C   UNL     1       3.683  -9.509   4.486  0.00  0.00    +0.040 A 
ATOM     16  C   UNL     1       4.422  -9.909   5.602  0.00  0.00    +0.036 A 
ATOM     17  C   UNL     1       5.396 -10.875   5.471  0.00  0.00    +0.085 A 
ATOM     18  C   UNL     1       5.644 -11.451   4.230  0.00  0.00    +0.157 A 
ATOM     19  C   UNL     1       4.910 -11.055   3.117  0.00  0.00    +0.085 A 
ATOM     20  C   UNL     1       3.930 -10.094   3.242  0.00  0.00    +0.036 A 
ATOM     21 CL   UNL     1       5.224 -11.777   1.570  0.00  0.00    -0.080 Cl
ATOM     22 CL   UNL     1       6.316 -11.373   6.857  0.00  0.00    -0.080 Cl
BRANCH  18  23
ATOM     23  O   UNL     1       6.605 -12.402   4.104  0.00  0.00    -0.492 OA
ATOM     24  C   UNL     1       6.202 -13.760   4.291  0.00  0.00    +0.277 C 
ENDBRANCH  18  23
ENDBRANCH  11  15
BRANCH   1  26
ATOM     25  N   UNL     1       2.849  -3.112   5.644  0.00  0.00    -0.315 N 
ATOM     26  C   UNL     1       2.618  -4.414   5.383  0.00  0.00    +0.218 C 
ATOM     27  O   UNL     1       2.544  -4.798   4.234  0.00  0.00    -0.275 OA
ATOM     28  H   UNL     1       2.909  -2.805   6.562  0.00  0.00    +0.149 HD
BRANCH  25  29
ATOM     29  C   UNL     1       3.010  -2.161   4.542  0.00  0.00    +0.109 C 
BRANCH  29  30
ATOM     30  C   UNL     1       3.259  -0.762   5.108  0.00  0.00    +0.054 C 
BRANCH  30  36
ATOM     31  C   UNL     1       6.220   1.785   1.978  0.00  0.00    +0.044 C 
ATOM     32  C   UNL     1       4.841   1.436   2.477  0.00  0.00    -0.050 A 
ATOM     33  C   UNL     1       3.728   2.014   1.895  0.00  0.00    +0.003 A 
ATOM     34  C   UNL     1       2.464   1.694   2.353  0.00  0.00    +0.004 A 
ATOM     35  C   UNL     1       2.312   0.795   3.393  0.00  0.00    -0.047 A 
ATOM     36  C   UNL     1       3.425   0.217   3.974  0.00  0.00    -0.043 A 
ATOM     37  C   UNL     1       4.689   0.534   3.514  0.00  0.00    +0.007 A 
ATOM     38  C   UNL     1       0.934   0.447   3.892  0.00  0.00    +0.044 C 
ENDBRANCH  30  36
ENDBRANCH  29  30
ENDBRANCH  25  29
ENDBRANCH   1  26
TORSDOF 6
