REMARK  Name = ZINC12820064
REMARK  11 active torsions:
REMARK  status: ('A' for Active; 'I' for Inactive)
REMARK    1  A    between atoms: C_1  and  C_2
REMARK    2  A    between atoms: C_2  and  C_3
REMARK    3  A    between atoms: C_3  and  C_4
REMARK    4  A    between atoms: C_4  and  N_5
REMARK    5  A    between atoms: C_6  and  N_34
REMARK    6  A    between atoms: C_7  and  N_14
REMARK    7  A    between atoms: N_14  and  C_15
REMARK    8  A    between atoms: C_15  and  C_16
REMARK    9  A    between atoms: C_17  and  C_19
REMARK   10  A    between atoms: C_19  and  N_63
REMARK   11  A    between atoms: C_23  and  C_25
REMARK                            x       y       z     vdW  Elec       q    Type
REMARK                         _______ _______ _______ _____ _____    ______ ____
ROOT
ATOM      1  N   UNL     1       0.085   0.017  -0.007  0.00  0.00    -0.266 N 
ATOM      2  C   UNL     1      -1.085  -0.639   0.141  0.00  0.00    +0.203 C 
ATOM      3  O   UNL     1      -2.127  -0.020   0.182  0.00  0.00    -0.277 OA
ENDROOT
BRANCH   1   6
ATOM      4  N   UNL     1       0.467   3.498  -1.119  0.00  0.00    -0.280 N 
ATOM      5  C   UNL     1       0.459   2.123  -1.147  0.00  0.00    +0.127 A 
ATOM      6  C   UNL     1       0.106   1.428  -0.009  0.00  0.00    +0.140 A 
ATOM      7  C   UNL     1      -0.226   2.151   1.153  0.00  0.00    +0.277 A 
ATOM      8  O   UNL     1      -0.537   1.561   2.174  0.00  0.00    -0.266 OA
ATOM      9  N   UNL     1      -0.198   3.497   1.129  0.00  0.00    -0.273 N 
ATOM     10  H   UNL     1      -0.434   4.012   1.953  0.00  0.00    +0.173 HD
ATOM     11  C   UNL     1       0.144   4.158   0.008  0.00  0.00    +0.331 A 
ATOM     12  O   UNL     1       0.161   5.374   0.014  0.00  0.00    -0.246 OA
BRANCH   5  13
ATOM     13  N   UNL     1       0.795   1.449  -2.297  0.00  0.00    -0.343 N 
ATOM     14  H   UNL     1       0.828   0.480  -2.299  0.00  0.00    +0.144 HD
ATOM     15  H   UNL     1       0.998   1.943  -3.107  0.00  0.00    +0.144 HD
ENDBRANCH   5  13
BRANCH   4  16
ATOM     16  C   UNL     1       0.834   4.249  -2.322  0.00  0.00    +0.128 C 
BRANCH  16  17
ATOM     17  C   UNL     1       2.345   4.489  -2.332  0.00  0.00    +0.021 C 
BRANCH  17  19
ATOM     18  C   UNL     1       4.240   5.513  -3.598  0.00  0.00    +0.004 C 
ATOM     19  C   UNL     1       2.729   5.273  -3.588  0.00  0.00    -0.002 C 
ENDBRANCH  17  19
ENDBRANCH  16  17
ENDBRANCH   4  16
ENDBRANCH   1   6
BRANCH   1  20
ATOM     20  C   UNL     1       1.332  -0.735  -0.165  0.00  0.00    +0.110 C 
ATOM     21  C   UNL     1       1.883  -1.105   1.214  0.00  0.00    +0.025 C 
ENDBRANCH   1  20
BRANCH   2  22
ATOM     22  C   UNL     1      -1.097  -2.142   0.253  0.00  0.00    +0.020 C 
BRANCH  22  27
ATOM     23  C   UNL     1      -3.031  -2.221   1.720  0.00  0.00    -0.077 C 
ATOM     24  C   UNL     1      -3.982  -3.380   2.110  0.00  0.00    -0.020 C 
ATOM     25  C   UNL     1      -3.210  -4.613   1.571  0.00  0.00    -0.010 C 
ATOM     26  C   UNL     1      -2.558  -4.078   0.279  0.00  0.00    -0.011 C 
ATOM     27  N   UNL     1      -2.499  -2.610   0.401  0.00  0.00    +0.391 N 
ATOM     28  H   UNL     1      -3.075  -2.185  -0.336  0.00  0.00    -0.080 HD
BRANCH  26  29
ATOM     29  C   UNL     1      -1.174  -4.653   0.127  0.00  0.00    +0.066 A 
ATOM     30  N   UNL     1      -0.097  -4.357   0.799  0.00  0.00    -0.246 NA
ATOM     31  C   UNL     1       1.090  -4.954   0.566  0.00  0.00    +0.078 A 
ATOM     32  C   UNL     1       2.333  -4.747   1.206  0.00  0.00    +0.029 A 
ATOM     33  C   UNL     1       3.435  -5.447   0.825  0.00  0.00    +0.002 A 
ATOM     34  C   UNL     1       3.386  -6.384  -0.198  0.00  0.00    +0.001 A 
ATOM     35  C   UNL     1       2.189  -6.616  -0.849  0.00  0.00    +0.017 A 
ATOM     36  C   UNL     1       1.070  -5.914  -0.472  0.00  0.00    +0.039 A 
ATOM     37  S   UNL     1      -0.627  -5.865  -0.990  0.00  0.00    -0.074 S 
ENDBRANCH  26  29
ENDBRANCH  22  27
ENDBRANCH   2  22
TORSDOF 9
