REMARK  Name = ZINC40688824
REMARK  8 active torsions:
REMARK  status: ('A' for Active; 'I' for Inactive)
REMARK    1  A    between atoms: C_1  and  C_2
REMARK    2  A    between atoms: C_4  and  C_24
REMARK    3  A    between atoms: C_7  and  N_8
REMARK    4  A    between atoms: C_10  and  N_22
REMARK    5  A    between atoms: C_11  and  O_15
REMARK    6  A    between atoms: O_15  and  C_16
REMARK    7  A    between atoms: C_24  and  C_26
REMARK    8  A    between atoms: C_24  and  C_28
REMARK                            x       y       z     vdW  Elec       q    Type
REMARK                         _______ _______ _______ _____ _____    ______ ____
ROOT
ATOM      1  C   UNL     1      -1.516  -0.220   1.160  0.00  0.00    +0.045 C 
ATOM      2  C   UNL     1      -0.404  -1.170   0.798  0.00  0.00    -0.029 A 
ATOM      3  C   UNL     1      -0.229  -1.561  -0.515  0.00  0.00    +0.011 A 
ATOM      4  C   UNL     1       0.791  -2.433  -0.849  0.00  0.00    -0.008 A 
ATOM      5  C   UNL     1       1.641  -2.916   0.131  0.00  0.00    +0.047 A 
ATOM      6  C   UNL     1       1.471  -2.528   1.446  0.00  0.00    +0.043 A 
ATOM      7  C   UNL     1       0.450  -1.648   1.783  0.00  0.00    +0.037 A 
ATOM      8 CL   UNL     1       2.920  -4.010  -0.293  0.00  0.00    -0.083 Cl
ENDROOT
BRANCH   7   9
ATOM      9  N   UNL     1       0.279  -1.249   3.112  0.00  0.00    -0.298 N 
ATOM     10  C   UNL     1       0.675  -2.089   4.146  0.00  0.00    +0.151 A 
ATOM     11  C   UNL     1       0.627  -1.653   5.473  0.00  0.00    +0.128 A 
ATOM     12  C   UNL     1       1.036  -2.535   6.471  0.00  0.00    +0.241 A 
ATOM     13  N   UNL     1       1.453  -3.750   6.127  0.00  0.00    -0.200 NA
ATOM     14  C   UNL     1       1.484  -4.123   4.864  0.00  0.00    +0.227 A 
ATOM     15  N   UNL     1       1.102  -3.323   3.889  0.00  0.00    -0.218 NA
ATOM     16  H   UNL     1      -0.116  -0.386   3.312  0.00  0.00    +0.154 HD
BRANCH  11  17
ATOM     17  N   UNL     1       0.179  -0.361   5.791  0.00  0.00    -0.351 N 
ATOM     18  H   UNL     1      -0.102   0.242   5.086  0.00  0.00    +0.143 HD
ATOM     19  H   UNL     1       0.151  -0.072   6.716  0.00  0.00    +0.143 HD
ENDBRANCH  11  17
BRANCH  12  20
ATOM     20  O   UNL     1       1.008  -2.161   7.775  0.00  0.00    -0.472 OA
BRANCH  20  21
ATOM     21  C   UNL     1       1.443  -3.124   8.736  0.00  0.00    +0.175 C 
ATOM     22  C   UNL     1       0.249  -3.964   9.193  0.00  0.00    +0.044 C 
ATOM     23  C   UNL     1       0.715  -4.995  10.223  0.00  0.00    +0.004 C 
ATOM     24  C   UNL     1       1.323  -4.275  11.428  0.00  0.00    +0.000 C 
ATOM     25  C   UNL     1       2.518  -3.435  10.970  0.00  0.00    +0.004 C 
ATOM     26  C   UNL     1       2.051  -2.403   9.941  0.00  0.00    +0.044 C 
ENDBRANCH  20  21
ENDBRANCH  12  20
ENDBRANCH   7   9
BRANCH   4  27
ATOM     27  C   UNL     1       0.978  -2.858  -2.283  0.00  0.00    +0.153 C 
BRANCH  27  28
ATOM     28  C   UNL     1      -0.212  -3.669  -2.726  0.00  0.00    -0.026 A 
ATOM     29  C   UNL     1      -1.439  -3.055  -2.904  0.00  0.00    +0.006 A 
ATOM     30  C   UNL     1      -2.531  -3.799  -3.310  0.00  0.00    +0.020 A 
ATOM     31  C   UNL     1      -2.397  -5.157  -3.538  0.00  0.00    +0.041 A 
ATOM     32  C   UNL     1      -1.169  -5.770  -3.360  0.00  0.00    +0.020 A 
ATOM     33  C   UNL     1      -0.077  -5.024  -2.959  0.00  0.00    +0.006 A 
ATOM     34 CL   UNL     1      -3.768  -6.091  -4.048  0.00  0.00    -0.084 Cl
ENDBRANCH  27  28
BRANCH  27  35
ATOM     35  C   UNL     1       1.104  -1.665  -3.136  0.00  0.00    +0.075 C 
ATOM     36  N   UNL     1       1.201  -0.744  -3.794  0.00  0.00    -0.196 NA
ENDBRANCH  27  35
ENDBRANCH   4  27
TORSDOF 7
