REMARK  Name = ZINC39609821
REMARK  4 active torsions:
REMARK  status: ('A' for Active; 'I' for Inactive)
REMARK    1  A    between atoms: C_6  and  C_7
REMARK    2  A    between atoms: C_7  and  N_8
REMARK    3  A    between atoms: C_9  and  C_11
REMARK    4  A    between atoms: C_22  and  C_24
REMARK                            x       y       z     vdW  Elec       q    Type
REMARK                         _______ _______ _______ _____ _____    ______ ____
ROOT
ATOM      1  C   UNL     1      -3.313  -1.943  -3.024  0.00  0.00    +0.100 C 
ATOM      2  C   UNL     1      -2.224  -2.715  -3.802  0.00  0.00    +0.121 C 
ATOM      3  N   UNL     1      -2.622  -4.138  -3.691  0.00  0.00    -0.296 N 
ATOM      4  C   UNL     1      -4.099  -4.119  -3.825  0.00  0.00    +0.115 C 
ATOM      5  C   UNL     1      -4.543  -2.866  -3.044  0.00  0.00    -0.004 C 
ATOM      6  C   UNL     1      -5.705  -2.183  -3.759  0.00  0.00    -0.010 C 
ATOM      7  C   UNL     1      -6.933  -3.096  -3.715  0.00  0.00    -0.082 C 
ATOM      8  N   UNL     1      -7.287  -3.376  -2.318  0.00  0.00    +0.379 N 
ATOM      9  C   UNL     1      -6.201  -4.116  -1.664  0.00  0.00    -0.082 C 
ATOM     10  C   UNL     1      -4.942  -3.245  -1.621  0.00  0.00    -0.010 C 
ATOM     11  C   UNL     1      -1.823  -5.208  -3.509  0.00  0.00    +0.252 C 
ATOM     12  O   UNL     1      -2.305  -6.322  -3.438  0.00  0.00    -0.270 OA
ATOM     13  H   UNL     1      -7.441  -2.506  -1.831  0.00  0.00    -0.086 HD
ATOM     14  H   UNL     1      -8.132  -3.927  -2.291  0.00  0.00    -0.086 HD
ENDROOT
BRANCH  11  15
ATOM     15  C   UNL     1      -0.363  -5.027  -3.397  0.00  0.00    +0.108 A 
ATOM     16  C   UNL     1       0.227  -4.823  -2.145  0.00  0.00    +0.138 A 
ATOM     17  C   UNL     1       1.595  -4.655  -2.049  0.00  0.00    +0.041 A 
ATOM     18  C   UNL     1       2.382  -4.688  -3.186  0.00  0.00    +0.026 A 
ATOM     19  C   UNL     1       1.808  -4.889  -4.428  0.00  0.00    +0.077 A 
ATOM     20  C   UNL     1       0.440  -5.064  -4.542  0.00  0.00    +0.156 A 
ATOM     21  F   UNL     1      -0.119  -5.266  -5.755  0.00  0.00    -0.203 F 
ATOM     22 CL   UNL     1       2.806  -4.927  -5.848  0.00  0.00    -0.081 Cl
ATOM     23  F   UNL     1      -0.540  -4.790  -1.033  0.00  0.00    -0.205 F 
ENDBRANCH  11  15
BRANCH   1  25
ATOM     24  N   UNL     1      -3.326  -0.619  -0.935  0.00  0.00    -0.311 N 
ATOM     25  C   UNL     1      -2.867  -1.694  -1.606  0.00  0.00    +0.218 C 
ATOM     26  O   UNL     1      -2.096  -2.460  -1.069  0.00  0.00    -0.275 OA
ATOM     27  H   UNL     1      -3.943  -0.006  -1.364  0.00  0.00    +0.149 HD
BRANCH  24  28
ATOM     28  C   UNL     1      -2.893  -0.376   0.444  0.00  0.00    +0.139 C 
BRANCH  28  34
ATOM     29  C   UNL     1      -4.768   0.808   1.603  0.00  0.00    +0.007 A 
ATOM     30  C   UNL     1      -5.367   1.960   2.079  0.00  0.00    +0.022 A 
ATOM     31  C   UNL     1      -4.744   3.183   1.914  0.00  0.00    +0.059 A 
ATOM     32  C   UNL     1      -3.519   3.254   1.272  0.00  0.00    +0.060 A 
ATOM     33  C   UNL     1      -2.921   2.101   0.796  0.00  0.00    +0.026 A 
ATOM     34  C   UNL     1      -3.545   0.879   0.962  0.00  0.00    -0.029 A 
ATOM     35 CL   UNL     1      -2.735   4.789   1.063  0.00  0.00    -0.082 Cl
ATOM     36 CL   UNL     1      -5.496   4.629   2.512  0.00  0.00    -0.082 Cl
ENDBRANCH  28  34
ENDBRANCH  24  28
ENDBRANCH   1  25
TORSDOF 4
