REMARK  Name = ZINC04222248
REMARK  7 active torsions:
REMARK  status: ('A' for Active; 'I' for Inactive)
REMARK    1  A    between atoms: C_1  and  O_2
REMARK    2  A    between atoms: O_2  and  C_3
REMARK    3  A    between atoms: C_6  and  C_11
REMARK    4  A    between atoms: C_7  and  O_9
REMARK    5  A    between atoms: O_9  and  C_10
REMARK    6  A    between atoms: C_22  and  N_30
REMARK    7  A    between atoms: C_31  and  C_33
REMARK                            x       y       z     vdW  Elec       q    Type
REMARK                         _______ _______ _______ _____ _____    ______ ____
ROOT
ATOM      1  C   UNL     1       4.414   5.354   1.756  0.00  0.00    -0.014 A 
ATOM      2  C   UNL     1       5.205   5.437   0.608  0.00  0.00    +0.010 A 
ATOM      3  C   UNL     1       4.815   4.792  -0.541  0.00  0.00    +0.024 A 
ATOM      4  C   UNL     1       3.631   4.047  -0.583  0.00  0.00    +0.046 A 
ATOM      5  C   UNL     1       2.825   3.978   0.552  0.00  0.00    +0.059 A 
ATOM      6  C   UNL     1       3.232   4.631   1.726  0.00  0.00    +0.023 A 
ATOM      7  C   UNL     1       1.549   3.254   0.600  0.00  0.00    +0.249 C 
ATOM      8  O   UNL     1       0.628   3.756   1.216  0.00  0.00    -0.270 OA
ATOM      9  N   UNL     1       1.341   2.064   0.000  0.00  0.00    -0.286 N 
ATOM     10  C   UNL     1      -0.019   1.522   0.010  0.00  0.00    +0.111 C 
ATOM     11  C   UNL     1       0.002  -0.004   0.002  0.00  0.00    +0.041 C 
ATOM     12  C   UNL     1       0.868  -0.467  -1.176  0.00  0.00    +0.077 C 
ATOM     13  C   UNL     1       2.315  -0.074  -0.890  0.00  0.00    +0.054 C 
ATOM     14  C   UNL     1       2.462   1.405  -0.638  0.00  0.00    +0.164 C 
ATOM     15  C   UNL     1       2.870   2.160  -1.867  0.00  0.00    +0.238 C 
ATOM     16  O   UNL     1       2.761   1.637  -2.956  0.00  0.00    -0.273 OA
ATOM     17  N   UNL     1       3.352   3.400  -1.776  0.00  0.00    -0.283 N 
ATOM     18  H   UNL     1       3.518   3.881  -2.602  0.00  0.00    +0.155 HD
ENDROOT
BRANCH   1  22
ATOM     19  C   UNL     1       5.630   7.317   5.333  0.00  0.00    +0.124 A 
ATOM     20  C   UNL     1       4.341   7.494   4.846  0.00  0.00    +0.046 A 
ATOM     21  C   UNL     1       3.946   6.863   3.685  0.00  0.00    +0.016 A 
ATOM     22  C   UNL     1       4.838   6.038   3.002  0.00  0.00    +0.024 A 
ATOM     23  C   UNL     1       6.135   5.861   3.493  0.00  0.00    +0.131 A 
ATOM     24  C   UNL     1       6.525   6.502   4.657  0.00  0.00    +0.091 A 
BRANCH  19  26
ATOM     25  C   UNL     1       5.043   8.771   7.120  0.00  0.00    +0.277 C 
ATOM     26  O   UNL     1       6.014   7.946   6.474  0.00  0.00    -0.495 OA
ENDBRANCH  19  26
BRANCH  23  27
ATOM     27  O   UNL     1       7.011   5.062   2.830  0.00  0.00    -0.494 OA
ATOM     28  C   UNL     1       8.319   4.928   3.389  0.00  0.00    +0.277 C 
ENDBRANCH  23  27
ENDBRANCH   1  22
BRANCH  12  29
ATOM     29  N   UNL     1       0.770  -1.921  -1.320  0.00  0.00    -0.314 N 
ATOM     30  C   UNL     1      -0.245  -2.462  -2.024  0.00  0.00    +0.200 C 
ATOM     31  O   UNL     1      -1.076  -1.744  -2.539  0.00  0.00    -0.278 OA
ATOM     32  H   UNL     1       1.434  -2.495  -0.909  0.00  0.00    +0.149 HD
BRANCH  30  33
ATOM     33  C   UNL     1      -0.346  -3.958  -2.172  0.00  0.00    +0.027 C 
ATOM     34  C   UNL     1       0.649  -4.434  -3.264  0.00  0.00    +0.060 C 
ATOM     35  S   UNL     1      -0.250  -5.884  -3.959  0.00  0.00    -0.181 S 
ATOM     36  C   UNL     1      -1.789  -5.756  -2.950  0.00  0.00    -0.011 C 
ATOM     37  N   UNL     1      -1.729  -4.316  -2.546  0.00  0.00    +0.393 N 
ATOM     38  H   UNL     1      -2.033  -3.729  -3.332  0.00  0.00    -0.084 HD
ATOM     39  H   UNL     1      -2.350  -4.162  -1.744  0.00  0.00    -0.084 HD
ENDBRANCH  30  33
ENDBRANCH  12  29
TORSDOF 5
