REMARK  Name = ZINC02781795
REMARK  10 active torsions:
REMARK  status: ('A' for Active; 'I' for Inactive)
REMARK    1  A    between atoms: C_1  and  C_2
REMARK    2  A    between atoms: C_2  and  C_3
REMARK    3  A    between atoms: C_2  and  C_4
REMARK    4  A    between atoms: C_2  and  C_5
REMARK    5  A    between atoms: C_12  and  N_20
REMARK    6  A    between atoms: C_13  and  C_14
REMARK    7  A    between atoms: N_16  and  C_17
REMARK    8  A    between atoms: C_21  and  C_23
REMARK    9  A    between atoms: C_25  and  C_29
REMARK   10  A    between atoms: N_27  and  C_28
REMARK                            x       y       z     vdW  Elec       q    Type
REMARK                         _______ _______ _______ _____ _____    ______ ____
ROOT
ATOM      1  C   UNL     1       2.387  10.254  -0.810  0.00  0.00    -0.000 C 
ATOM      2  C   UNL     1       1.260  10.338   0.224  0.00  0.00    +0.009 C 
ATOM      3  C   UNL     1       0.241   9.224  -0.026  0.00  0.00    +0.037 C 
ATOM      4  C   UNL     1       0.979   7.892  -0.097  0.00  0.00    -0.023 A 
ATOM      5  C   UNL     1       2.311   7.845  -0.317  0.00  0.00    -0.004 A 
ATOM      6  S   UNL     1       2.710   6.120  -0.308  0.00  0.00    -0.077 S 
ATOM      7  C   UNL     1       1.130   5.468  -0.026  0.00  0.00    +0.085 A 
ATOM      8  C   UNL     1       0.332   6.601   0.062  0.00  0.00    +0.069 A 
ATOM      9  C   UNL     1       3.234   9.007  -0.517  0.00  0.00    +0.046 C 
ENDROOT
BRANCH   1  11
ATOM     10  C   UNL     1       4.399  11.409  -1.736  0.00  0.00    +0.011 C 
ATOM     11  C   UNL     1       3.264  11.504  -0.714  0.00  0.00    -0.035 C 
ATOM     12  C   UNL     1       2.418  12.744  -1.006  0.00  0.00    +0.011 C 
ATOM     13  C   UNL     1       3.853  11.607   0.694  0.00  0.00    +0.011 C 
ENDBRANCH   1  11
BRANCH   8  14
ATOM     14  C   UNL     1      -1.110   6.497   0.306  0.00  0.00    +0.247 C 
ATOM     15  O   UNL     1      -1.535   6.496   1.447  0.00  0.00    -0.270 OA
ATOM     16  N   UNL     1      -1.965   6.405  -0.732  0.00  0.00    -0.308 N 
ATOM     17  H   UNL     1      -1.626   6.406  -1.641  0.00  0.00    +0.149 HD
BRANCH  16  18
ATOM     18  C   UNL     1      -3.405   6.302  -0.487  0.00  0.00    +0.073 C 
ATOM     19  C   UNL     1      -4.191   5.280  -1.313  0.00  0.00    +0.024 C 
ATOM     20  C   UNL     1      -4.346   6.776  -1.597  0.00  0.00    +0.024 C 
ENDBRANCH  16  18
ENDBRANCH   8  14
BRANCH   7  21
ATOM     21  N   UNL     1       0.755   4.140   0.089  0.00  0.00    -0.274 N 
ATOM     22  C   UNL     1       1.680   3.166  -0.026  0.00  0.00    +0.268 C 
ATOM     23  O   UNL     1       2.856   3.455  -0.136  0.00  0.00    -0.268 OA
ATOM     24  H   UNL     1      -0.173   3.910   0.253  0.00  0.00    +0.156 HD
BRANCH  22  25
ATOM     25  C   UNL     1       1.266   1.756  -0.019  0.00  0.00    +0.142 A 
ATOM     26  C   UNL     1       1.152   0.927   1.086  0.00  0.00    +0.103 A 
ATOM     27  C   UNL     1       0.731  -0.306   0.580  0.00  0.00    +0.184 A 
ATOM     28  N   UNL     1       0.614  -0.190  -0.718  0.00  0.00    -0.165 NA
ATOM     29  N   UNL     1       0.918   0.997  -1.103  0.00  0.00    -0.260 N 
ATOM     30  C   UNL     1       0.900   1.465  -2.491  0.00  0.00    +0.173 C 
ATOM     31 CL   UNL     1       1.464   1.335   2.744  0.00  0.00    -0.079 Cl
BRANCH  27  32
ATOM     32  C   UNL     1       0.460  -1.550   1.387  0.00  0.00    +0.437 C 
ATOM     33  F   UNL     1       0.169  -2.611   0.525  0.00  0.00    -0.164 F 
ATOM     34  F   UNL     1       1.589  -1.865   2.151  0.00  0.00    -0.164 F 
ATOM     35  F   UNL     1      -0.629  -1.326   2.237  0.00  0.00    -0.164 F 
ENDBRANCH  27  32
ENDBRANCH  22  25
ENDBRANCH   7  21
TORSDOF 6
