REMARK  Name = ZINC22785146
REMARK  10 active torsions:
REMARK  status: ('A' for Active; 'I' for Inactive)
REMARK    1  A    between atoms: C_1  and  C_2
REMARK    2  A    between atoms: C_2  and  C_4
REMARK    3  A    between atoms: C_2  and  N_24
REMARK    4  A    between atoms: C_4  and  C_6
REMARK    5  A    between atoms: C_4  and  N_11
REMARK    6  A    between atoms: N_14  and  C_17
REMARK    7  A    between atoms: C_17  and  C_18
REMARK    8  A    between atoms: N_26  and  C_27
REMARK    9  A    between atoms: C_27  and  C_28
REMARK   10  A    between atoms: C_28  and  C_29
REMARK                            x       y       z     vdW  Elec       q    Type
REMARK                         _______ _______ _______ _____ _____    ______ ____
ROOT
ATOM      1  C   UNL     1      -1.433  -0.534   0.013  0.00  0.00    +0.115 C 
ENDROOT
BRANCH   1   2
ATOM      2  N   UNL     1      -2.178   0.048  -1.111  0.00  0.00    -0.297 NA
ATOM      3  C   UNL     1      -1.507  -0.231  -2.389  0.00  0.00    +0.066 C 
ATOM      4  C   UNL     1      -2.281   0.441  -3.526  0.00  0.00    -0.063 C 
ATOM      5  N   UNL     1      -3.656  -0.073  -3.553  0.00  0.00    +0.384 N 
ATOM      6  C   UNL     1      -4.321   0.235  -2.280  0.00  0.00    -0.063 C 
ATOM      7  C   UNL     1      -3.565  -0.439  -1.133  0.00  0.00    +0.066 C 
ATOM      8  H   UNL     1      -3.639  -1.073  -3.690  0.00  0.00    -0.081 HD
BRANCH   5   9
ATOM      9  C   UNL     1      -4.393   0.559  -4.655  0.00  0.00    -0.043 C 
BRANCH   9  10
ATOM     10  C   UNL     1      -5.765  -0.057  -4.761  0.00  0.00    -0.064 A 
ATOM     11  C   UNL     1      -5.965  -1.166  -5.562  0.00  0.00    +0.002 A 
ATOM     12  C   UNL     1      -7.223  -1.730  -5.659  0.00  0.00    +0.000 A 
ATOM     13  C   UNL     1      -8.280  -1.187  -4.955  0.00  0.00    +0.000 A 
ATOM     14  C   UNL     1      -8.080  -0.079  -4.152  0.00  0.00    +0.000 A 
ATOM     15  C   UNL     1      -6.821   0.483  -4.052  0.00  0.00    +0.002 A 
ENDBRANCH   9  10
ENDBRANCH   5   9
ENDBRANCH   1   2
BRANCH   1  16
ATOM     16  C   UNL     1      -2.100  -0.151   1.309  0.00  0.00    +0.009 A 
ATOM     17  C   UNL     1      -2.297  -0.900   2.421  0.00  0.00    +0.013 A 
ATOM     18  C   UNL     1      -2.940  -0.334   3.506  0.00  0.00    +0.008 A 
ATOM     19  C   UNL     1      -3.354   0.954   3.425  0.00  0.00    +0.045 A 
ATOM     20  S   UNL     1      -2.829   1.409   1.781  0.00  0.00    -0.100 S 
ENDBRANCH   1  16
BRANCH   1  22
ATOM     21  C   UNL     1      -0.019   1.526   0.010  0.00  0.00    +0.032 C 
ATOM     22  C   UNL     1       0.002  -0.004   0.002  0.00  0.00    +0.100 C 
BRANCH  22  23
ATOM     23  N   UNL     1       0.711  -0.489   1.189  0.00  0.00    -0.363 N 
ATOM     24  C   UNL     1       2.072  -0.601   1.173  0.00  0.00    +0.139 C 
ATOM     25  N   UNL     1       2.733  -1.054   2.280  0.00  0.00    -0.324 N 
ATOM     26  S   UNL     1       2.924  -0.187  -0.190  0.00  0.00    -0.016 SA
ATOM     27  H   UNL     1       2.235  -1.296   3.077  0.00  0.00    +0.148 HD
ATOM     28  H   UNL     1       0.213  -0.731   1.986  0.00  0.00    +0.162 HD
BRANCH  25  29
ATOM     29  C   UNL     1       4.193  -1.174   2.264  0.00  0.00    +0.108 C 
BRANCH  29  30
ATOM     30  C   UNL     1       4.677  -1.699   3.617  0.00  0.00    +0.054 C 
BRANCH  30  31
ATOM     31  C   UNL     1       6.179  -1.823   3.600  0.00  0.00    -0.046 A 
ATOM     32  C   UNL     1       6.771  -3.001   3.185  0.00  0.00    +0.004 A 
ATOM     33  C   UNL     1       8.148  -3.114   3.170  0.00  0.00    +0.000 A 
ATOM     34  C   UNL     1       8.934  -2.049   3.568  0.00  0.00    +0.000 A 
ATOM     35  C   UNL     1       8.342  -0.871   3.982  0.00  0.00    +0.000 A 
ATOM     36  C   UNL     1       6.964  -0.756   3.994  0.00  0.00    +0.004 A 
ENDBRANCH  30  31
ENDBRANCH  29  30
ENDBRANCH  25  29
ENDBRANCH  22  23
ENDBRANCH   1  22
TORSDOF 9
