REMARK  Name = ZINC38739642
REMARK  7 active torsions:
REMARK  status: ('A' for Active; 'I' for Inactive)
REMARK    1  A    between atoms: C_13  and  C_15
REMARK    2  A    between atoms: C_21  and  C_23
REMARK    3  A    between atoms: N_25  and  C_26
REMARK    4  A    between atoms: C_26  and  C_27
REMARK    5  A    between atoms: C_27  and  C_28
REMARK    6  A    between atoms: C_31  and  S_34
REMARK    7  A    between atoms: S_34  and  N_37
REMARK                            x       y       z     vdW  Elec       q    Type
REMARK                         _______ _______ _______ _____ _____    ______ ____
ROOT
ATOM      1  C   UNL     1      -0.032  -6.653   1.157  0.00  0.00    +0.087 C 
ATOM      2  C   UNL     1      -0.792  -6.391  -0.145  0.00  0.00    +0.013 C 
ATOM      3  C   UNL     1      -2.098  -7.188  -0.143  0.00  0.00    +0.001 C 
ATOM      4  C   UNL     1      -1.784  -8.681  -0.028  0.00  0.00    +0.001 C 
ATOM      5  C   UNL     1      -1.025  -8.943   1.274  0.00  0.00    +0.013 C 
ATOM      6  C   UNL     1       0.281  -8.146   1.272  0.00  0.00    +0.087 C 
ENDROOT
BRANCH   1  19
ATOM      7  C   UNL     1       0.010   1.359   2.441  0.00  0.00    +0.005 A 
ATOM      8  C   UNL     1       1.222   2.038   2.428  0.00  0.00    +0.018 A 
ATOM      9  C   UNL     1       2.400   1.320   2.402  0.00  0.00    +0.084 A 
ATOM     10  N   UNL     1       2.387   0.000   2.389  0.00  0.00    -0.350 N 
ATOM     11  C   UNL     1       1.254  -0.684   2.400  0.00  0.00    +0.099 A 
ATOM     12  C   UNL     1       0.029  -0.024   2.426  0.00  0.00    +0.042 A 
ATOM     13  N   UNL     1       1.287  -2.073   2.384  0.00  0.00    -0.314 N 
ATOM     14  C   UNL     1       0.048  -2.853   2.508  0.00  0.00    +0.125 C 
ATOM     15  C   UNL     1      -0.054  -3.805   1.310  0.00  0.00    +0.126 C 
ATOM     16  N   UNL     1       1.222  -4.521   1.170  0.00  0.00    -0.298 N 
ATOM     17  C   UNL     1       2.461  -3.741   1.046  0.00  0.00    +0.126 C 
ATOM     18  C   UNL     1       2.562  -2.789   2.238  0.00  0.00    +0.125 C 
ATOM     19  C   UNL     1       1.254  -5.868   1.155  0.00  0.00    +0.219 C 
ATOM     20  O   UNL     1       2.319  -6.449   1.141  0.00  0.00    -0.275 OA
ATOM     21  H   UNL     1       3.230  -0.480   2.370  0.00  0.00    +0.166 HD
ENDBRANCH   1  19
BRANCH   6  22
ATOM     22  C   UNL     1       1.129  -8.573   0.102  0.00  0.00    +0.217 C 
ATOM     23  O   UNL     1       1.450  -7.763  -0.742  0.00  0.00    -0.275 OA
ATOM     24  N   UNL     1       1.530  -9.856  -0.007  0.00  0.00    -0.315 N 
ATOM     25  H   UNL     1       1.272 -10.503   0.667  0.00  0.00    +0.149 HD
BRANCH  24  26
ATOM     26  C   UNL     1       2.353 -10.271  -1.145  0.00  0.00    +0.109 C 
BRANCH  26  27
ATOM     27  C   UNL     1       2.667 -11.764  -1.030  0.00  0.00    +0.054 C 
BRANCH  27  28
ATOM     28  C   UNL     1       3.515 -12.191  -2.200  0.00  0.00    -0.046 A 
ATOM     29  C   UNL     1       2.914 -12.638  -3.362  0.00  0.00    +0.005 A 
ATOM     30  C   UNL     1       3.691 -13.030  -4.436  0.00  0.00    +0.029 A 
ATOM     31  C   UNL     1       5.070 -12.975  -4.348  0.00  0.00    +0.105 A 
ATOM     32  C   UNL     1       5.670 -12.527  -3.186  0.00  0.00    +0.029 A 
ATOM     33  C   UNL     1       4.893 -12.131  -2.114  0.00  0.00    +0.005 A 
BRANCH  31  34
ATOM     34  S   UNL     1       6.061 -13.476  -5.716  0.00  0.00    +0.056 S 
ATOM     35  O   UNL     1       7.327 -13.845  -5.187  0.00  0.00    -0.153 OA
ATOM     36  O   UNL     1       5.268 -14.368  -6.487  0.00  0.00    -0.153 OA
BRANCH  34  37
ATOM     37  N   UNL     1       6.312 -12.135  -6.655  0.00  0.00    -0.204 NA
ATOM     38  H   UNL     1       5.931 -11.282  -6.394  0.00  0.00    +0.144 HD
ATOM     39  H   UNL     1       6.841 -12.203  -7.465  0.00  0.00    +0.144 HD
ENDBRANCH  34  37
ENDBRANCH  31  34
ENDBRANCH  27  28
ENDBRANCH  26  27
ENDBRANCH  24  26
ENDBRANCH   6  22
TORSDOF 7
