REMARK  Name = ZINC06135311
REMARK  10 active torsions:
REMARK  status: ('A' for Active; 'I' for Inactive)
REMARK    1  A    between atoms: C_1  and  C_2
REMARK    2  A    between atoms: C_2  and  C_3
REMARK    3  A    between atoms: C_10  and  C_15
REMARK    4  A    between atoms: C_15  and  C_17
REMARK    5  A    between atoms: C_15  and  N_72
REMARK    6  A    between atoms: N_21  and  C_22
REMARK    7  A    between atoms: C_28  and  C_29
REMARK    8  A    between atoms: C_28  and  N_72
REMARK    9  A    between atoms: C_35  and  C_36
REMARK   10  A    between atoms: C_35  and  N_72
REMARK                            x       y       z     vdW  Elec       q    Type
REMARK                         _______ _______ _______ _____ _____    ______ ____
ROOT
ATOM      1  C   UNL     1      -0.442  -0.113  -0.383  0.00  0.00    +0.040 C 
ENDROOT
BRANCH   1   9
ATOM      2  C   UNL     1      -5.941  -2.338  -2.144  0.00  0.00    -0.047 A 
ATOM      3  C   UNL     1      -6.626  -1.994  -0.986  0.00  0.00    +0.005 A 
ATOM      4  C   UNL     1      -5.979  -1.359   0.052  0.00  0.00    +0.026 A 
ATOM      5  C   UNL     1      -4.626  -1.056  -0.060  0.00  0.00    +0.049 A 
ATOM      6  C   UNL     1      -3.935  -1.406  -1.236  0.00  0.00    -0.001 A 
ATOM      7  C   UNL     1      -4.612  -2.051  -2.276  0.00  0.00    +0.013 A 
ATOM      8  C   UNL     1      -2.510  -1.084  -1.344  0.00  0.00    +0.017 A 
ATOM      9  C   UNL     1      -1.907  -0.458  -0.304  0.00  0.00    +0.011 A 
ATOM     10  C   UNL     1      -2.644  -0.135   0.856  0.00  0.00    +0.251 A 
ATOM     11  O   UNL     1      -2.081   0.423   1.782  0.00  0.00    -0.268 OA
ATOM     12  N   UNL     1      -3.953  -0.421   0.962  0.00  0.00    -0.322 N 
ATOM     13  H   UNL     1      -4.447  -0.171   1.795  0.00  0.00    +0.169 HD
BRANCH   2  15
ATOM     14  C   UNL     1      -6.583  -4.547  -3.068  0.00  0.00    +0.009 C 
ATOM     15  C   UNL     1      -6.670  -3.032  -3.265  0.00  0.00    +0.032 C 
ENDBRANCH   2  15
ENDBRANCH   1   9
BRANCH   1  16
ATOM     16  C   UNL     1       0.316  -0.899   0.655  0.00  0.00    +0.143 A 
ATOM     17  N   UNL     1       0.499  -0.567   1.910  0.00  0.00    -0.115 NA
ATOM     18  N   UNL     1       1.196  -1.495   2.469  0.00  0.00    -0.023 NA
ATOM     19  N   UNL     1       1.462  -2.411   1.604  0.00  0.00    -0.044 NA
ATOM     20  N   UNL     1       0.932  -2.083   0.475  0.00  0.00    -0.227 N 
BRANCH  20  21
ATOM     21  C   UNL     1       0.993  -2.851  -0.771  0.00  0.00    +0.111 C 
ATOM     22  C   UNL     1       0.203  -4.152  -0.607  0.00  0.00    +0.027 C 
ATOM     23  C   UNL     1       0.266  -4.954  -1.907  0.00  0.00    +0.002 C 
ATOM     24  C   UNL     1       1.724  -5.281  -2.235  0.00  0.00    +0.000 C 
ATOM     25  C   UNL     1       2.514  -3.981  -2.399  0.00  0.00    +0.002 C 
ATOM     26  C   UNL     1       2.451  -3.178  -1.098  0.00  0.00    +0.027 C 
ENDBRANCH  20  21
ENDBRANCH   1  16
BRANCH   1  27
ATOM     27  N   UNL     1      -0.265   1.329  -0.106  0.00  0.00    +0.397 N 
ATOM     28  H   UNL     1      -0.310   1.482   0.908  0.00  0.00    -0.079 HD
BRANCH  27  29
ATOM     29  C   UNL     1       1.052   1.780  -0.602  0.00  0.00    -0.039 C 
BRANCH  29  30
ATOM     30  C   UNL     1       2.101   1.416   0.417  0.00  0.00    -0.046 A 
ATOM     31  C   UNL     1       2.302   2.214   1.534  0.00  0.00    +0.005 A 
ATOM     32  C   UNL     1       3.275   1.837   2.447  0.00  0.00    +0.020 A 
ATOM     33  C   UNL     1       4.013   0.693   2.211  0.00  0.00    +0.111 A 
ATOM     34  N   UNL     1       3.797  -0.039   1.136  0.00  0.00    -0.263 NA
ATOM     35  C   UNL     1       2.878   0.286   0.248  0.00  0.00    +0.112 A 
ENDBRANCH  29  30
ENDBRANCH  27  29
BRANCH  27  36
ATOM     36  C   UNL     1      -1.343   2.104  -0.757  0.00  0.00    -0.001 C 
BRANCH  36  37
ATOM     37  C   UNL     1      -1.253   3.538  -0.302  0.00  0.00    +0.089 A 
ATOM     38  C   UNL     1      -0.662   4.541  -0.976  0.00  0.00    +0.042 A 
ATOM     39  C   UNL     1      -0.811   5.706  -0.189  0.00  0.00    +0.041 A 
ATOM     40  C   UNL     1      -1.484   5.345   0.919  0.00  0.00    +0.195 A 
ATOM     41  O   UNL     1      -1.754   4.032   0.842  0.00  0.00    -0.470 OA
ENDBRANCH  36  37
ENDBRANCH  27  36
ENDBRANCH   1  27
TORSDOF 9
