REMARK  Name = ZINC09234352
REMARK  11 active torsions:
REMARK  status: ('A' for Active; 'I' for Inactive)
REMARK    1  A    between atoms: C_1  and  C_2
REMARK    2  A    between atoms: C_2  and  C_3
REMARK    3  A    between atoms: C_3  and  C_4
REMARK    4  A    between atoms: C_4  and  C_29
REMARK    5  A    between atoms: N_5  and  N_6
REMARK    6  A    between atoms: C_7  and  C_9
REMARK    7  A    between atoms: C_10  and  C_20
REMARK    8  A    between atoms: C_20  and  S_21
REMARK    9  A    between atoms: S_21  and  C_22
REMARK   10  A    between atoms: C_25  and  C_28
REMARK   11  A    between atoms: C_32  and  O_35
REMARK                            x       y       z     vdW  Elec       q    Type
REMARK                         _______ _______ _______ _____ _____    ______ ____
ROOT
ATOM      1  C   UNL     1      -1.369  -1.951   4.787  0.00  0.00    +0.173 A 
ATOM      2  C   UNL     1      -1.344  -2.518   6.029  0.00  0.00    +0.089 A 
ATOM      3  N   UNL     1      -1.351  -1.504   6.922  0.00  0.00    -0.191 N 
ATOM      4  N   UNL     1      -1.381  -0.314   6.181  0.00  0.00    -0.058 NA
ATOM      5  N   UNL     1      -1.385  -0.614   4.929  0.00  0.00    -0.124 NA
ATOM      6  C   UNL     1      -1.333  -1.618   8.316  0.00  0.00    +0.240 A 
ATOM      7  C   UNL     1      -1.348  -0.504   9.269  0.00  0.00    +0.206 A 
ATOM      8  N   UNL     1      -1.324  -0.997  10.477  0.00  0.00    -0.032 NA
ATOM      9  O   UNL     1      -1.294  -2.410  10.368  0.00  0.00    -0.239 OA
ATOM     10  N   UNL     1      -1.307  -2.734   8.989  0.00  0.00    -0.027 NA
ATOM     11  N   UNL     1      -1.381   0.846   8.942  0.00  0.00    -0.337 N 
ATOM     12  H   UNL     1      -1.397   1.119   8.011  0.00  0.00    +0.144 HD
ATOM     13  H   UNL     1      -1.388   1.516   9.644  0.00  0.00    +0.144 HD
ENDROOT
BRANCH   1  15
ATOM     14  N   UNL     1      -1.391  -2.002   2.342  0.00  0.00    -0.201 N 
ATOM     15  C   UNL     1      -1.371  -2.682   3.506  0.00  0.00    +0.285 C 
ATOM     16  O   UNL     1      -1.355  -3.898   3.499  0.00  0.00    -0.267 OA
ATOM     17  H   UNL     1      -1.404  -1.032   2.348  0.00  0.00    +0.178 HD
BRANCH  14  19
ATOM     18  C   UNL     1      -1.413  -2.041   0.005  0.00  0.00    +0.066 C 
ATOM     19  N   UNL     1      -1.393  -2.695   1.125  0.00  0.00    -0.184 NA
BRANCH  18  20
ATOM     20  C   UNL     1      -1.415  -2.771  -1.276  0.00  0.00    -0.002 A 
ATOM     21  C   UNL     1      -1.430  -2.068  -2.484  0.00  0.00    +0.013 A 
ATOM     22  C   UNL     1      -1.432  -2.754  -3.678  0.00  0.00    +0.046 A 
ATOM     23  C   UNL     1      -1.419  -4.143  -3.683  0.00  0.00    +0.117 A 
ATOM     24  C   UNL     1      -1.404  -4.846  -2.486  0.00  0.00    +0.046 A 
ATOM     25  C   UNL     1      -1.396  -4.168  -1.286  0.00  0.00    +0.013 A 
BRANCH  23  26
ATOM     26  O   UNL     1      -1.422  -4.816  -4.864  0.00  0.00    -0.507 OA
ATOM     27  H   UNL     1      -0.539  -5.003  -5.212  0.00  0.00    +0.292 HD
ENDBRANCH  23  26
ENDBRANCH  18  20
BRANCH  18  28
ATOM     28  C   UNL     1      -1.433  -0.534   0.013  0.00  0.00    +0.057 C 
BRANCH  28  30
ATOM     29  C   UNL     1      -0.019   1.526   0.010  0.00  0.00    +0.004 C 
ATOM     30  C   UNL     1       0.002  -0.004   0.002  0.00  0.00    +0.003 C 
ENDBRANCH  28  30
ENDBRANCH  18  28
ENDBRANCH  14  19
ENDBRANCH   1  15
BRANCH   2  31
ATOM     31  C   UNL     1      -1.314  -3.992   6.344  0.00  0.00    +0.132 C 
BRANCH  31  32
ATOM     32  S   UNL     1      -3.011  -4.614   6.490  0.00  0.00    -0.119 S 
BRANCH  32  33
ATOM     33  C   UNL     1      -2.808  -6.326   6.854  0.00  0.00    +0.008 A 
ATOM     34  C   UNL     1      -1.534  -6.868   6.966  0.00  0.00    +0.015 A 
ATOM     35  C   UNL     1      -1.378  -8.210   7.252  0.00  0.00    +0.004 A 
ATOM     36  C   UNL     1      -2.490  -9.014   7.426  0.00  0.00    -0.050 A 
ATOM     37  C   UNL     1      -3.760  -8.479   7.315  0.00  0.00    +0.004 A 
ATOM     38  C   UNL     1      -3.923  -7.136   7.036  0.00  0.00    +0.015 A 
ATOM     39  C   UNL     1      -2.316 -10.479   7.738  0.00  0.00    +0.044 C 
ENDBRANCH  32  33
ENDBRANCH  31  32
ENDBRANCH   2  31
TORSDOF 9
