REMARK  Name = ZINC08789438
REMARK  5 active torsions:
REMARK  status: ('A' for Active; 'I' for Inactive)
REMARK    1  A    between atoms: C_1  and  C_2
REMARK    2  A    between atoms: C_17  and  C_19
REMARK    3  A    between atoms: C_19  and  C_20
REMARK    4  A    between atoms: N_25  and  C_28
REMARK    5  A    between atoms: C_31  and  C_34
REMARK                            x       y       z     vdW  Elec       q    Type
REMARK                         _______ _______ _______ _____ _____    ______ ____
ROOT
ATOM      1  C   UNL     1      -4.170   5.438  -0.239  0.00  0.00    +0.044 C 
ATOM      2  C   UNL     1      -3.196   4.291  -0.331  0.00  0.00    -0.049 A 
ATOM      3  C   UNL     1      -1.837   4.525  -0.212  0.00  0.00    +0.008 A 
ATOM      4  C   UNL     1      -0.947   3.477  -0.295  0.00  0.00    -0.026 A 
ATOM      5  C   UNL     1      -1.400   2.177  -0.503  0.00  0.00    +0.054 A 
ATOM      6  C   UNL     1      -2.770   1.950  -0.618  0.00  0.00    +0.063 A 
ATOM      7  C   UNL     1      -3.658   3.004  -0.534  0.00  0.00    +0.025 A 
ATOM      8 CL   UNL     1      -3.362   0.338  -0.873  0.00  0.00    -0.082 Cl
ATOM      9  N   UNL     1      -0.321   1.291  -0.545  0.00  0.00    -0.285 N 
ATOM     10  C   UNL     1       0.859   1.920  -0.385  0.00  0.00    +0.211 C 
ATOM     11  O   UNL     1       1.958   1.407  -0.382  0.00  0.00    -0.277 OA
ATOM     12  C   UNL     1       0.550   3.382  -0.212  0.00  0.00    +0.050 C 
ATOM     13  C   UNL     1       1.075   3.910   1.128  0.00  0.00    +0.088 C 
ATOM     14  C   UNL     1       1.551   5.358   0.820  0.00  0.00    +0.074 C 
ATOM     15  C   UNL     1       1.237   5.567  -0.677  0.00  0.00    -0.049 C 
ATOM     16  C   UNL     1       0.619   6.214   1.646  0.00  0.00    +0.228 C 
ATOM     17  O   UNL     1       0.645   7.425   1.703  0.00  0.00    -0.275 OA
ATOM     18  N   UNL     1      -0.240   5.428   2.306  0.00  0.00    -0.210 N 
ATOM     19  C   UNL     1      -0.076   4.118   2.085  0.00  0.00    +0.229 C 
ATOM     20  O   UNL     1      -0.747   3.236   2.575  0.00  0.00    -0.275 OA
ATOM     21  H   UNL     1      -0.411   0.335  -0.678  0.00  0.00    +0.155 HD
ATOM     22  N   UNL     1       1.190   4.207  -1.221  0.00  0.00    +0.394 N 
ATOM     23  H   UNL     1       0.645   4.192  -2.091  0.00  0.00    -0.083 HD
ATOM     24  H   UNL     1       2.141   3.867  -1.407  0.00  0.00    -0.083 HD
ENDROOT
BRANCH  18  25
ATOM     25  C   UNL     1      -1.227   5.933   3.157  0.00  0.00    +0.044 A 
ATOM     26  C   UNL     1      -2.258   6.710   2.640  0.00  0.00    +0.025 A 
ATOM     27  C   UNL     1      -3.235   7.205   3.474  0.00  0.00    +0.015 A 
ATOM     28  C   UNL     1      -3.183   6.936   4.844  0.00  0.00    +0.037 A 
ATOM     29  C   UNL     1      -2.142   6.160   5.362  0.00  0.00    +0.015 A 
ATOM     30  C   UNL     1      -1.172   5.663   4.520  0.00  0.00    +0.025 A 
BRANCH  28  31
ATOM     31  C   UNL     1      -4.225   7.471   5.744  0.00  0.00    +0.242 C 
ATOM     32  O   UNL     1      -4.178   7.237   6.936  0.00  0.00    -0.270 OA
ATOM     33  N   UNL     1      -5.227   8.220   5.243  0.00  0.00    -0.325 N 
ATOM     34  H   UNL     1      -5.265   8.407   4.292  0.00  0.00    +0.145 HD
ATOM     35  H   UNL     1      -5.912   8.571   5.833  0.00  0.00    +0.145 HD
ENDBRANCH  28  31
ENDBRANCH  18  25
BRANCH  15  36
ATOM     36  C   UNL     1       2.338   6.396  -1.341  0.00  0.00    +0.080 C 
BRANCH  36  37
ATOM     37  C   UNL     1       1.989   6.627  -2.789  0.00  0.00    +0.209 C 
ATOM     38  O   UNL     1       0.961   6.171  -3.245  0.00  0.00    -0.276 OA
ATOM     39  N   UNL     1       2.819   7.338  -3.578  0.00  0.00    -0.329 N 
ATOM     40  H   UNL     1       3.641   7.702  -3.213  0.00  0.00    +0.145 HD
ATOM     41  H   UNL     1       2.594   7.486  -4.510  0.00  0.00    +0.145 HD
ENDBRANCH  36  37
ENDBRANCH  15  36
TORSDOF 4
