REMARK  Name = ZINC09504293
REMARK  12 active torsions:
REMARK  status: ('A' for Active; 'I' for Inactive)
REMARK    1  A    between atoms: C_1  and  C_2
REMARK    2  A    between atoms: C_5  and  C_9
REMARK    3  A    between atoms: C_6  and  C_8
REMARK    4  A    between atoms: C_9  and  C_10
REMARK    5  A    between atoms: N_12  and  C_13
REMARK    6  A    between atoms: C_14  and  C_25
REMARK    7  A    between atoms: C_18  and  C_23
REMARK    8  A    between atoms: C_18  and  C_24
REMARK    9  A    between atoms: C_19  and  C_21
REMARK   10  A    between atoms: C_19  and  C_22
REMARK   11  A    between atoms: C_25  and  O_27
REMARK   12  A    between atoms: O_27  and  C_28
REMARK                            x       y       z     vdW  Elec       q    Type
REMARK                         _______ _______ _______ _____ _____    ______ ____
ROOT
ATOM      1  C   UNL     1       4.643   0.140   2.921  0.00  0.00    +0.086 A 
ATOM      2  C   UNL     1       5.816  -0.471   3.354  0.00  0.00    +0.091 A 
ATOM      3  C   UNL     1       6.077  -0.472   4.778  0.00  0.00    -0.024 A 
ATOM      4  C   UNL     1       5.135   0.126   5.544  0.00  0.00    -0.016 A 
ATOM      5  S   UNL     1       3.917   0.692   4.394  0.00  0.00    -0.079 S 
ATOM      6  C   UNL     1       5.151   0.253   7.033  0.00  0.00    -0.041 C 
ATOM      7  C   UNL     1       7.580  -0.234   6.715  0.00  0.00    -0.069 C 
ATOM      8  C   UNL     1       7.297  -1.071   5.463  0.00  0.00    +0.024 C 
ATOM      9  C   UNL     1       8.034   1.167   6.293  0.00  0.00    -0.010 C 
ATOM     10  C   UNL     1       8.744  -0.898   7.475  0.00  0.00    -0.010 C 
ATOM     11  C   UNL     1       4.846   1.707   7.421  0.00  0.00    -0.005 C 
ATOM     12  C   UNL     1       4.032  -0.636   7.608  0.00  0.00    -0.005 C 
ATOM     13  N   UNL     1       6.434  -0.179   7.659  0.00  0.00    +0.389 N 
ATOM     14  H   UNL     1       6.299  -1.115   8.057  0.00  0.00    -0.084 HD
ATOM     15  H   UNL     1       6.665   0.483   8.409  0.00  0.00    -0.084 HD
ENDROOT
BRANCH   1  18
ATOM     16  C   UNL     1       3.003   0.903   1.394  0.00  0.00    +0.222 C 
ATOM     17  O   UNL     1       2.363   1.353   2.321  0.00  0.00    -0.275 OA
ATOM     18  N   UNL     1       4.172   0.273   1.624  0.00  0.00    -0.279 N 
ATOM     19  H   UNL     1       4.684  -0.086   0.883  0.00  0.00    +0.155 HD
BRANCH  16  20
ATOM     20  C   UNL     1       2.490   1.048  -0.016  0.00  0.00    +0.131 C 
BRANCH  20  25
ATOM     21  C   UNL     1      -2.553   3.869   0.046  0.00  0.00    +0.044 C 
ATOM     22  C   UNL     1      -1.238   3.133   0.030  0.00  0.00    -0.050 A 
ATOM     23  C   UNL     1      -1.219   1.750   0.017  0.00  0.00    +0.003 A 
ATOM     24  C   UNL     1      -0.013   1.076   0.008  0.00  0.00    +0.004 A 
ATOM     25  C   UNL     1       1.175   1.783   0.000  0.00  0.00    -0.036 A 
ATOM     26  C   UNL     1       1.157   3.165   0.008  0.00  0.00    -0.047 A 
ATOM     27  C   UNL     1      -0.050   3.840   0.023  0.00  0.00    +0.007 A 
ATOM     28  C   UNL     1       2.451   3.937  -0.001  0.00  0.00    +0.044 C 
ENDBRANCH  20  25
ENDBRANCH  16  20
ENDBRANCH   1  18
BRANCH   2  29
ATOM     29  C   UNL     1       6.739  -1.086   2.398  0.00  0.00    +0.342 C 
ATOM     30  O   UNL     1       7.635  -0.426   1.906  0.00  0.00    -0.245 OA
BRANCH  29  31
ATOM     31  O   UNL     1       6.596  -2.385   2.062  0.00  0.00    -0.464 OA
ATOM     32  C   UNL     1       7.546  -2.928   1.109  0.00  0.00    +0.280 C 
ENDBRANCH  29  31
ENDBRANCH   2  29
TORSDOF 5
