REMARK  Name = ZINC38649750
REMARK  15 active torsions:
REMARK  status: ('A' for Active; 'I' for Inactive)
REMARK    1  A    between atoms: C_1  and  C_2
REMARK    2  A    between atoms: C_2  and  C_3
REMARK    3  A    between atoms: C_2  and  C_4
REMARK    4  A    between atoms: C_2  and  C_5
REMARK    5  A    between atoms: C_8  and  C_11
REMARK    6  A    between atoms: C_12  and  C_13
REMARK    7  A    between atoms: C_13  and  O_15
REMARK    8  A    between atoms: O_15  and  C_16
REMARK    9  A    between atoms: C_23  and  N_39
REMARK   10  A    between atoms: C_24  and  C_37
REMARK   11  A    between atoms: C_25  and  C_27
REMARK   12  A    between atoms: C_30  and  C_33
REMARK   13  A    between atoms: C_33  and  C_34
REMARK   14  A    between atoms: C_33  and  C_35
REMARK   15  A    between atoms: C_33  and  C_36
REMARK                            x       y       z     vdW  Elec       q    Type
REMARK                         _______ _______ _______ _____ _____    ______ ____
ROOT
ATOM      1  C   UNL     1       6.640  -2.093  -7.457  0.00  0.00    +0.135 A 
ATOM      2  C   UNL     1       6.000  -2.857  -8.423  0.00  0.00    +0.047 A 
ATOM      3  C   UNL     1       6.702  -3.305  -9.525  0.00  0.00    +0.012 A 
ATOM      4  C   UNL     1       8.042  -2.995  -9.672  0.00  0.00    +0.008 A 
ATOM      5  C   UNL     1       8.686  -2.232  -8.710  0.00  0.00    +0.138 A 
ATOM      6  C   UNL     1       7.981  -1.776  -7.604  0.00  0.00    +0.093 A 
ATOM      7  O   UNL     1       9.999  -1.917  -8.837  0.00  0.00    -0.441 OA
ATOM      8  C   UNL     1      10.783  -2.633  -9.660  0.00  0.00    +0.199 C 
ATOM      9  C   UNL     1      10.271  -3.401 -10.650  0.00  0.00    +0.098 C 
ATOM     10  C   UNL     1       8.789  -3.492 -10.881  0.00  0.00    +0.098 C 
ENDROOT
BRANCH  10  11
ATOM     11  C   UNL     1       8.418  -2.654 -12.077  0.00  0.00    -0.035 A 
ATOM     12  C   UNL     1       8.665  -1.294 -12.071  0.00  0.00    +0.005 A 
ATOM     13  C   UNL     1       8.325  -0.524 -13.168  0.00  0.00    +0.004 A 
ATOM     14  C   UNL     1       7.737  -1.115 -14.271  0.00  0.00    -0.042 A 
ATOM     15  C   UNL     1       7.490  -2.475 -14.277  0.00  0.00    +0.004 A 
ATOM     16  C   UNL     1       7.835  -3.245 -13.182  0.00  0.00    +0.005 A 
BRANCH  14  17
ATOM     17  C   UNL     1       7.365  -0.276 -15.466  0.00  0.00    -0.013 C 
ATOM     18  C   UNL     1       8.620   0.393 -16.030  0.00  0.00    +0.015 C 
ATOM     19  C   UNL     1       6.737  -1.168 -16.539  0.00  0.00    +0.015 C 
ATOM     20  C   UNL     1       6.361   0.798 -15.043  0.00  0.00    +0.015 C 
ENDBRANCH  14  17
ENDBRANCH  10  11
BRANCH   8  21
ATOM     21  N   UNL     1      12.145  -2.583  -9.492  0.00  0.00    -0.328 N 
ATOM     22  H   UNL     1      12.527  -2.037  -8.787  0.00  0.00    +0.145 HD
ATOM     23  H   UNL     1      12.725  -3.095 -10.078  0.00  0.00    +0.145 HD
ENDBRANCH   8  21
BRANCH   9  24
ATOM     24  C   UNL     1      11.159  -4.142 -11.494  0.00  0.00    +0.101 C 
ATOM     25  N   UNL     1      11.864  -4.730 -12.164  0.00  0.00    -0.191 NA
ENDBRANCH   9  24
BRANCH   1  26
ATOM     26  O   UNL     1       5.952  -1.651  -6.372  0.00  0.00    -0.423 OA
BRANCH  26  27
ATOM     27  C   UNL     1       5.699  -2.531  -5.381  0.00  0.00    +0.337 C 
ATOM     28  O   UNL     1       6.005  -3.701  -5.514  0.00  0.00    -0.245 OA
BRANCH  27  30
ATOM     29  C   UNL     1       4.804  -2.959  -3.157  0.00  0.00    +0.015 C 
ATOM     30  C   UNL     1       5.057  -2.079  -4.148  0.00  0.00    +0.092 C 
BRANCH  29  34
ATOM     31  C   UNL     1       2.943  -1.647   0.422  0.00  0.00    -0.042 A 
ATOM     32  C   UNL     1       3.289  -2.979   0.275  0.00  0.00    +0.005 A 
ATOM     33  C   UNL     1       3.895  -3.413  -0.886  0.00  0.00    +0.008 A 
ATOM     34  C   UNL     1       4.158  -2.504  -1.915  0.00  0.00    -0.025 A 
ATOM     35  C   UNL     1       3.805  -1.160  -1.759  0.00  0.00    +0.008 A 
ATOM     36  C   UNL     1       3.196  -0.742  -0.595  0.00  0.00    +0.005 A 
BRANCH  31  38
ATOM     37  C   UNL     1       0.908  -0.594   1.368  0.00  0.00    +0.015 C 
ATOM     38  C   UNL     1       2.283  -1.181   1.694  0.00  0.00    -0.013 C 
ATOM     39  C   UNL     1       3.151  -0.109   2.356  0.00  0.00    +0.015 C 
ATOM     40  C   UNL     1       2.119  -2.366   2.647  0.00  0.00    +0.015 C 
ENDBRANCH  31  38
ENDBRANCH  29  34
ENDBRANCH  27  30
ENDBRANCH  26  27
ENDBRANCH   1  26
TORSDOF 9
