REMARK  Name = ZINC35781279
REMARK  9 active torsions:
REMARK  status: ('A' for Active; 'I' for Inactive)
REMARK    1  A    between atoms: C_2  and  C_3
REMARK    2  A    between atoms: C_3  and  C_4
REMARK    3  A    between atoms: C_4  and  C_5
REMARK    4  A    between atoms: C_5  and  C_7
REMARK    5  A    between atoms: C_5  and  O_32
REMARK    6  A    between atoms: C_7  and  N_8
REMARK    7  A    between atoms: N_8  and  C_9
REMARK    8  A    between atoms: N_8  and  C_26
REMARK    9  A    between atoms: C_9  and  C_10
REMARK                            x       y       z     vdW  Elec       q    Type
REMARK                         _______ _______ _______ _____ _____    ______ ____
ROOT
ATOM      1  C   UNL     1       4.024  -5.319   3.236  0.00  0.00    -0.003 C 
ENDROOT
BRANCH   1   2
ATOM      2  C   UNL     1       5.422  -5.873   3.332  0.00  0.00    +0.094 A 
ATOM      3  N   UNL     1       5.681  -6.883   4.202  0.00  0.00    -0.312 N 
ATOM      4  H   UNL     1       4.962  -7.234   4.749  0.00  0.00    +0.170 HD
ATOM      5  C   UNL     1       6.915  -7.407   4.319  0.00  0.00    +0.260 A 
ATOM      6  O   UNL     1       7.132  -8.313   5.104  0.00  0.00    -0.267 OA
ATOM      7  C   UNL     1       7.971  -6.880   3.505  0.00  0.00    +0.075 A 
ATOM      8  C   UNL     1       9.377  -7.293   3.466  0.00  0.00    -0.023 A 
ATOM      9  C   UNL     1      10.179  -6.630   2.607  0.00  0.00    -0.004 A 
ATOM     10  S   UNL     1       9.126  -5.448   1.807  0.00  0.00    -0.073 S 
ATOM     11  C   UNL     1       7.607  -5.840   2.637  0.00  0.00    +0.116 A 
ATOM     12  N   UNL     1       6.362  -5.376   2.572  0.00  0.00    -0.229 NA
ATOM     13  C   UNL     1      11.645  -6.831   2.380  0.00  0.00    +0.043 C 
ATOM     14  C   UNL     1      11.927  -8.326   2.179  0.00  0.00    +0.005 C 
ATOM     15  C   UNL     1      12.204  -8.951   3.542  0.00  0.00    +0.001 C 
ATOM     16  C   UNL     1      11.378  -8.248   4.617  0.00  0.00    +0.005 C 
ATOM     17  C   UNL     1       9.889  -8.426   4.351  0.00  0.00    +0.037 C 
ENDBRANCH   1   2
BRANCH   1  18
ATOM     18  N   UNL     1       3.946  -4.376   2.112  0.00  0.00    +0.388 N 
ATOM     19  H   UNL     1       4.797  -3.835   2.068  0.00  0.00    -0.081 HD
BRANCH  18  20
ATOM     20  C   UNL     1       3.774  -5.122   0.859  0.00  0.00    -0.068 C 
ATOM     21  C   UNL     1       2.512  -5.982   0.946  0.00  0.00    -0.015 C 
ATOM     22  C   UNL     1       2.333  -6.759  -0.360  0.00  0.00    -0.002 C 
ATOM     23  C   UNL     1       3.548  -7.659  -0.589  0.00  0.00    -0.000 C 
ATOM     24  C   UNL     1       4.811  -6.799  -0.676  0.00  0.00    -0.002 C 
ATOM     25  C   UNL     1       4.990  -6.022   0.630  0.00  0.00    -0.015 C 
ENDBRANCH  18  20
BRANCH  18  26
ATOM     26  C   UNL     1       2.803  -3.475   2.307  0.00  0.00    -0.046 C 
BRANCH  26  27
ATOM     27  C   UNL     1       2.803  -2.406   1.212  0.00  0.00    +0.098 C 
BRANCH  27  28
ATOM     28  O   UNL     1       3.972  -1.594   1.339  0.00  0.00    -0.394 OA
ATOM     29  H   UNL     1       4.041  -1.134   2.187  0.00  0.00    +0.210 HD
ENDBRANCH  27  28
BRANCH  27  30
ATOM     30  C   UNL     1       1.556  -1.531   1.353  0.00  0.00    +0.033 C 
BRANCH  30  31
ATOM     31  C   UNL     1       1.492  -0.543   0.186  0.00  0.00    +0.029 C 
BRANCH  31  33
ATOM     32  C   UNL     1       0.377   1.624   0.332  0.00  0.00    +0.004 C 
ATOM     33  C   UNL     1       0.264   0.319   0.325  0.00  0.00    -0.034 C 
ENDBRANCH  31  33
ENDBRANCH  30  31
ENDBRANCH  27  30
ENDBRANCH  26  27
ENDBRANCH  18  26
ENDBRANCH   1  18
TORSDOF 9
