REMARK  Name = ZINC34912484
REMARK  6 active torsions:
REMARK  status: ('A' for Active; 'I' for Inactive)
REMARK    1  A    between atoms: C_4  and  C_7
REMARK    2  A    between atoms: C_7  and  C_8
REMARK    3  A    between atoms: C_14  and  C_16
REMARK    4  A    between atoms: N_19  and  C_22
REMARK    5  A    between atoms: N_25  and  S_28
REMARK    6  A    between atoms: S_28  and  C_31
REMARK                            x       y       z     vdW  Elec       q    Type
REMARK                         _______ _______ _______ _____ _____    ______ ____
ROOT
ATOM      1  C   UNL     1       6.766  -4.279   4.074  0.00  0.00    +0.072 C 
ATOM      2  C   UNL     1       7.137  -4.462   2.599  0.00  0.00    -0.006 C 
ATOM      3  C   UNL     1       8.534  -5.078   2.503  0.00  0.00    -0.078 C 
ATOM      4  N   UNL     1       8.546  -6.381   3.178  0.00  0.00    +0.382 N 
ATOM      5  C   UNL     1       8.262  -6.205   4.607  0.00  0.00    -0.078 C 
ATOM      6  C   UNL     1       6.854  -5.632   4.784  0.00  0.00    -0.006 C 
ATOM      7  H   UNL     1       7.844  -6.978   2.767  0.00  0.00    -0.081 HD
ENDROOT
BRANCH   1  14
ATOM      8  C   UNL     1       4.726   0.260   4.830  0.00  0.00    -0.004 C 
ATOM      9  C   UNL     1       6.111  -0.381   4.937  0.00  0.00    +0.023 C 
ATOM     10  C   UNL     1       6.244  -1.482   3.880  0.00  0.00    +0.108 C 
ATOM     11  N   UNL     1       5.128  -2.425   4.038  0.00  0.00    -0.301 N 
ATOM     12  C   UNL     1       3.755  -1.902   4.041  0.00  0.00    +0.108 C 
ATOM     13  C   UNL     1       3.651  -0.796   5.096  0.00  0.00    +0.023 C 
ATOM     14  C   UNL     1       5.360  -3.745   4.177  0.00  0.00    +0.219 C 
ATOM     15  O   UNL     1       4.438  -4.505   4.386  0.00  0.00    -0.275 OA
BRANCH   8  16
ATOM     16  C   UNL     1       4.603   1.384   5.861  0.00  0.00    +0.038 C 
BRANCH  16  20
ATOM     17  C   UNL     1       7.369   4.498   4.915  0.00  0.00    +0.000 A 
ATOM     18  C   UNL     1       6.091   4.525   4.389  0.00  0.00    +0.000 A 
ATOM     19  C   UNL     1       5.196   3.517   4.695  0.00  0.00    +0.003 A 
ATOM     20  C   UNL     1       5.579   2.482   5.527  0.00  0.00    -0.047 A 
ATOM     21  C   UNL     1       6.857   2.454   6.052  0.00  0.00    +0.003 A 
ATOM     22  C   UNL     1       7.752   3.463   5.747  0.00  0.00    +0.000 A 
ENDBRANCH  16  20
ENDBRANCH   8  16
ENDBRANCH   1  14
BRANCH   4  23
ATOM     23  C   UNL     1       9.867  -7.003   3.016  0.00  0.00    -0.066 C 
ATOM     24  C   UNL     1      10.162  -7.194   1.526  0.00  0.00    +0.002 C 
ATOM     25  C   UNL     1      11.554  -7.810   1.360  0.00  0.00    +0.108 C 
ATOM     26  N   UNL     1      11.622  -9.046   2.152  0.00  0.00    -0.177 NA
ATOM     27  C   UNL     1      11.271  -8.991   3.577  0.00  0.00    +0.108 C 
ATOM     28  C   UNL     1       9.881  -8.362   3.719  0.00  0.00    +0.002 C 
BRANCH  26  29
ATOM     29  S   UNL     1      12.086 -10.473   1.451  0.00  0.00    +0.061 S 
ATOM     30  O   UNL     1      11.535 -11.514   2.247  0.00  0.00    -0.153 OA
ATOM     31  O   UNL     1      11.813 -10.351   0.062  0.00  0.00    -0.153 OA
BRANCH  29  32
ATOM     32  C   UNL     1      13.836 -10.588   1.613  0.00  0.00    +0.106 A 
ATOM     33  C   UNL     1      14.657 -10.069   0.629  0.00  0.00    +0.031 A 
ATOM     34  C   UNL     1      16.030 -10.159   0.755  0.00  0.00    +0.040 A 
ATOM     35  C   UNL     1      16.584 -10.769   1.868  0.00  0.00    +0.124 A 
ATOM     36  C   UNL     1      15.761 -11.288   2.853  0.00  0.00    +0.040 A 
ATOM     37  C   UNL     1      14.389 -11.193   2.727  0.00  0.00    +0.031 A 
ATOM     38  F   UNL     1      17.927 -10.857   1.992  0.00  0.00    -0.205 F 
ENDBRANCH  29  32
ENDBRANCH  26  29
ENDBRANCH   4  23
TORSDOF 6
