REMARK  Name = ZINC41328301
REMARK  10 active torsions:
REMARK  status: ('A' for Active; 'I' for Inactive)
REMARK    1  A    between atoms: C_1  and  C_2
REMARK    2  A    between atoms: C_5  and  N_11
REMARK    3  A    between atoms: C_7  and  N_8
REMARK    4  A    between atoms: C_12  and  C_14
REMARK    5  A    between atoms: N_16  and  C_17
REMARK    6  A    between atoms: C_17  and  C_18
REMARK    7  A    between atoms: C_18  and  C_20
REMARK    8  A    between atoms: C_18  and  N_23
REMARK    9  A    between atoms: C_20  and  C_21
REMARK   10  A    between atoms: C_20  and  C_22
REMARK                            x       y       z     vdW  Elec       q    Type
REMARK                         _______ _______ _______ _____ _____    ______ ____
ROOT
ATOM      1  C   UNL     1       1.407  -8.102  -1.521  0.00  0.00    +0.299 C 
ATOM      2  O   UNL     1       1.657  -8.506  -0.404  0.00  0.00    -0.265 OA
ATOM      3  N   UNL     1       1.069  -8.972  -2.493  0.00  0.00    -0.309 N 
ATOM      4  H   UNL     1       0.869  -8.649  -3.385  0.00  0.00    +0.149 HD
ENDROOT
BRANCH   1   6
ATOM      5  N   UNL     1       1.815  -5.770  -0.847  0.00  0.00    -0.278 N 
ATOM      6  C   UNL     1       1.476  -6.640  -1.819  0.00  0.00    +0.303 C 
ATOM      7  O   UNL     1       1.227  -6.236  -2.936  0.00  0.00    -0.265 OA
ATOM      8  H   UNL     1       1.939  -6.082   0.063  0.00  0.00    +0.155 HD
BRANCH   5  13
ATOM      9  C   UNL     1       2.520  -0.279  -2.080  0.00  0.00    +0.046 C 
ATOM     10  C   UNL     1       2.333  -1.738  -1.752  0.00  0.00    -0.020 A 
ATOM     11  C   UNL     1       3.134  -2.339  -0.798  0.00  0.00    +0.007 A 
ATOM     12  C   UNL     1       2.965  -3.676  -0.496  0.00  0.00    +0.024 A 
ATOM     13  C   UNL     1       1.988  -4.417  -1.151  0.00  0.00    +0.036 A 
ATOM     14  C   UNL     1       1.186  -3.810  -2.108  0.00  0.00    +0.056 A 
ATOM     15  C   UNL     1       1.357  -2.471  -2.402  0.00  0.00    +0.131 A 
BRANCH  15  16
ATOM     16  N   UNL     1       0.498  -1.822  -3.418  0.00  0.00    +0.057 N 
ATOM     17  O   UNL     1       0.245  -0.643  -3.331  0.00  0.00    -0.126 OA
ATOM     18  O   UNL     1       0.050  -2.470  -4.335  0.00  0.00    -0.126 OA
ENDBRANCH  15  16
ENDBRANCH   5  13
ENDBRANCH   1   6
BRANCH   3  19
ATOM     19  C   UNL     1       1.001 -10.406  -2.201  0.00  0.00    +0.089 C 
BRANCH  19  20
ATOM     20  C   UNL     1       0.725 -11.178  -3.493  0.00  0.00    -0.049 C 
BRANCH  20  21
ATOM     21  N   UNL     1       1.759 -10.857  -4.485  0.00  0.00    +0.383 N 
ATOM     22  C   UNL     1       1.347 -11.406  -5.792  0.00  0.00    -0.078 C 
ATOM     23  C   UNL     1       2.028 -10.609  -6.876  0.00  0.00    -0.019 C 
ATOM     24  C   UNL     1       3.321 -11.296  -7.354  0.00  0.00    -0.002 C 
ATOM     25  C   UNL     1       4.120 -11.893  -6.177  0.00  0.00    -0.002 C 
ATOM     26  C   UNL     1       4.144 -10.980  -4.978  0.00  0.00    -0.019 C 
ATOM     27  C   UNL     1       2.982 -11.358  -4.035  0.00  0.00    -0.078 C 
ATOM     28  H   UNL     1       1.830  -9.854  -4.565  0.00  0.00    -0.081 HD
ENDBRANCH  20  21
BRANCH  20  29
ATOM     29  C   UNL     1       0.743 -12.680  -3.204  0.00  0.00    -0.029 C 
ATOM     30  C   UNL     1       1.759 -12.974  -2.099  0.00  0.00    +0.005 C 
ATOM     31  C   UNL     1      -0.648 -13.129  -2.751  0.00  0.00    +0.005 C 
ENDBRANCH  20  29
ENDBRANCH  19  20
ENDBRANCH   3  19
TORSDOF 7
