REMARK  Name = ZINC20347883
REMARK  11 active torsions:
REMARK  status: ('A' for Active; 'I' for Inactive)
REMARK    1  A    between atoms: C_1  and  C_2
REMARK    2  A    between atoms: C_5  and  N_8
REMARK    3  A    between atoms: C_9  and  C_11
REMARK    4  A    between atoms: C_11  and  S_12
REMARK    5  A    between atoms: S_12  and  C_13
REMARK    6  A    between atoms: C_14  and  C_36
REMARK    7  A    between atoms: C_15  and  C_31
REMARK    8  A    between atoms: C_17  and  C_21
REMARK    9  A    between atoms: C_18  and  C_20
REMARK   10  A    between atoms: N_23  and  C_24
REMARK   11  A    between atoms: C_28  and  C_30
REMARK                            x       y       z     vdW  Elec       q    Type
REMARK                         _______ _______ _______ _____ _____    ______ ____
ROOT
ATOM      1  C   UNL     1       0.653   2.210  -0.399  0.00  0.00    +0.080 C 
ATOM      2  C   UNL     1      -0.135   1.347  -1.095  0.00  0.00    +0.072 C 
ATOM      3  C   UNL     1      -1.629   1.499  -1.114  0.00  0.00    +0.134 C 
ATOM      4  C   UNL     1      -2.036   2.860  -0.629  0.00  0.00    +0.047 C 
ATOM      5  C   UNL     1      -1.186   3.654   0.041  0.00  0.00    +0.015 C 
ATOM      6  N   UNL     1       0.095   3.252   0.307  0.00  0.00    -0.312 N 
ATOM      7  C   UNL     1      -1.649   5.010   0.508  0.00  0.00    +0.061 C 
ATOM      8  H   UNL     1       0.678   3.764   1.086  0.00  0.00    +0.152 HD
ENDROOT
BRANCH   3   9
ATOM      9  C   UNL     1      -2.129   1.302  -2.522  0.00  0.00    +0.118 A 
ATOM     10  C   UNL     1      -3.087   0.438  -2.902  0.00  0.00    +0.045 A 
ATOM     11  C   UNL     1      -3.240   0.585  -4.300  0.00  0.00    +0.041 A 
ATOM     12  C   UNL     1      -2.360   1.524  -4.691  0.00  0.00    +0.195 A 
ATOM     13  O   UNL     1      -1.690   1.955  -3.610  0.00  0.00    -0.467 OA
ENDBRANCH   3   9
BRANCH   4  14
ATOM     14  C   UNL     1      -3.349   3.320  -0.890  0.00  0.00    +0.247 C 
ATOM     15  O   UNL     1      -4.272   2.960  -0.182  0.00  0.00    -0.270 OA
ATOM     16  N   UNL     1      -3.577   4.156  -1.922  0.00  0.00    -0.282 N 
ATOM     17  H   UNL     1      -2.764   4.401  -2.622  0.00  0.00    +0.155 HD
BRANCH  16  18
ATOM     18  C   UNL     1      -4.847   4.711  -2.104  0.00  0.00    +0.034 A 
ATOM     19  C   UNL     1      -5.642   5.007  -1.004  0.00  0.00    +0.023 A 
ATOM     20  C   UNL     1      -6.893   5.561  -1.187  0.00  0.00    +0.002 A 
ATOM     21  C   UNL     1      -7.360   5.811  -2.464  0.00  0.00    +0.003 A 
ATOM     22  C   UNL     1      -6.574   5.513  -3.562  0.00  0.00    -0.049 A 
ATOM     23  C   UNL     1      -5.319   4.964  -3.385  0.00  0.00    +0.026 A 
ATOM     24  C   UNL     1      -7.088   5.787  -4.952  0.00  0.00    +0.044 C 
ENDBRANCH  16  18
ENDBRANCH   4  14
BRANCH   2  25
ATOM     25  C   UNL     1       0.472   0.277  -1.828  0.00  0.00    +0.098 C 
ATOM     26  N   UNL     1       0.954  -0.572  -2.409  0.00  0.00    -0.191 NA
ENDBRANCH   2  25
BRANCH   1  27
ATOM     27  S   UNL     1       2.402   1.992  -0.400  0.00  0.00    -0.100 S 
BRANCH  27  28
ATOM     28  C   UNL     1       2.892   3.382   0.651  0.00  0.00    +0.171 C 
BRANCH  28  30
ATOM     29  N   UNL     1       4.987   4.350   1.541  0.00  0.00    -0.285 N 
ATOM     30  C   UNL     1       4.392   3.397   0.797  0.00  0.00    +0.227 C 
ATOM     31  O   UNL     1       5.064   2.552   0.244  0.00  0.00    -0.275 OA
ATOM     32  H   UNL     1       4.376   5.062   2.115  0.00  0.00    +0.155 HD
BRANCH  29  37
ATOM     33  C   UNL     1      10.648   4.692   1.713  0.00  0.00    +0.044 C 
ATOM     34  C   UNL     1       9.144   4.601   1.667  0.00  0.00    -0.050 A 
ATOM     35  C   UNL     1       8.516   4.132   0.528  0.00  0.00    +0.005 A 
ATOM     36  C   UNL     1       7.138   4.047   0.483  0.00  0.00    +0.023 A 
ATOM     37  C   UNL     1       6.383   4.435   1.583  0.00  0.00    +0.033 A 
ATOM     38  C   UNL     1       7.018   4.911   2.723  0.00  0.00    +0.023 A 
ATOM     39  C   UNL     1       8.396   4.987   2.764  0.00  0.00    +0.005 A 
ENDBRANCH  29  37
ENDBRANCH  28  30
ENDBRANCH  27  28
ENDBRANCH   1  27
TORSDOF 8
