REMARK  Name = ZINC08583217
REMARK  13 active torsions:
REMARK  status: ('A' for Active; 'I' for Inactive)
REMARK    1  A    between atoms: C_1  and  C_2
REMARK    2  A    between atoms: C_2  and  N_3
REMARK    3  A    between atoms: N_3  and  C_4
REMARK    4  A    between atoms: N_3  and  C_6
REMARK    5  A    between atoms: C_4  and  C_5
REMARK    6  A    between atoms: C_6  and  C_7
REMARK    7  A    between atoms: C_7  and  C_8
REMARK    8  A    between atoms: C_8  and  N_9
REMARK    9  A    between atoms: C_10  and  C_12
REMARK   10  A    between atoms: C_21  and  C_24
REMARK   11  A    between atoms: C_24  and  S_25
REMARK   12  A    between atoms: S_25  and  C_28
REMARK   13  A    between atoms: C_28  and  C_29
REMARK                            x       y       z     vdW  Elec       q    Type
REMARK                         _______ _______ _______ _____ _____    ______ ____
ROOT
ATOM      1  C   UNL     1       0.546  -5.379   5.247  0.00  0.00    +0.039 A 
ATOM      2  C   UNL     1       1.071  -4.306   5.972  0.00  0.00    +0.015 A 
ATOM      3  C   UNL     1       1.667  -4.525   7.196  0.00  0.00    +0.025 A 
ATOM      4  C   UNL     1       1.746  -5.813   7.706  0.00  0.00    +0.049 A 
ATOM      5  C   UNL     1       1.230  -6.894   6.984  0.00  0.00    +0.055 A 
ATOM      6  C   UNL     1       0.623  -6.676   5.763  0.00  0.00    +0.038 A 
ATOM      7  N   UNL     1       1.341  -8.190   7.502  0.00  0.00    -0.282 N 
ATOM      8  C   UNL     1       2.100  -8.438   8.585  0.00  0.00    +0.239 C 
ATOM      9  O   UNL     1       2.086  -9.541   9.089  0.00  0.00    -0.273 OA
ATOM     10  C   UNL     1       2.970  -7.357   9.177  0.00  0.00    +0.178 C 
ATOM     11  N   UNL     1       2.334  -6.052   8.950  0.00  0.00    -0.330 N 
ATOM     12  H   UNL     1       0.863  -8.919   7.075  0.00  0.00    +0.155 HD
ATOM     13  H   UNL     1       2.324  -5.375   9.644  0.00  0.00    +0.147 HD
ENDROOT
BRANCH   1  15
ATOM     14  N   UNL     1      -0.169  -3.893   3.441  0.00  0.00    -0.311 N 
ATOM     15  C   UNL     1      -0.094  -5.143   3.939  0.00  0.00    +0.244 C 
ATOM     16  O   UNL     1      -0.555  -6.076   3.311  0.00  0.00    -0.270 OA
ATOM     17  H   UNL     1       0.199  -3.148   3.943  0.00  0.00    +0.149 HD
BRANCH  14  18
ATOM     18  C   UNL     1      -0.805  -3.658   2.143  0.00  0.00    +0.102 C 
BRANCH  18  19
ATOM     19  C   UNL     1      -0.756  -2.164   1.814  0.00  0.00    +0.000 C 
BRANCH  19  20
ATOM     20  C   UNL     1      -1.421  -1.919   0.458  0.00  0.00    -0.077 C 
BRANCH  20  21
ATOM     21  N   UNL     1      -1.374  -0.485   0.142  0.00  0.00    +0.379 N 
ATOM     22  H   UNL     1      -1.792   0.039   0.895  0.00  0.00    -0.082 HD
BRANCH  21  24
ATOM     23  C   UNL     1       0.082   1.451  -0.216  0.00  0.00    -0.017 C 
ATOM     24  C   UNL     1       0.024  -0.066  -0.029  0.00  0.00    -0.082 C 
ENDBRANCH  21  24
BRANCH  21  25
ATOM     25  C   UNL     1      -2.116  -0.233  -1.101  0.00  0.00    -0.082 C 
ATOM     26  C   UNL     1      -3.600  -0.533  -0.879  0.00  0.00    -0.017 C 
ENDBRANCH  21  25
ENDBRANCH  20  21
ENDBRANCH  19  20
ENDBRANCH  18  19
ENDBRANCH  14  18
ENDBRANCH   1  15
BRANCH  10  27
ATOM     27  C   UNL     1       4.345  -7.383   8.507  0.00  0.00    +0.198 C 
BRANCH  27  28
ATOM     28  S   UNL     1       5.436  -6.183   9.321  0.00  0.00    -0.025 S 
ATOM     29  O   UNL     1       4.923  -4.879   9.088  0.00  0.00    -0.174 OA
ATOM     30  O   UNL     1       5.656  -6.611  10.658  0.00  0.00    -0.174 OA
BRANCH  28  31
ATOM     31  C   UNL     1       6.988  -6.363   8.399  0.00  0.00    +0.202 C 
BRANCH  31  32
ATOM     32  C   UNL     1       8.018  -5.418   8.961  0.00  0.00    -0.008 A 
ATOM     33  C   UNL     1       8.129  -4.136   8.454  0.00  0.00    +0.009 A 
ATOM     34  C   UNL     1       9.073  -3.268   8.969  0.00  0.00    +0.039 A 
ATOM     35  C   UNL     1       9.910  -3.682   9.992  0.00  0.00    +0.125 A 
ATOM     36  C   UNL     1       9.799  -4.965  10.499  0.00  0.00    +0.058 A 
ATOM     37  C   UNL     1       8.849  -5.831   9.986  0.00  0.00    +0.048 A 
ATOM     38 CL   UNL     1       8.705  -7.439  10.626  0.00  0.00    -0.083 Cl
ATOM     39  F   UNL     1      10.834  -2.835  10.494  0.00  0.00    -0.205 F 
ENDBRANCH  31  32
ENDBRANCH  28  31
ENDBRANCH  27  28
ENDBRANCH  10  27
TORSDOF 11
