REMARK  Name = ZINC39669063
REMARK  5 active torsions:
REMARK  status: ('A' for Active; 'I' for Inactive)
REMARK    1  A    between atoms: C_1  and  C_2
REMARK    2  A    between atoms: C_5  and  C_10
REMARK    3  A    between atoms: C_14  and  C_23
REMARK    4  A    between atoms: N_25  and  C_26
REMARK    5  A    between atoms: C_26  and  C_27
REMARK                            x       y       z     vdW  Elec       q    Type
REMARK                         _______ _______ _______ _____ _____    ______ ____
ROOT
ATOM      1  C   UNL     1       0.160  -4.531   0.066  0.00  0.00    +0.250 C 
ATOM      2  O   UNL     1       0.289  -5.231   1.052  0.00  0.00    -0.270 OA
ATOM      3  N   UNL     1       0.024  -5.098  -1.150  0.00  0.00    -0.296 N 
ATOM      4  C   UNL     1      -0.036  -4.420  -2.466  0.00  0.00    +0.121 C 
ATOM      5  C   UNL     1       0.779  -5.332  -3.411  0.00  0.00    +0.100 C 
ATOM      6  C   UNL     1       0.732  -6.721  -2.754  0.00  0.00    -0.004 C 
ATOM      7  C   UNL     1      -0.093  -6.540  -1.472  0.00  0.00    +0.115 C 
ATOM      8  C   UNL     1       0.053  -7.723  -3.683  0.00  0.00    -0.010 C 
ATOM      9  C   UNL     1       0.070  -9.109  -3.033  0.00  0.00    -0.082 C 
ATOM     10  N   UNL     1       1.457  -9.513  -2.774  0.00  0.00    +0.379 N 
ATOM     11  C   UNL     1       2.073  -8.597  -1.807  0.00  0.00    -0.082 C 
ATOM     12  C   UNL     1       2.141  -7.189  -2.406  0.00  0.00    -0.010 C 
ATOM     13  H   UNL     1       1.468 -10.451  -2.402  0.00  0.00    -0.086 HD
ATOM     14  H   UNL     1       1.979  -9.490  -3.637  0.00  0.00    -0.086 HD
ENDROOT
BRANCH   1  19
ATOM     15  C   UNL     1       0.126   1.202   0.583  0.00  0.00    +0.047 C 
ATOM     16  C   UNL     1       0.137  -0.299   0.449  0.00  0.00    -0.012 A 
ATOM     17  C   UNL     1      -0.641  -0.910  -0.520  0.00  0.00    +0.007 A 
ATOM     18  C   UNL     1      -0.638  -2.282  -0.649  0.00  0.00    +0.016 A 
ATOM     19  C   UNL     1       0.153  -3.060   0.199  0.00  0.00    +0.075 A 
ATOM     20  C   UNL     1       0.938  -2.440   1.176  0.00  0.00    +0.171 A 
ATOM     21  C   UNL     1       0.928  -1.060   1.291  0.00  0.00    +0.162 A 
ATOM     22  F   UNL     1       1.689  -0.456   2.230  0.00  0.00    -0.202 F 
ATOM     23  F   UNL     1       1.705  -3.184   2.002  0.00  0.00    -0.202 F 
ENDBRANCH   1  19
BRANCH   5  24
ATOM     24  C   UNL     1       2.201  -4.845  -3.513  0.00  0.00    +0.218 C 
ATOM     25  O   UNL     1       2.714  -4.271  -2.575  0.00  0.00    -0.275 OA
ATOM     26  N   UNL     1       2.904  -5.046  -4.645  0.00  0.00    -0.312 N 
ATOM     27  H   UNL     1       2.494  -5.505  -5.395  0.00  0.00    +0.149 HD
BRANCH  26  28
ATOM     28  C   UNL     1       4.287  -4.573  -4.743  0.00  0.00    +0.140 C 
BRANCH  28  29
ATOM     29  C   UNL     1       4.850  -4.927  -6.121  0.00  0.00    +0.165 C 
ATOM     30  C   UNL     1       6.270  -4.432  -6.222  0.00  0.00    -0.014 A 
ATOM     31  C   UNL     1       6.568  -3.164  -5.747  0.00  0.00    +0.006 A 
ATOM     32  C   UNL     1       7.857  -2.676  -5.827  0.00  0.00    +0.000 A 
ATOM     33  C   UNL     1       8.855  -3.454  -6.383  0.00  0.00    +0.000 A 
ATOM     34  C   UNL     1       8.560  -4.717  -6.855  0.00  0.00    +0.004 A 
ATOM     35  C   UNL     1       7.267  -5.209  -6.772  0.00  0.00    -0.040 A 
ATOM     36  C   UNL     1       6.985  -6.598  -7.286  0.00  0.00    +0.063 C 
ATOM     37  C   UNL     1       5.479  -6.780  -7.487  0.00  0.00    +0.165 C 
ATOM     38  O   UNL     1       4.810  -6.342  -6.299  0.00  0.00    -0.370 OA
ENDBRANCH  28  29
ENDBRANCH  26  28
ENDBRANCH   5  24
TORSDOF 4
