REMARK  Name = ZINC44135655
REMARK  11 active torsions:
REMARK  status: ('A' for Active; 'I' for Inactive)
REMARK    1  A    between atoms: C_1  and  C_2
REMARK    2  A    between atoms: C_2  and  C_39
REMARK    3  A    between atoms: C_6  and  O_38
REMARK    4  A    between atoms: C_8  and  C_14
REMARK    5  A    between atoms: C_14  and  C_16
REMARK    6  A    between atoms: C_14  and  N_37
REMARK    7  A    between atoms: C_16  and  O_17
REMARK    8  A    between atoms: O_17  and  C_18
REMARK    9  A    between atoms: C_18  and  C_19
REMARK   10  A    between atoms: C_18  and  C_25
REMARK   11  A    between atoms: C_18  and  C_31
REMARK                            x       y       z     vdW  Elec       q    Type
REMARK                         _______ _______ _______ _____ _____    ______ ____
ROOT
ATOM      1  O   UNL     1       6.467  -4.279   1.533  0.00  0.00    -0.361 OA
ENDROOT
BRANCH   1   2
ATOM      2  C   UNL     1       6.152  -2.899   1.729  0.00  0.00    +0.148 C 
BRANCH   2   3
ATOM      3  C   UNL     1       6.428  -2.124   0.439  0.00  0.00    -0.017 C 
BRANCH   3   9
ATOM      4  C   UNL     1       3.522   3.606  -0.317  0.00  0.00    +0.074 C 
ATOM      5  C   UNL     1       3.465   2.209  -0.938  0.00  0.00    +0.168 C 
ATOM      6  O   UNL     1       4.748   1.893  -1.561  0.00  0.00    -0.338 OA
ATOM      7  C   UNL     1       5.391   1.191  -0.550  0.00  0.00    +0.208 C 
ATOM      8  C   UNL     1       6.493   0.174  -0.624  0.00  0.00    +0.175 C 
ATOM      9  C   UNL     1       6.209  -0.630   0.685  0.00  0.00    +0.140 C 
ATOM     10  O   UNL     1       4.824  -0.381   1.039  0.00  0.00    -0.344 OA
ATOM     11  C   UNL     1       4.219   0.227  -0.101  0.00  0.00    +0.285 C 
ATOM     12  O   UNL     1       3.214   1.221   0.097  0.00  0.00    -0.318 OA
ATOM     13  C   UNL     1       2.353   2.154  -1.987  0.00  0.00    +0.074 C 
BRANCH   8  14
ATOM     14  O   UNL     1       7.778   0.798  -0.584  0.00  0.00    -0.387 OA
ATOM     15  H   UNL     1       7.945   1.403  -1.319  0.00  0.00    +0.210 HD
ENDBRANCH   8  14
ENDBRANCH   3   9
BRANCH   3  16
ATOM     16  N   UNL     1       5.513  -2.585  -0.614  0.00  0.00    +0.383 N 
ATOM     17  H   UNL     1       5.750  -2.135  -1.486  0.00  0.00    -0.089 HD
ATOM     18  H   UNL     1       5.597  -3.585  -0.718  0.00  0.00    -0.089 HD
ATOM     19  H   UNL     1       4.565  -2.352  -0.362  0.00  0.00    -0.089 HD
ENDBRANCH   3  16
ENDBRANCH   2   3
ENDBRANCH   1   2
BRANCH   1  20
ATOM     20  C   UNL     1       6.369  -5.072   2.717  0.00  0.00    +0.144 C 
BRANCH  20  21
ATOM     21  C   UNL     1       4.967  -4.988   3.263  0.00  0.00    -0.007 A 
ATOM     22  C   UNL     1       4.545  -3.843   3.913  0.00  0.00    +0.007 A 
ATOM     23  C   UNL     1       3.259  -3.766   4.414  0.00  0.00    +0.000 A 
ATOM     24  C   UNL     1       2.394  -4.834   4.265  0.00  0.00    +0.000 A 
ATOM     25  C   UNL     1       2.815  -5.979   3.614  0.00  0.00    +0.000 A 
ATOM     26  C   UNL     1       4.100  -6.054   3.109  0.00  0.00    +0.007 A 
ENDBRANCH  20  21
BRANCH  20  27
ATOM     27  C   UNL     1       6.695  -6.506   2.390  0.00  0.00    -0.007 A 
ATOM     28  C   UNL     1       6.657  -7.468   3.383  0.00  0.00    +0.007 A 
ATOM     29  C   UNL     1       6.957  -8.783   3.082  0.00  0.00    +0.000 A 
ATOM     30  C   UNL     1       7.294  -9.138   1.789  0.00  0.00    +0.000 A 
ATOM     31  C   UNL     1       7.331  -8.177   0.797  0.00  0.00    +0.000 A 
ATOM     32  C   UNL     1       7.027  -6.862   1.096  0.00  0.00    +0.007 A 
ENDBRANCH  20  27
BRANCH  20  33
ATOM     33  C   UNL     1       7.341  -4.558   3.748  0.00  0.00    -0.007 A 
ATOM     34  C   UNL     1       7.057  -4.694   5.094  0.00  0.00    +0.007 A 
ATOM     35  C   UNL     1       7.948  -4.222   6.039  0.00  0.00    +0.000 A 
ATOM     36  C   UNL     1       9.124  -3.616   5.639  0.00  0.00    +0.000 A 
ATOM     37  C   UNL     1       9.409  -3.481   4.293  0.00  0.00    +0.000 A 
ATOM     38  C   UNL     1       8.519  -3.956   3.347  0.00  0.00    +0.007 A 
ENDBRANCH  20  33
ENDBRANCH   1  20
TORSDOF 9
