REMARK  Name = ZINC49181356
REMARK  11 active torsions:
REMARK  status: ('A' for Active; 'I' for Inactive)
REMARK    1  A    between atoms: C_1  and  C_2
REMARK    2  A    between atoms: C_2  and  C_32
REMARK    3  A    between atoms: C_3  and  C_4
REMARK    4  A    between atoms: C_4  and  C_5
REMARK    5  A    between atoms: C_6  and  O_31
REMARK    6  A    between atoms: C_8  and  O_30
REMARK    7  A    between atoms: C_18  and  O_28
REMARK    8  A    between atoms: C_19  and  O_26
REMARK    9  A    between atoms: C_22  and  O_25
REMARK   10  A    between atoms: O_26  and  C_27
REMARK   11  A    between atoms: O_28  and  C_29
REMARK                            x       y       z     vdW  Elec       q    Type
REMARK                         _______ _______ _______ _____ _____    ______ ____
ROOT
ATOM      1  C   UNL     1      -0.864  -0.562   3.381  0.00  0.00    +0.040 A 
ATOM      2  C   UNL     1      -2.184  -0.131   3.398  0.00  0.00    +0.127 A 
ATOM      3  C   UNL     1      -3.109  -0.711   4.257  0.00  0.00    +0.092 A 
ATOM      4  C   UNL     1      -2.718  -1.725   5.114  0.00  0.00    +0.134 A 
ATOM      5  C   UNL     1      -1.383  -2.156   5.109  0.00  0.00    +0.104 A 
ATOM      6  C   UNL     1      -0.454  -1.582   4.221  0.00  0.00    +0.142 A 
ATOM      7  O   UNL     1       0.823  -2.021   4.178  0.00  0.00    -0.481 OA
ATOM      8  C   UNL     1       1.382  -2.695   5.306  0.00  0.00    +0.254 C 
ATOM      9  C   UNL     1       2.691  -3.368   4.857  0.00  0.00    +0.277 C 
ATOM     10  O   UNL     1       2.409  -4.153   3.698  0.00  0.00    -0.488 OA
ATOM     11  C   UNL     1       1.337  -4.987   3.731  0.00  0.00    +0.131 A 
ATOM     12  C   UNL     1       1.238  -5.980   2.761  0.00  0.00    +0.095 A 
ATOM     13  C   UNL     1       0.160  -6.847   2.757  0.00  0.00    +0.165 A 
ATOM     14  C   UNL     1      -0.831  -6.724   3.727  0.00  0.00    +0.162 A 
ATOM     15  C   UNL     1      -0.731  -5.737   4.691  0.00  0.00    +0.060 A 
ATOM     16  C   UNL     1       0.350  -4.870   4.696  0.00  0.00    +0.040 A 
ATOM     17  C   UNL     1       0.427  -3.803   5.771  0.00  0.00    +0.197 C 
ATOM     18  C   UNL     1      -0.929  -3.208   6.024  0.00  0.00    +0.210 C 
ATOM     19  O   UNL     1      -1.623  -3.586   6.945  0.00  0.00    -0.288 OA
ENDROOT
BRANCH  17  20
ATOM     20  O   UNL     1       0.924  -4.382   6.979  0.00  0.00    -0.373 OA
ATOM     21  H   UNL     1       0.369  -5.092   7.332  0.00  0.00    +0.211 HD
ENDBRANCH  17  20
BRANCH  14  22
ATOM     22  O   UNL     1      -1.895  -7.572   3.727  0.00  0.00    -0.491 OA
ATOM     23  C   UNL     1      -2.872  -7.387   4.753  0.00  0.00    +0.277 C 
ENDBRANCH  14  22
BRANCH  13  24
ATOM     24  O   UNL     1       0.068  -7.816   1.808  0.00  0.00    -0.491 OA
ATOM     25  C   UNL     1       1.122  -7.883   0.845  0.00  0.00    +0.277 C 
ENDBRANCH  13  24
BRANCH   4  26
ATOM     26  O   UNL     1      -3.618  -2.296   5.952  0.00  0.00    -0.506 OA
ATOM     27  H   UNL     1      -4.075  -3.061   5.577  0.00  0.00    +0.292 HD
ENDBRANCH   4  26
BRANCH   2  28
ATOM     28  O   UNL     1      -2.575   0.868   2.567  0.00  0.00    -0.506 OA
ATOM     29  H   UNL     1      -2.891   0.562   1.706  0.00  0.00    +0.292 HD
ENDBRANCH   2  28
BRANCH   1  30
ATOM     30  C   UNL     1       0.123   0.078   2.439  0.00  0.00    +0.069 C 
BRANCH  30  33
ATOM     31  C   UNL     1      -0.166   1.491   0.016  0.00  0.00    +0.038 C 
ATOM     32  C   UNL     1      -0.072  -0.013   0.007  0.00  0.00    -0.079 C 
ATOM     33  C   UNL     1       0.121  -0.664   1.128  0.00  0.00    -0.023 C 
ATOM     34  C   UNL     1      -0.200  -0.768  -1.291  0.00  0.00    +0.038 C 
ENDBRANCH  30  33
ENDBRANCH   1  30
TORSDOF 7
