REMARK  Name = ZINC08817433
REMARK  6 active torsions:
REMARK  status: ('A' for Active; 'I' for Inactive)
REMARK    1  A    between atoms: C_1  and  N_54
REMARK    2  A    between atoms: C_9  and  O_32
REMARK    3  A    between atoms: C_11  and  C_14
REMARK    4  A    between atoms: C_17  and  O_20
REMARK    5  A    between atoms: O_20  and  C_21
REMARK    6  A    between atoms: C_21  and  C_23
REMARK                            x       y       z     vdW  Elec       q    Type
REMARK                         _______ _______ _______ _____ _____    ______ ____
ROOT
ATOM      1  C   UNL     1       1.271  -8.912  -8.611  0.00  0.00    -0.096 C 
ATOM      2  C   UNL     1       2.482  -9.768  -6.697  0.00  0.00    -0.074 C 
ATOM      3  C   UNL     1       3.012  -9.377  -5.314  0.00  0.00    +0.018 C 
ATOM      4  C   UNL     1       1.818  -9.099  -4.407  0.00  0.00    -0.027 A 
ATOM      5  C   UNL     1       0.598  -8.870  -4.949  0.00  0.00    -0.021 A 
ATOM      6  S   UNL     1      -0.473  -8.604  -3.562  0.00  0.00    -0.080 S 
ATOM      7  C   UNL     1       0.671  -8.795  -2.303  0.00  0.00    +0.080 A 
ATOM      8  C   UNL     1       1.880  -9.060  -2.959  0.00  0.00    +0.067 A 
ATOM      9  C   UNL     1       3.082  -9.269  -2.111  0.00  0.00    +0.220 C 
ATOM     10  N   UNL     1       2.983  -8.998  -0.839  0.00  0.00    -0.223 NA
ATOM     11  C   UNL     1       1.812  -8.409  -0.203  0.00  0.00    +0.224 C 
ATOM     12  N   UNL     1       0.574  -8.736  -0.936  0.00  0.00    -0.313 N 
ATOM     13  C   UNL     1       0.260  -8.849  -6.406  0.00  0.00    -0.036 C 
ATOM     14  H   UNL     1      -0.264  -8.900  -0.476  0.00  0.00    +0.149 HD
ATOM     15  N   UNL     1       1.530  -8.741  -7.165  0.00  0.00    +0.381 N 
ATOM     16  H   UNL     1       1.936  -7.811  -7.006  0.00  0.00    -0.082 HD
ENDROOT
BRANCH  11  17
ATOM     17  C   UNL     1       1.976  -6.912  -0.159  0.00  0.00    -0.005 A 
ATOM     18  C   UNL     1       3.241  -6.358  -0.095  0.00  0.00    +0.011 A 
ATOM     19  C   UNL     1       3.395  -4.986  -0.054  0.00  0.00    +0.047 A 
ATOM     20  C   UNL     1       2.278  -4.163  -0.077  0.00  0.00    +0.132 A 
ATOM     21  C   UNL     1       1.009  -4.721  -0.136  0.00  0.00    +0.047 A 
ATOM     22  C   UNL     1       0.861  -6.094  -0.182  0.00  0.00    +0.011 A 
BRANCH  20  23
ATOM     23  O   UNL     1       2.426  -2.813  -0.037  0.00  0.00    -0.422 OA
BRANCH  23  24
ATOM     24  C   UNL     1       2.806  -2.204  -1.178  0.00  0.00    +0.345 C 
ATOM     25  O   UNL     1       3.087  -2.869  -2.156  0.00  0.00    -0.245 OA
BRANCH  24  26
ATOM     26  C   UNL     1       2.882  -0.733  -1.239  0.00  0.00    +0.063 A 
ATOM     27  C   UNL     1       2.561   0.032  -0.115  0.00  0.00    +0.019 A 
ATOM     28  C   UNL     1       2.633   1.407  -0.173  0.00  0.00    +0.050 A 
ATOM     29  C   UNL     1       3.025   2.036  -1.348  0.00  0.00    +0.166 A 
ATOM     30  C   UNL     1       3.347   1.278  -2.474  0.00  0.00    +0.167 A 
ATOM     31  C   UNL     1       3.277  -0.100  -2.421  0.00  0.00    +0.064 A 
ATOM     32  O   UNL     1       3.691   2.127  -3.487  0.00  0.00    -0.453 OA
ATOM     33  C   UNL     1       3.192   3.417  -3.094  0.00  0.00    +0.466 C 
ATOM     34  O   UNL     1       3.173   3.356  -1.656  0.00  0.00    -0.453 OA
ENDBRANCH  24  26
ENDBRANCH  23  24
ENDBRANCH  20  23
ENDBRANCH  11  17
BRANCH   9  35
ATOM     35  O   UNL     1       4.240  -9.726  -2.640  0.00  0.00    -0.492 OA
ATOM     36  H   UNL     1       4.955  -9.824  -1.997  0.00  0.00    +0.294 HD
ENDBRANCH   9  35
TORSDOF 5
