REMARK  Name = ZINC02742779
REMARK  12 active torsions:
REMARK  status: ('A' for Active; 'I' for Inactive)
REMARK    1  A    between atoms: C_1  and  C_2
REMARK    2  A    between atoms: C_2  and  C_3
REMARK    3  A    between atoms: C_3  and  N_4
REMARK    4  A    between atoms: N_4  and  C_5
REMARK    5  A    between atoms: N_4  and  C_8
REMARK    6  A    between atoms: C_5  and  C_6
REMARK    7  A    between atoms: C_6  and  C_7
REMARK    8  A    between atoms: C_11  and  C_14
REMARK    9  A    between atoms: C_14  and  C_16
REMARK   10  A    between atoms: C_14  and  N_27
REMARK   11  A    between atoms: C_25  and  O_26
REMARK   12  A    between atoms: N_27  and  C_28
REMARK                            x       y       z     vdW  Elec       q    Type
REMARK                         _______ _______ _______ _____ _____    ______ ____
ROOT
ATOM      1  C   UNL     1       2.592   3.796  -0.011  0.00  0.00    +0.136 C 
ENDROOT
BRANCH   1   2
ATOM      2  C   UNL     1       1.348   2.951  -0.102  0.00  0.00    +0.021 A 
ATOM      3  C   UNL     1       1.465   1.567  -0.200  0.00  0.00    +0.010 A 
ATOM      4  C   UNL     1       0.361   0.775  -0.283  0.00  0.00    +0.010 A 
ATOM      5  C   UNL     1      -0.917   1.358  -0.277  0.00  0.00    +0.004 A 
ATOM      6  C   UNL     1      -2.082   0.572  -0.368  0.00  0.00    +0.011 A 
ATOM      7  C   UNL     1      -3.290   1.208  -0.356  0.00  0.00    +0.020 A 
ATOM      8  C   UNL     1      -3.344   2.597  -0.257  0.00  0.00    +0.111 A 
ATOM      9  N   UNL     1      -2.257   3.324  -0.162  0.00  0.00    -0.251 NA
ATOM     10  C   UNL     1      -1.044   2.765  -0.173  0.00  0.00    +0.113 A 
ATOM     11  C   UNL     1       0.122   3.554  -0.088  0.00  0.00    +0.148 A 
BRANCH  11  12
ATOM     12  O   UNL     1       0.027   4.905   0.008  0.00  0.00    -0.504 OA
ATOM     13  H   UNL     1       0.021   5.361  -0.845  0.00  0.00    +0.292 HD
ENDBRANCH  11  12
ENDBRANCH   1   2
BRANCH   1  17
ATOM     14  C   UNL     1       3.550   4.483   4.097  0.00  0.00    +0.030 A 
ATOM     15  C   UNL     1       2.970   5.492   3.339  0.00  0.00    +0.023 A 
ATOM     16  C   UNL     1       2.662   5.267   2.012  0.00  0.00    +0.007 A 
ATOM     17  C   UNL     1       2.929   4.038   1.437  0.00  0.00    -0.023 A 
ATOM     18  C   UNL     1       3.502   3.029   2.190  0.00  0.00    +0.007 A 
ATOM     19  C   UNL     1       3.817   3.249   3.517  0.00  0.00    +0.023 A 
BRANCH  14  20
ATOM     20  N   UNL     1       3.862   4.707   5.440  0.00  0.00    -0.330 N 
BRANCH  20  21
ATOM     21  C   UNL     1       4.474   3.641   6.237  0.00  0.00    +0.105 C 
BRANCH  21  23
ATOM     22  C   UNL     1       6.636   2.622   6.965  0.00  0.00    +0.005 C 
ATOM     23  C   UNL     1       5.997   3.736   6.132  0.00  0.00    +0.015 C 
ENDBRANCH  21  23
ENDBRANCH  20  21
BRANCH  20  24
ATOM     24  C   UNL     1       3.578   6.008   6.051  0.00  0.00    +0.105 C 
BRANCH  24  25
ATOM     25  C   UNL     1       2.169   5.995   6.646  0.00  0.00    +0.015 C 
ATOM     26  C   UNL     1       1.873   7.354   7.284  0.00  0.00    +0.005 C 
ENDBRANCH  24  25
ENDBRANCH  20  24
ENDBRANCH  14  20
ENDBRANCH   1  17
BRANCH   1  27
ATOM     27  N   UNL     1       3.704   3.100  -0.662  0.00  0.00    -0.320 N 
ATOM     28  H   UNL     1       4.305   2.549  -0.137  0.00  0.00    +0.148 HD
BRANCH  27  29
ATOM     29  C   UNL     1       3.899   3.229  -2.033  0.00  0.00    +0.097 A 
ATOM     30  C   UNL     1       2.968   3.925  -2.798  0.00  0.00    +0.041 A 
ATOM     31  C   UNL     1       3.174   4.046  -4.160  0.00  0.00    +0.005 A 
ATOM     32  C   UNL     1       4.308   3.465  -4.714  0.00  0.00    +0.018 A 
ATOM     33  C   UNL     1       5.189   2.789  -3.895  0.00  0.00    +0.084 A 
ATOM     34  N   UNL     1       5.022   2.655  -2.552  0.00  0.00    -0.350 N 
ATOM     35  H   UNL     1       5.699   2.154  -1.965  0.00  0.00    +0.166 HD
ENDBRANCH  27  29
ENDBRANCH   1  27
TORSDOF 10
