REMARK  Name = ZINC36609556
REMARK  17 active torsions:
REMARK  status: ('A' for Active; 'I' for Inactive)
REMARK    1  A    between atoms: C_1  and  C_2
REMARK    2  A    between atoms: C_2  and  C_3
REMARK    3  A    between atoms: C_2  and  C_4
REMARK    4  A    between atoms: C_2  and  C_5
REMARK    5  A    between atoms: C_5  and  C_6
REMARK    6  A    between atoms: C_6  and  C_7
REMARK    7  A    between atoms: C_6  and  C_8
REMARK    8  A    between atoms: C_6  and  N_9
REMARK    9  A    between atoms: C_10  and  C_12
REMARK   10  A    between atoms: C_12  and  C_14
REMARK   11  A    between atoms: C_12  and  N_23
REMARK   12  A    between atoms: C_15  and  O_22
REMARK   13  A    between atoms: C_17  and  O_21
REMARK   14  A    between atoms: C_19  and  O_20
REMARK   15  A    between atoms: N_23  and  C_24
REMARK   16  A    between atoms: C_30  and  C_32
REMARK   17  A    between atoms: C_33  and  C_34
REMARK                            x       y       z     vdW  Elec       q    Type
REMARK                         _______ _______ _______ _____ _____    ______ ____
ROOT
ATOM      1  C   UNL     1       5.443  -0.217  -4.523  0.00  0.00    +0.205 C 
ENDROOT
BRANCH   1   2
ATOM      2  C   UNL     1       5.162   0.327  -5.900  0.00  0.00    +0.065 A 
ATOM      3  C   UNL     1       5.931   1.365  -6.405  0.00  0.00    +0.129 A 
ATOM      4  C   UNL     1       5.673   1.866  -7.672  0.00  0.00    +0.091 A 
ATOM      5  C   UNL     1       4.646   1.329  -8.434  0.00  0.00    +0.124 A 
ATOM      6  C   UNL     1       3.878   0.290  -7.929  0.00  0.00    +0.091 A 
ATOM      7  C   UNL     1       4.139  -0.213  -6.663  0.00  0.00    +0.129 A 
BRANCH   7   8
ATOM      8  O   UNL     1       3.389  -1.234  -6.170  0.00  0.00    -0.506 OA
ATOM      9  H   UNL     1       2.606  -0.946  -5.681  0.00  0.00    +0.292 HD
ENDBRANCH   7   8
BRANCH   5  10
ATOM     10  O   UNL     1       4.392   1.820  -9.675  0.00  0.00    -0.507 OA
ATOM     11  H   UNL     1       4.882   1.377 -10.381  0.00  0.00    +0.292 HD
ENDBRANCH   5  10
BRANCH   3  12
ATOM     12  O   UNL     1       6.937   1.891  -5.659  0.00  0.00    -0.506 OA
ATOM     13  H   UNL     1       7.807   1.515  -5.851  0.00  0.00    +0.292 HD
ENDBRANCH   3  12
ENDBRANCH   1   2
BRANCH   1  15
ATOM     14  N   UNL     1       3.810   1.074  -3.187  0.00  0.00    -0.308 N 
ATOM     15  C   UNL     1       5.099   0.826  -3.490  0.00  0.00    +0.239 C 
ATOM     16  O   UNL     1       5.983   1.441  -2.933  0.00  0.00    -0.273 OA
ATOM     17  H   UNL     1       3.103   0.581  -3.633  0.00  0.00    +0.149 HD
BRANCH  14  18
ATOM     18  C   UNL     1       3.476   2.087  -2.183  0.00  0.00    +0.030 C 
ATOM     19  C   UNL     1       4.178   3.401  -2.532  0.00  0.00    +0.031 C 
ATOM     20  C   UNL     1       3.938   1.612  -0.805  0.00  0.00    +0.031 C 
BRANCH  18  21
ATOM     21  C   UNL     1       1.962   2.307  -2.165  0.00  0.00    +0.031 C 
BRANCH  21  23
ATOM     22  C   UNL     1       1.294   0.969  -4.166  0.00  0.00    +0.010 C 
ATOM     23  C   UNL     1       1.440   2.383  -3.602  0.00  0.00    -0.036 C 
ATOM     24  C   UNL     1       2.427   3.175  -4.462  0.00  0.00    +0.010 C 
ATOM     25  C   UNL     1       0.079   3.081  -3.614  0.00  0.00    +0.010 C 
ENDBRANCH  21  23
ENDBRANCH  18  21
ENDBRANCH  14  18
ENDBRANCH   1  15
BRANCH   1  26
ATOM     26  N   UNL     1       6.863  -0.562  -4.414  0.00  0.00    -0.244 N 
ATOM     27  C   UNL     1       7.476  -1.217  -5.420  0.00  0.00    +0.297 C 
ATOM     28  O   UNL     1       6.871  -1.455  -6.449  0.00  0.00    -0.260 OA
BRANCH  26  29
ATOM     29  C   UNL     1       7.582  -0.212  -3.268  0.00  0.00    +0.038 A 
ATOM     30  C   UNL     1       7.308  -0.835  -2.057  0.00  0.00    +0.023 A 
ATOM     31  C   UNL     1       8.020  -0.486  -0.926  0.00  0.00    +0.002 A 
ATOM     32  C   UNL     1       9.005   0.482  -0.998  0.00  0.00    +0.000 A 
ATOM     33  C   UNL     1       9.280   1.104  -2.202  0.00  0.00    +0.002 A 
ATOM     34  C   UNL     1       8.576   0.756  -3.338  0.00  0.00    +0.023 A 
ENDBRANCH  26  29
BRANCH  27  35
ATOM     35  C   UNL     1       8.839  -1.633  -5.278  0.00  0.00    -0.002 C 
ATOM     36  C   UNL     1       9.956  -1.974  -5.161  0.00  0.00    -0.057 C 
BRANCH  36  37
ATOM     37  C   UNL     1      11.319  -2.390  -5.019  0.00  0.00    +0.025 A 
ATOM     38  C   UNL     1      12.015  -2.124  -3.836  0.00  0.00    +0.017 A 
ATOM     39  C   UNL     1      13.327  -2.528  -3.706  0.00  0.00    +0.001 A 
ATOM     40  C   UNL     1      13.955  -3.196  -4.744  0.00  0.00    +0.000 A 
ATOM     41  C   UNL     1      13.273  -3.463  -5.918  0.00  0.00    +0.001 A 
ATOM     42  C   UNL     1      11.959  -3.071  -6.060  0.00  0.00    +0.017 A 
ENDBRANCH  36  37
ENDBRANCH  27  35
ENDBRANCH   1  26
TORSDOF 12
