REMARK  Name = ZINC39326717
REMARK  13 active torsions:
REMARK  status: ('A' for Active; 'I' for Inactive)
REMARK    1  A    between atoms: C_1  and  C_2
REMARK    2  A    between atoms: C_6  and  C_7
REMARK    3  A    between atoms: C_10  and  O_15
REMARK    4  A    between atoms: C_12  and  O_13
REMARK    5  A    between atoms: O_13  and  C_14
REMARK    6  A    between atoms: O_15  and  C_16
REMARK    7  A    between atoms: C_20  and  C_28
REMARK    8  A    between atoms: C_22  and  C_26
REMARK    9  A    between atoms: C_23  and  N_25
REMARK   10  A    between atoms: C_31  and  O_36
REMARK   11  A    between atoms: C_33  and  O_34
REMARK   12  A    between atoms: O_34  and  C_35
REMARK   13  A    between atoms: O_36  and  C_37
REMARK                            x       y       z     vdW  Elec       q    Type
REMARK                         _______ _______ _______ _____ _____    ______ ____
ROOT
ATOM      1  C   UNL     1       0.459   1.332  -0.809  0.00  0.00    +0.008 C 
ATOM      2  C   UNL     1       0.322  -0.173  -0.569  0.00  0.00    -0.006 C 
ATOM      3  C   UNL     1      -1.160  -0.533  -0.392  0.00  0.00    +0.042 C 
ATOM      4  C   UNL     1      -1.229  -2.034  -0.212  0.00  0.00    -0.004 C 
ATOM      5  C   UNL     1      -2.190  -2.758  -0.815  0.00  0.00    +0.018 C 
ATOM      6  C   UNL     1      -0.214  -2.683   0.641  0.00  0.00    +0.133 C 
ATOM      7  C   UNL     1       0.854  -2.005   1.060  0.00  0.00    -0.014 C 
ATOM      8  C   UNL     1       1.079  -0.559   0.698  0.00  0.00    +0.039 C 
ATOM      9  C   UNL     1       1.894  -2.681   1.924  0.00  0.00    +0.097 C 
ATOM     10  C   UNL     1       1.771  -4.175   1.823  0.00  0.00    +0.098 C 
ATOM     11  C   UNL     1       0.631  -4.744   1.358  0.00  0.00    +0.199 C 
ATOM     12  O   UNL     1      -0.410  -3.983   0.979  0.00  0.00    -0.441 OA
ENDROOT
BRANCH   5  13
ATOM     13  C   UNL     1      -3.286  -2.080  -1.526  0.00  0.00    +0.017 A 
ATOM     14  C   UNL     1      -3.794  -0.870  -1.043  0.00  0.00    +0.015 A 
ATOM     15  C   UNL     1      -4.819  -0.239  -1.711  0.00  0.00    +0.046 A 
ATOM     16  C   UNL     1      -5.352  -0.800  -2.866  0.00  0.00    +0.124 A 
ATOM     17  C   UNL     1      -4.855  -2.001  -3.354  0.00  0.00    +0.091 A 
ATOM     18  C   UNL     1      -3.821  -2.642  -2.695  0.00  0.00    +0.131 A 
BRANCH  18  19
ATOM     19  O   UNL     1      -3.330  -3.813  -3.175  0.00  0.00    -0.494 OA
ATOM     20  C   UNL     1      -3.925  -4.325  -4.369  0.00  0.00    +0.277 C 
ENDBRANCH  18  19
BRANCH  16  21
ATOM     21  O   UNL     1      -6.364  -0.172  -3.519  0.00  0.00    -0.495 OA
ATOM     22  C   UNL     1      -6.828   1.060  -2.963  0.00  0.00    +0.277 C 
ENDBRANCH  16  21
ENDBRANCH   5  13
BRANCH   9  23
ATOM     23  C   UNL     1       1.696  -2.262   3.358  0.00  0.00    +0.007 A 
ATOM     24  C   UNL     1       0.503  -2.535   3.999  0.00  0.00    +0.012 A 
ATOM     25  C   UNL     1       0.319  -2.152   5.314  0.00  0.00    +0.046 A 
ATOM     26  C   UNL     1       1.334  -1.493   5.994  0.00  0.00    +0.124 A 
ATOM     27  C   UNL     1       2.532  -1.218   5.354  0.00  0.00    +0.091 A 
ATOM     28  C   UNL     1       2.716  -1.609   4.036  0.00  0.00    +0.128 A 
BRANCH  28  29
ATOM     29  O   UNL     1       3.892  -1.346   3.407  0.00  0.00    -0.495 OA
ATOM     30  C   UNL     1       4.896  -0.670   4.165  0.00  0.00    +0.277 C 
ENDBRANCH  28  29
BRANCH  26  31
ATOM     31  O   UNL     1       1.152  -1.116   7.287  0.00  0.00    -0.495 OA
ATOM     32  C   UNL     1      -0.107  -1.431   7.884  0.00  0.00    +0.277 C 
ENDBRANCH  26  31
ENDBRANCH   9  23
BRANCH  11  33
ATOM     33  N   UNL     1       0.539  -6.111   1.275  0.00  0.00    -0.328 N 
ATOM     34  H   UNL     1       1.288  -6.665   1.548  0.00  0.00    +0.145 HD
ATOM     35  H   UNL     1      -0.273  -6.523   0.943  0.00  0.00    +0.145 HD
ENDBRANCH  11  33
BRANCH  10  36
ATOM     36  C   UNL     1       2.868  -5.005   2.221  0.00  0.00    +0.101 C 
ATOM     37  N   UNL     1       3.738  -5.664   2.537  0.00  0.00    -0.191 NA
ENDBRANCH  10  36
TORSDOF 8
