REMARK  Name = ZINC39607260
REMARK  11 active torsions:
REMARK  status: ('A' for Active; 'I' for Inactive)
REMARK    1  A    between atoms: C_1  and  C_2
REMARK    2  A    between atoms: C_5  and  C_9
REMARK    3  A    between atoms: C_6  and  C_8
REMARK    4  A    between atoms: C_9  and  N_10
REMARK    5  A    between atoms: C_11  and  C_13
REMARK    6  A    between atoms: C_24  and  C_26
REMARK    7  A    between atoms: C_26  and  C_28
REMARK    8  A    between atoms: C_26  and  O_31
REMARK    9  A    between atoms: C_28  and  C_29
REMARK   10  A    between atoms: C_28  and  C_30
REMARK   11  A    between atoms: O_31  and  C_32
REMARK                            x       y       z     vdW  Elec       q    Type
REMARK                         _______ _______ _______ _____ _____    ______ ____
ROOT
ATOM      1  C   UNL     1      -3.691  -5.665   0.680  0.00  0.00    +0.100 C 
ATOM      2  C   UNL     1      -4.409  -5.395  -0.661  0.00  0.00    +0.121 C 
ATOM      3  N   UNL     1      -4.318  -6.677  -1.399  0.00  0.00    -0.297 N 
ATOM      4  C   UNL     1      -4.531  -7.715  -0.363  0.00  0.00    +0.115 C 
ATOM      5  C   UNL     1      -3.776  -7.188   0.874  0.00  0.00    -0.004 C 
ATOM      6  C   UNL     1      -4.552  -7.516   2.146  0.00  0.00    -0.010 C 
ATOM      7  C   UNL     1      -4.573  -9.034   2.349  0.00  0.00    -0.082 C 
ATOM      8  N   UNL     1      -3.197  -9.536   2.447  0.00  0.00    +0.379 N 
ATOM      9  C   UNL     1      -2.486  -9.299   1.185  0.00  0.00    -0.082 C 
ATOM     10  C   UNL     1      -2.376  -7.793   0.934  0.00  0.00    -0.010 C 
ATOM     11  C   UNL     1      -4.094  -6.857  -2.716  0.00  0.00    +0.257 C 
ATOM     12  O   UNL     1      -4.132  -7.973  -3.190  0.00  0.00    -0.272 OA
ATOM     13  H   UNL     1      -2.719  -9.057   3.196  0.00  0.00    -0.086 HD
ATOM     14  H   UNL     1      -3.215 -10.526   2.642  0.00  0.00    -0.086 HD
ENDROOT
BRANCH   1  16
ATOM     15  N   UNL     1      -1.691  -4.566   1.635  0.00  0.00    -0.311 N 
ATOM     16  C   UNL     1      -2.251  -5.226   0.602  0.00  0.00    +0.218 C 
ATOM     17  O   UNL     1      -1.597  -5.466  -0.391  0.00  0.00    -0.275 OA
ATOM     18  H   UNL     1      -2.214  -4.374   2.429  0.00  0.00    +0.149 HD
BRANCH  15  19
ATOM     19  C   UNL     1      -0.291  -4.139   1.559  0.00  0.00    +0.139 C 
BRANCH  19  24
ATOM     20  C   UNL     1       1.157  -1.415   6.445  0.00  0.00    +0.044 C 
ATOM     21  C   UNL     1       0.779  -2.126   5.171  0.00  0.00    -0.050 A 
ATOM     22  C   UNL     1       0.460  -1.396   4.041  0.00  0.00    +0.004 A 
ATOM     23  C   UNL     1       0.114  -2.047   2.872  0.00  0.00    +0.006 A 
ATOM     24  C   UNL     1       0.087  -3.429   2.833  0.00  0.00    -0.027 A 
ATOM     25  C   UNL     1       0.407  -4.159   3.962  0.00  0.00    -0.046 A 
ATOM     26  C   UNL     1       0.757  -3.507   5.130  0.00  0.00    +0.007 A 
ATOM     27  C   UNL     1       0.377  -5.665   3.920  0.00  0.00    +0.044 C 
ENDBRANCH  19  24
ENDBRANCH  15  19
ENDBRANCH   1  16
BRANCH  11  28
ATOM     28  C   UNL     1      -3.795  -5.673  -3.599  0.00  0.00    +0.261 C 
BRANCH  28  29
ATOM     29  C   UNL     1      -2.378  -5.803  -4.163  0.00  0.00    +0.033 C 
ATOM     30  C   UNL     1      -2.100  -4.638  -5.115  0.00  0.00    +0.011 C 
ATOM     31  C   UNL     1      -1.367  -5.774  -3.014  0.00  0.00    +0.011 C 
ENDBRANCH  28  29
BRANCH  28  32
ATOM     32  O   UNL     1      -4.734  -5.633  -4.675  0.00  0.00    -0.479 OA
BRANCH  32  33
ATOM     33  C   UNL     1      -5.159  -4.406  -5.076  0.00  0.00    +0.122 A 
ATOM     34  C   UNL     1      -6.053  -4.291  -6.131  0.00  0.00    +0.045 A 
ATOM     35  C   UNL     1      -6.484  -3.043  -6.537  0.00  0.00    +0.004 A 
ATOM     36  C   UNL     1      -6.026  -1.909  -5.893  0.00  0.00    +0.000 A 
ATOM     37  C   UNL     1      -5.135  -2.020  -4.841  0.00  0.00    +0.004 A 
ATOM     38  C   UNL     1      -4.705  -3.266  -4.428  0.00  0.00    +0.045 A 
ENDBRANCH  32  33
ENDBRANCH  28  32
ENDBRANCH  11  28
TORSDOF 7
