REMARK  Name = ZINC40740250
REMARK  17 active torsions:
REMARK  status: ('A' for Active; 'I' for Inactive)
REMARK    1  A    between atoms: C_1  and  C_2
REMARK    2  A    between atoms: C_2  and  C_3
REMARK    3  A    between atoms: C_3  and  C_4
REMARK    4  A    between atoms: C_4  and  O_5
REMARK    5  A    between atoms: O_5  and  C_6
REMARK    6  A    between atoms: C_6  and  C_7
REMARK    7  A    between atoms: C_7  and  C_8
REMARK    8  A    between atoms: C_8  and  N_9
REMARK    9  A    between atoms: N_9  and  C_10
REMARK   10  A    between atoms: C_10  and  C_11
REMARK   11  A    between atoms: C_13  and  O_27
REMARK   12  A    between atoms: C_14  and  O_18
REMARK   13  A    between atoms: O_18  and  C_19
REMARK   14  A    between atoms: C_19  and  C_20
REMARK   15  A    between atoms: C_25  and  C_26
REMARK   16  A    between atoms: O_27  and  C_28
REMARK   17  A    between atoms: C_28  and  C_29
REMARK                            x       y       z     vdW  Elec       q    Type
REMARK                         _______ _______ _______ _____ _____    ______ ____
ROOT
ATOM      1  C   UNL     1      -7.380  -8.198   0.029  0.00  0.00    -0.060 A 
ATOM      2  C   UNL     1      -8.034  -8.385   1.232  0.00  0.00    +0.051 A 
ATOM      3  C   UNL     1      -9.368  -8.761   1.245  0.00  0.00    +0.163 A 
ATOM      4  C   UNL     1     -10.047  -8.948   0.045  0.00  0.00    +0.176 A 
ATOM      5  C   UNL     1      -9.386  -8.758  -1.158  0.00  0.00    +0.063 A 
ATOM      6  C   UNL     1      -8.055  -8.378  -1.164  0.00  0.00    +0.021 A 
ATOM      7 BR   UNL     1     -10.304  -9.010  -2.792  0.00  0.00    -0.046 Br
ENDROOT
BRANCH   1   8
ATOM      8  C   UNL     1      -5.930  -7.789   0.017  0.00  0.00    -0.047 C 
BRANCH   8   9
ATOM      9  N   UNL     1      -5.833  -6.323   0.024  0.00  0.00    +0.382 N 
ATOM     10  H   UNL     1      -6.278  -5.961   0.854  0.00  0.00    -0.085 HD
ATOM     11  H   UNL     1      -6.294  -5.952  -0.794  0.00  0.00    -0.085 HD
BRANCH   9  12
ATOM     12  C   UNL     1      -4.420  -5.925   0.012  0.00  0.00    -0.080 C 
BRANCH  12  13
ATOM     13  C   UNL     1      -4.319  -4.399   0.020  0.00  0.00    +0.009 C 
BRANCH  13  14
ATOM     14  C   UNL     1      -2.847  -3.984   0.008  0.00  0.00    +0.158 C 
BRANCH  14  15
ATOM     15  O   UNL     1      -2.753  -2.558   0.015  0.00  0.00    -0.380 OA
BRANCH  15  16
ATOM     16  C   UNL     1      -1.413  -2.063   0.004  0.00  0.00    +0.160 C 
BRANCH  16  17
ATOM     17  C   UNL     1      -1.433  -0.534   0.013  0.00  0.00    +0.028 C 
BRANCH  17  19
ATOM     18  C   UNL     1      -0.019   1.526   0.010  0.00  0.00    +0.004 C 
ATOM     19  C   UNL     1       0.002  -0.004   0.002  0.00  0.00    -0.001 C 
ENDBRANCH  17  19
ENDBRANCH  16  17
ENDBRANCH  15  16
ENDBRANCH  14  15
ENDBRANCH  13  14
ENDBRANCH  12  13
ENDBRANCH   9  12
ENDBRANCH   8   9
ENDBRANCH   1   8
BRANCH   4  20
ATOM     20  O   UNL     1     -11.356  -9.317   0.053  0.00  0.00    -0.483 OA
BRANCH  20  21
ATOM     21  C   UNL     1     -12.326  -8.267   0.061  0.00  0.00    +0.265 C 
BRANCH  21  22
ATOM     22  C   UNL     1     -13.710  -8.863   0.069  0.00  0.00    -0.007 A 
ATOM     23  C   UNL     1     -13.872 -10.236   0.073  0.00  0.00    +0.007 A 
ATOM     24  C   UNL     1     -15.142 -10.782   0.080  0.00  0.00    +0.000 A 
ATOM     25  C   UNL     1     -16.250  -9.955   0.083  0.00  0.00    +0.000 A 
ATOM     26  C   UNL     1     -16.088  -8.582   0.080  0.00  0.00    +0.004 A 
ATOM     27  C   UNL     1     -14.818  -8.036   0.077  0.00  0.00    -0.044 A 
ATOM     28  C   UNL     1     -14.641  -6.539   0.079  0.00  0.00    +0.044 C 
ENDBRANCH  21  22
ENDBRANCH  20  21
ENDBRANCH   4  20
BRANCH   3  29
ATOM     29  O   UNL     1     -10.012  -8.947   2.428  0.00  0.00    -0.489 OA
BRANCH  29  30
ATOM     30  C   UNL     1      -9.252  -8.737   3.620  0.00  0.00    +0.226 C 
ATOM     31  C   UNL     1     -10.139  -8.992   4.841  0.00  0.00    +0.048 C 
ENDBRANCH  29  30
ENDBRANCH   3  29
TORSDOF 14
