REMARK  Name = ZINC12152675
REMARK  9 active torsions:
REMARK  status: ('A' for Active; 'I' for Inactive)
REMARK    1  A    between atoms: C_3  and  O_31
REMARK    2  A    between atoms: C_6  and  C_7
REMARK    3  A    between atoms: C_7  and  N_66
REMARK    4  A    between atoms: C_8  and  N_66
REMARK    5  A    between atoms: N_11  and  C_14
REMARK    6  A    between atoms: C_17  and  C_20
REMARK    7  A    between atoms: C_26  and  C_29
REMARK    8  A    between atoms: C_29  and  O_30
REMARK    9  A    between atoms: O_31  and  C_32
REMARK                            x       y       z     vdW  Elec       q    Type
REMARK                         _______ _______ _______ _____ _____    ______ ____
ROOT
ATOM      1  C   UNL     1       1.099   3.468  -0.796  0.00  0.00    -0.068 C 
ATOM      2  C   UNL     1       1.965   3.880  -1.989  0.00  0.00    +0.003 C 
ATOM      3  C   UNL     1       2.010   5.407  -2.078  0.00  0.00    +0.103 C 
ATOM      4  N   UNL     1       2.566   5.955  -0.834  0.00  0.00    -0.330 N 
ATOM      5  C   UNL     1       1.724   5.613   0.320  0.00  0.00    +0.103 C 
ATOM      6  C   UNL     1       1.671   4.091   0.480  0.00  0.00    +0.003 C 
ENDROOT
BRANCH   4   7
ATOM      7  C   UNL     1       2.742   7.331  -0.931  0.00  0.00    +0.030 A 
ATOM      8  C   UNL     1       2.144   8.175   0.000  0.00  0.00    +0.024 A 
ATOM      9  C   UNL     1       2.322   9.537  -0.089  0.00  0.00    +0.015 A 
ATOM     10  C   UNL     1       3.094  10.073  -1.124  0.00  0.00    +0.037 A 
ATOM     11  C   UNL     1       3.689   9.223  -2.061  0.00  0.00    +0.015 A 
ATOM     12  C   UNL     1       3.512   7.862  -1.963  0.00  0.00    +0.024 A 
BRANCH  10  13
ATOM     13  C   UNL     1       3.282  11.533  -1.226  0.00  0.00    +0.247 C 
ATOM     14  O   UNL     1       3.314  12.066  -2.319  0.00  0.00    -0.270 OA
ATOM     15  N   UNL     1       3.417  12.275  -0.110  0.00  0.00    -0.297 N 
ATOM     16  C   UNL     1       3.504  11.634   1.210  0.00  0.00    +0.108 C 
ATOM     17  C   UNL     1       4.765  12.135   1.920  0.00  0.00    +0.019 C 
ATOM     18  C   UNL     1       4.747  13.664   1.964  0.00  0.00    +0.009 C 
ATOM     19  C   UNL     1       4.744  14.218   0.538  0.00  0.00    +0.032 C 
ATOM     20  C   UNL     1       3.488  13.740  -0.189  0.00  0.00    +0.113 C 
BRANCH  19  21
ATOM     21  C   UNL     1       4.760  15.747   0.583  0.00  0.00    +0.160 C 
BRANCH  21  22
ATOM     22  O   UNL     1       4.874  16.262  -0.745  0.00  0.00    -0.395 OA
ATOM     23  H   UNL     1       4.890  17.228  -0.792  0.00  0.00    +0.209 HD
ENDBRANCH  21  22
ENDBRANCH  19  21
ENDBRANCH  10  13
ENDBRANCH   4   7
BRANCH   1  24
ATOM     24  N   UNL     1       1.106   1.999  -0.664  0.00  0.00    +0.384 N 
ATOM     25  H   UNL     1       2.028   1.639  -0.937  0.00  0.00    -0.085 HD
ATOM     26  H   UNL     1       0.915   1.746   0.312  0.00  0.00    -0.085 HD
BRANCH  24  27
ATOM     27  C   UNL     1       0.074   1.402  -1.533  0.00  0.00    -0.046 C 
BRANCH  27  33
ATOM     28  C   UNL     1       0.911  -0.860  -2.203  0.00  0.00    +0.005 A 
ATOM     29  C   UNL     1       0.946  -2.233  -2.059  0.00  0.00    +0.046 A 
ATOM     30  C   UNL     1       0.163  -2.848  -1.093  0.00  0.00    +0.130 A 
ATOM     31  C   UNL     1      -0.649  -2.081  -0.270  0.00  0.00    +0.046 A 
ATOM     32  C   UNL     1      -0.676  -0.707  -0.414  0.00  0.00    +0.005 A 
ATOM     33  C   UNL     1       0.105  -0.097  -1.377  0.00  0.00    -0.064 A 
BRANCH  30  34
ATOM     34  O   UNL     1       0.191  -4.200  -0.952  0.00  0.00    -0.406 OA
BRANCH  34  35
ATOM     35  C   UNL     1       1.050  -4.926  -1.834  0.00  0.00    +0.575 C 
ATOM     36  F   UNL     1       2.370  -4.501  -1.653  0.00  0.00    -0.133 F 
ATOM     37  F   UNL     1       0.957  -6.293  -1.554  0.00  0.00    -0.133 F 
ATOM     38  F   UNL     1       0.662  -4.693  -3.158  0.00  0.00    -0.133 F 
ENDBRANCH  34  35
ENDBRANCH  30  34
ENDBRANCH  27  33
ENDBRANCH  24  27
ENDBRANCH   1  24
TORSDOF 9
