REMARK  Name = ZINC08817132
REMARK  17 active torsions:
REMARK  status: ('A' for Active; 'I' for Inactive)
REMARK    1  A    between atoms: C_1  and  C_2
REMARK    2  A    between atoms: C_2  and  C_3
REMARK    3  A    between atoms: C_3  and  O_4
REMARK    4  A    between atoms: O_4  and  C_5
REMARK    5  A    between atoms: C_8  and  C_11
REMARK    6  A    between atoms: C_14  and  C_15
REMARK    7  A    between atoms: C_14  and  O_27
REMARK    8  A    between atoms: C_18  and  S_21
REMARK    9  A    between atoms: S_21  and  N_24
REMARK   10  A    between atoms: N_24  and  C_25
REMARK   11  A    between atoms: N_24  and  C_26
REMARK   12  A    between atoms: N_32  and  C_33
REMARK   13  A    between atoms: C_33  and  C_34
REMARK   14  A    between atoms: C_34  and  C_35
REMARK   15  A    between atoms: C_35  and  N_72
REMARK   16  A    between atoms: C_36  and  N_72
REMARK   17  A    between atoms: C_37  and  N_72
REMARK                            x       y       z     vdW  Elec       q    Type
REMARK                         _______ _______ _______ _____ _____    ______ ____
ROOT
ATOM      1  C   UNL     1       5.048   1.216  -0.263  0.00  0.00    +0.144 C 
ATOM      2  C   UNL     1       3.656   1.788  -0.126  0.00  0.00    +0.071 C 
ATOM      3  C   UNL     1       2.477   1.080  -0.015  0.00  0.00    +0.133 C 
ATOM      4  C   UNL     1       3.803   3.184  -0.142  0.00  0.00    +0.249 C 
ATOM      5  O   UNL     1       2.902   3.999  -0.059  0.00  0.00    -0.282 OA
ATOM      6  C   UNL     1       5.253   3.495  -0.275  0.00  0.00    +0.288 C 
ATOM      7  O   UNL     1       5.723   4.614  -0.317  0.00  0.00    -0.266 OA
ATOM      8  N   UNL     1       5.964   2.358  -0.347  0.00  0.00    -0.284 N 
ENDROOT
BRANCH   1  12
ATOM      9  C   UNL     1       5.994  -1.167   3.156  0.00  0.00    +0.121 A 
ATOM     10  C   UNL     1       5.613  -1.775   1.969  0.00  0.00    +0.046 A 
ATOM     11  C   UNL     1       5.308  -1.002   0.865  0.00  0.00    +0.009 A 
ATOM     12  C   UNL     1       5.382   0.376   0.943  0.00  0.00    -0.022 A 
ATOM     13  C   UNL     1       5.766   0.984   2.123  0.00  0.00    +0.009 A 
ATOM     14  C   UNL     1       6.067   0.216   3.232  0.00  0.00    +0.046 A 
BRANCH   9  15
ATOM     15  O   UNL     1       6.294  -1.925   4.243  0.00  0.00    -0.492 OA
BRANCH  15  16
ATOM     16  C   UNL     1       6.678  -1.231   5.432  0.00  0.00    +0.229 C 
BRANCH  16  18
ATOM     17  C   UNL     1       7.387  -1.500   7.812  0.00  0.00    +0.007 C 
ATOM     18  C   UNL     1       6.976  -2.243   6.540  0.00  0.00    +0.038 C 
ENDBRANCH  16  18
ENDBRANCH  15  16
ENDBRANCH   9  15
ENDBRANCH   1  12
BRANCH   3  19
ATOM     19  C   UNL     1       1.217   1.788   0.270  0.00  0.00    +0.017 A 
ATOM     20  C   UNL     1       1.144   2.694   1.333  0.00  0.00    +0.013 A 
ATOM     21  C   UNL     1      -0.040   3.349   1.597  0.00  0.00    +0.029 A 
ATOM     22  C   UNL     1      -1.152   3.120   0.806  0.00  0.00    +0.105 A 
ATOM     23  C   UNL     1      -1.089   2.225  -0.248  0.00  0.00    +0.029 A 
ATOM     24  C   UNL     1       0.087   1.558  -0.521  0.00  0.00    +0.013 A 
BRANCH  22  25
ATOM     25  S   UNL     1      -2.659   3.967   1.146  0.00  0.00    +0.060 S 
ATOM     26  O   UNL     1      -2.309   5.155   1.843  0.00  0.00    -0.153 OA
ATOM     27  O   UNL     1      -3.398   3.986  -0.067  0.00  0.00    -0.153 OA
BRANCH  25  28
ATOM     28  N   UNL     1      -3.518   3.031   2.209  0.00  0.00    -0.183 NA
ATOM     29  C   UNL     1      -3.343   3.213   3.652  0.00  0.00    +0.131 C 
ATOM     30  C   UNL     1      -4.453   2.022   1.706  0.00  0.00    +0.131 C 
ENDBRANCH  25  28
ENDBRANCH  22  25
ENDBRANCH   3  19
BRANCH   3  31
ATOM     31  O   UNL     1       2.478  -0.262  -0.167  0.00  0.00    -0.506 OA
ATOM     32  H   UNL     1       1.548  -0.611  -0.055  0.00  0.00    +0.292 HD
ENDBRANCH   3  31
BRANCH   8  33
ATOM     33  C   UNL     1       7.420   2.272  -0.488  0.00  0.00    +0.107 C 
BRANCH  33  34
ATOM     34  C   UNL     1       7.788   2.247  -1.973  0.00  0.00    +0.000 C 
BRANCH  34  35
ATOM     35  C   UNL     1       9.308   2.157  -2.119  0.00  0.00    -0.078 C 
BRANCH  35  38
ATOM     36  C   UNL     1      11.111   2.286  -3.731  0.00  0.00    -0.097 C 
ATOM     37  C   UNL     1       9.176   0.904  -4.187  0.00  0.00    -0.097 C 
ATOM     38  N   UNL     1       9.649   2.155  -3.558  0.00  0.00    +0.376 N 
ATOM     39  H   UNL     1       9.187   2.952  -4.011  0.00  0.00    -0.083 HD
ENDBRANCH  35  38
ENDBRANCH  34  35
ENDBRANCH  33  34
ENDBRANCH   8  33
TORSDOF 12
