REMARK  Name = ZINC01870305
REMARK  3 active torsions:
REMARK  status: ('A' for Active; 'I' for Inactive)
REMARK    1  A    between atoms: C_3  and  P_15
REMARK    2  A    between atoms: C_6  and  O_7
REMARK    3  A    between atoms: O_7  and  C_8
REMARK                            x       y       z     vdW  Elec       q    Type
REMARK                         _______ _______ _______ _____ _____    ______ ____
ROOT
ATOM      1  C   UNL     1      -2.914   2.299   2.786  0.00  0.00    +0.047 A 
ATOM      2  C   UNL     1      -2.286   1.854   1.639  0.00  0.00    +0.019 A 
ATOM      3  C   UNL     1      -0.929   2.061   1.468  0.00  0.00    +0.068 A 
ATOM      4  C   UNL     1      -0.197   2.708   2.446  0.00  0.00    +0.019 A 
ATOM      5  C   UNL     1      -0.821   3.159   3.593  0.00  0.00    +0.047 A 
ATOM      6  C   UNL     1      -2.183   2.953   3.767  0.00  0.00    +0.128 A 
ENDROOT
BRANCH   3   7
ATOM      7  P   UNL     1      -0.107   1.476  -0.040  0.00  0.00    +0.417 P 
ATOM      8  O   UNL     1      -0.158  -0.003  -0.087  0.00  0.00    -0.249 OA
ATOM      9  O   UNL     1       1.428   1.960  -0.037  0.00  0.00    -0.135 OA
ATOM     10  O   UNL     1      -0.858   2.080  -1.329  0.00  0.00    -0.135 OA
ENDBRANCH   3   7
BRANCH   6  11
ATOM     11  O   UNL     1      -2.798   3.392   4.896  0.00  0.00    -0.456 OA
BRANCH  11  12
ATOM     12  C   UNL     1      -3.279   2.463   5.763  0.00  0.00    +0.129 A 
ATOM     13  C   UNL     1      -3.029   1.115   5.546  0.00  0.00    +0.047 A 
ATOM     14  C   UNL     1      -3.514   0.173   6.432  0.00  0.00    +0.019 A 
ATOM     15  C   UNL     1      -4.258   0.571   7.528  0.00  0.00    +0.018 A 
ATOM     16  C   UNL     1      -4.513   1.913   7.743  0.00  0.00    +0.019 A 
ATOM     17  C   UNL     1      -4.025   2.860   6.864  0.00  0.00    +0.047 A 
ATOM     18 BR   UNL     1      -4.927  -0.723   8.735  0.00  0.00    -0.050 Br
ENDBRANCH  11  12
ENDBRANCH   6  11
TORSDOF 3
