REMARK  Name = ZINC01375294
REMARK  14 active torsions:
REMARK  status: ('A' for Active; 'I' for Inactive)
REMARK    1  A    between atoms: C_1  and  C_2
REMARK    2  A    between atoms: C_2  and  C_3
REMARK    3  A    between atoms: C_3  and  C_5
REMARK    4  A    between atoms: C_3  and  N_19
REMARK    5  A    between atoms: N_9  and  C_10
REMARK    6  A    between atoms: C_10  and  C_11
REMARK    7  A    between atoms: C_14  and  O_17
REMARK    8  A    between atoms: O_17  and  C_18
REMARK    9  A    between atoms: N_19  and  C_20
REMARK   10  A    between atoms: N_19  and  C_26
REMARK   11  A    between atoms: C_20  and  C_21
REMARK   12  A    between atoms: C_26  and  C_27
REMARK   13  A    between atoms: C_30  and  C_40
REMARK   14  A    between atoms: C_32  and  C_39
REMARK                            x       y       z     vdW  Elec       q    Type
REMARK                         _______ _______ _______ _____ _____    ______ ____
ROOT
ATOM      1  N   UNL     1       1.789   0.854  -1.399  0.00  0.00    -0.284 NA
ENDROOT
BRANCH   1   2
ATOM      2  C   UNL     1       1.319  -0.509  -1.118  0.00  0.00    +0.127 C 
BRANCH   2   3
ATOM      3  C   UNL     1       0.627  -0.536   0.221  0.00  0.00    +0.169 A 
ATOM      4  N   UNL     1       0.314   0.500   0.961  0.00  0.00    -0.112 NA
ATOM      5  N   UNL     1      -0.265   0.066   2.027  0.00  0.00    -0.023 NA
ATOM      6  N   UNL     1      -0.330  -1.219   1.987  0.00  0.00    -0.044 NA
ATOM      7  N   UNL     1       0.205  -1.627   0.886  0.00  0.00    -0.223 N 
BRANCH   7   8
ATOM      8  C   UNL     1       0.332  -3.019   0.444  0.00  0.00    +0.182 C 
BRANCH   8   9
ATOM      9  C   UNL     1       1.636  -3.587   0.942  0.00  0.00    -0.026 A 
ATOM     10  C   UNL     1       2.777  -3.474   0.171  0.00  0.00    +0.009 A 
ATOM     11  C   UNL     1       3.974  -3.995   0.625  0.00  0.00    +0.046 A 
ATOM     12  C   UNL     1       4.029  -4.630   1.857  0.00  0.00    +0.120 A 
ATOM     13  C   UNL     1       2.882  -4.742   2.630  0.00  0.00    +0.046 A 
ATOM     14  C   UNL     1       1.689  -4.215   2.173  0.00  0.00    +0.009 A 
BRANCH  12  15
ATOM     15  O   UNL     1       5.204  -5.144   2.306  0.00  0.00    -0.495 OA
ATOM     16  C   UNL     1       5.187  -5.785   3.583  0.00  0.00    +0.277 C 
ENDBRANCH  12  15
ENDBRANCH   8   9
ENDBRANCH   7   8
ENDBRANCH   2   3
BRANCH   2  18
ATOM     17  C   UNL     1       1.038  -0.912  -3.567  0.00  0.00    +0.006 C 
ATOM     18  C   UNL     1       0.337  -0.945  -2.208  0.00  0.00    +0.023 C 
ENDBRANCH   2  18
ENDBRANCH   1   2
BRANCH   1  19
ATOM     19  C   UNL     1       2.880   0.842  -2.382  0.00  0.00    +0.127 C 
BRANCH  19  20
ATOM     20  C   UNL     1       3.588   2.172  -2.364  0.00  0.00    +0.004 A 
ATOM     21  C   UNL     1       4.665   2.557  -1.636  0.00  0.00    +0.012 A 
ATOM     22  C   UNL     1       5.149   3.843  -1.784  0.00  0.00    +0.008 A 
ATOM     23  C   UNL     1       4.534   4.681  -2.652  0.00  0.00    +0.045 A 
ATOM     24  S   UNL     1       3.229   3.649  -3.301  0.00  0.00    -0.100 S 
ENDBRANCH  19  20
ENDBRANCH   1  19
BRANCH   1  25
ATOM     25  C   UNL     1       0.684   1.710  -1.849  0.00  0.00    +0.126 C 
BRANCH  25  26
ATOM     26  C   UNL     1      -0.141   2.132  -0.661  0.00  0.00    +0.032 A 
ATOM     27  C   UNL     1       0.318   3.101   0.170  0.00  0.00    +0.020 A 
ATOM     28  C   UNL     1      -0.508   3.489   1.315  0.00  0.00    +0.002 A 
ATOM     29  C   UNL     1      -0.088   4.481   2.207  0.00  0.00    -0.041 A 
ATOM     30  C   UNL     1      -0.882   4.820   3.266  0.00  0.00    +0.007 A 
ATOM     31  C   UNL     1      -2.102   4.188   3.465  0.00  0.00    -0.048 A 
ATOM     32  C   UNL     1      -2.536   3.207   2.599  0.00  0.00    +0.029 A 
ATOM     33  C   UNL     1      -1.745   2.846   1.514  0.00  0.00    +0.050 A 
ATOM     34  N   UNL     1      -2.154   1.869   0.632  0.00  0.00    -0.322 N 
ATOM     35  H   UNL     1      -3.006   1.427   0.770  0.00  0.00    +0.169 HD
ATOM     36  C   UNL     1      -1.391   1.523  -0.420  0.00  0.00    +0.254 A 
ATOM     37  O   UNL     1      -1.787   0.658  -1.183  0.00  0.00    -0.268 OA
ATOM     38  C   UNL     1      -2.961   4.578   4.640  0.00  0.00    +0.044 C 
ATOM     39  C   UNL     1       1.234   5.173   2.001  0.00  0.00    +0.044 C 
ENDBRANCH  25  26
ENDBRANCH   1  25
TORSDOF 10
