REMARK  Name = ZINC00888073
REMARK  12 active torsions:
REMARK  status: ('A' for Active; 'I' for Inactive)
REMARK    1  A    between atoms: C_1  and  C_2
REMARK    2  A    between atoms: C_5  and  C_8
REMARK    3  A    between atoms: N_11  and  C_13
REMARK    4  A    between atoms: C_13  and  C_14
REMARK    5  A    between atoms: N_16  and  C_17
REMARK    6  A    between atoms: N_16  and  C_24
REMARK    7  A    between atoms: C_20  and  C_23
REMARK    8  A    between atoms: C_24  and  C_26
REMARK    9  A    between atoms: C_24  and  C_32
REMARK   10  A    between atoms: C_29  and  C_31
REMARK   11  A    between atoms: N_34  and  C_35
REMARK   12  A    between atoms: C_35  and  C_36
REMARK                            x       y       z     vdW  Elec       q    Type
REMARK                         _______ _______ _______ _____ _____    ______ ____
ROOT
ATOM      1  C   UNL     1       1.536  -7.673   2.020  0.00  0.00    +0.244 C 
ATOM      2  O   UNL     1       2.422  -7.080   1.444  0.00  0.00    -0.273 OA
ATOM      3  N   UNL     1       1.788  -8.863   2.601  0.00  0.00    -0.251 N 
ENDROOT
BRANCH   3   4
ATOM      4  C   UNL     1       0.737  -9.620   3.130  0.00  0.00    +0.038 A 
ATOM      5  C   UNL     1       0.993 -10.592   4.089  0.00  0.00    +0.024 A 
ATOM      6  C   UNL     1      -0.047 -11.337   4.609  0.00  0.00    +0.005 A 
ATOM      7  C   UNL     1      -1.342 -11.117   4.177  0.00  0.00    -0.050 A 
ATOM      8  C   UNL     1      -1.600 -10.150   3.223  0.00  0.00    +0.005 A 
ATOM      9  C   UNL     1      -0.566  -9.397   2.703  0.00  0.00    +0.024 A 
ATOM     10  C   UNL     1      -2.474 -11.932   4.747  0.00  0.00    +0.044 C 
ENDBRANCH   3   4
BRANCH   1  11
ATOM     11  C   UNL     1       0.151  -7.080   2.087  0.00  0.00    +0.264 C 
BRANCH  11  15
ATOM     12  C   UNL     1       0.407  -3.607   2.650  0.00  0.00    +0.205 A 
ATOM     13  N   UNL     1       0.329  -3.657   1.313  0.00  0.00    -0.108 NA
ATOM     14  N   UNL     1       0.230  -4.899   0.982  0.00  0.00    -0.045 NA
ATOM     15  N   UNL     1       0.244  -5.619   2.049  0.00  0.00    -0.154 N 
ATOM     16  N   UNL     1       0.357  -4.852   3.079  0.00  0.00    -0.130 NA
BRANCH  12  21
ATOM     17  C   UNL     1       0.894   1.129   5.893  0.00  0.00    +0.044 C 
ATOM     18  C   UNL     1       0.767  -0.110   5.044  0.00  0.00    -0.050 A 
ATOM     19  C   UNL     1       0.690   0.002   3.668  0.00  0.00    +0.004 A 
ATOM     20  C   UNL     1       0.574  -1.129   2.886  0.00  0.00    +0.012 A 
ATOM     21  C   UNL     1       0.533  -2.386   3.486  0.00  0.00    +0.023 A 
ATOM     22  C   UNL     1       0.611  -2.493   4.873  0.00  0.00    +0.012 A 
ATOM     23  C   UNL     1       0.732  -1.355   5.645  0.00  0.00    +0.004 A 
ENDBRANCH  12  21
ENDBRANCH  11  15
ENDBRANCH   1  11
BRANCH   3  24
ATOM     24  C   UNL     1       3.162  -9.364   2.678  0.00  0.00    +0.233 C 
BRANCH  24  25
ATOM     25  C   UNL     1       3.259 -10.680   1.950  0.00  0.00    +0.135 A 
ATOM     26  C   UNL     1       4.282 -11.075   1.171  0.00  0.00    +0.047 A 
ATOM     27  C   UNL     1       3.958 -12.366   0.693  0.00  0.00    +0.045 A 
ATOM     28  C   UNL     1       2.757 -12.682   1.210  0.00  0.00    +0.102 A 
ATOM     29  O   UNL     1       2.341 -11.660   1.975  0.00  0.00    -0.462 OA
ATOM     30  C   UNL     1       2.008 -13.969   0.974  0.00  0.00    +0.086 C 
ENDBRANCH  24  25
BRANCH  24  31
ATOM     31  C   UNL     1       3.546  -9.559   4.122  0.00  0.00    +0.242 C 
ATOM     32  O   UNL     1       2.749  -9.305   5.001  0.00  0.00    -0.273 OA
ATOM     33  N   UNL     1       4.774 -10.016   4.438  0.00  0.00    -0.309 N 
ATOM     34  H   UNL     1       5.411 -10.219   3.735  0.00  0.00    +0.149 HD
BRANCH  33  35
ATOM     35  C   UNL     1       5.146 -10.206   5.841  0.00  0.00    +0.139 C 
BRANCH  35  36
ATOM     36  C   UNL     1       6.561 -10.721   5.921  0.00  0.00    -0.030 A 
ATOM     37  C   UNL     1       6.801 -12.082   5.907  0.00  0.00    +0.008 A 
ATOM     38  C   UNL     1       8.098 -12.556   5.979  0.00  0.00    +0.038 A 
ATOM     39  C   UNL     1       9.155 -11.666   6.065  0.00  0.00    +0.123 A 
ATOM     40  C   UNL     1       8.913 -10.303   6.078  0.00  0.00    +0.038 A 
ATOM     41  C   UNL     1       7.616  -9.832   6.001  0.00  0.00    +0.008 A 
ATOM     42  F   UNL     1      10.423 -12.128   6.136  0.00  0.00    -0.205 F 
ENDBRANCH  35  36
ENDBRANCH  33  35
ENDBRANCH  24  31
ENDBRANCH   3  24
TORSDOF 9
