REMARK  Name = ZINC63386256
REMARK  10 active torsions:
REMARK  status: ('A' for Active; 'I' for Inactive)
REMARK    1  A    between atoms: C_1  and  C_2
REMARK    2  A    between atoms: C_2  and  C_3
REMARK    3  A    between atoms: C_16  and  C_19
REMARK    4  A    between atoms: N_25  and  C_28
REMARK    5  A    between atoms: C_28  and  C_29
REMARK    6  A    between atoms: C_29  and  C_30
REMARK    7  A    between atoms: C_33  and  O_38
REMARK    8  A    between atoms: C_34  and  O_36
REMARK    9  A    between atoms: O_36  and  C_37
REMARK   10  A    between atoms: O_38  and  C_39
REMARK                            x       y       z     vdW  Elec       q    Type
REMARK                         _______ _______ _______ _____ _____    ______ ____
ROOT
ATOM      1  C   UNL     1      -4.213   0.107  -2.423  0.00  0.00    +0.070 A 
ATOM      2  H   UNL     1      -6.697   1.992  -3.296  0.00  0.00    +0.173 HD
ATOM      3  C   UNL     1      -5.313   0.899  -2.280  0.00  0.00    +0.259 A 
ATOM      4  N   UNL     1      -5.915   1.428  -3.394  0.00  0.00    -0.275 N 
ATOM      5  C   UNL     1      -5.426   1.168  -4.620  0.00  0.00    +0.332 A 
ATOM      6  O   UNL     1      -5.972   1.645  -5.596  0.00  0.00    -0.246 OA
ATOM      7  N   UNL     1      -4.341   0.389  -4.783  0.00  0.00    -0.260 N 
ATOM      8  C   UNL     1      -3.717  -0.145  -3.715  0.00  0.00    +0.262 A 
ATOM      9  O   UNL     1      -2.731  -0.847  -3.867  0.00  0.00    -0.267 OA
ATOM     10  O   UNL     1      -5.807   1.161  -1.051  0.00  0.00    -0.267 OA
ENDROOT
BRANCH   1  22
ATOM     11  C   UNL     1      -1.433  -0.534   0.013  0.00  0.00    -0.067 C 
ATOM     12  C   UNL     1      -1.409  -2.068   0.140  0.00  0.00    +0.018 C 
ATOM     13  C   UNL     1      -2.830  -2.527  -0.077  0.00  0.00    -0.041 C 
ATOM     14  C   UNL     1      -3.619  -3.349   0.599  0.00  0.00    -0.001 A 
ATOM     15  C   UNL     1      -3.362  -4.238   1.743  0.00  0.00    +0.010 A 
ATOM     16  C   UNL     1      -4.430  -4.934   2.213  0.00  0.00    +0.001 A 
ATOM     17  C   UNL     1      -5.714  -4.837   1.667  0.00  0.00    +0.002 A 
ATOM     18  C   UNL     1      -6.038  -4.054   0.607  0.00  0.00    +0.026 A 
ATOM     19  C   UNL     1      -4.996  -3.281   0.018  0.00  0.00    +0.043 A 
ATOM     20  N   UNL     1      -5.018  -2.482  -1.008  0.00  0.00    -0.379 N 
ATOM     21  C   UNL     1      -3.657  -2.010  -1.251  0.00  0.00    +0.097 C 
ATOM     22  C   UNL     1      -3.535  -0.486  -1.215  0.00  0.00    -0.003 C 
ATOM     23  N   UNL     1      -2.105  -0.139  -1.228  0.00  0.00    +0.387 N 
ATOM     24  H   UNL     1      -2.012   0.858  -1.348  0.00  0.00    -0.085 HD
ATOM     25  H   UNL     1      -5.803  -2.241  -1.524  0.00  0.00    +0.160 HD
ATOM     26  H   UNL     1      -1.659  -0.605  -2.004  0.00  0.00    -0.085 HD
BRANCH  11  28
ATOM     27  C   UNL     1      -0.019   1.526   0.010  0.00  0.00    +0.002 C 
ATOM     28  C   UNL     1       0.002  -0.004   0.002  0.00  0.00    -0.019 C 
ENDBRANCH  11  28
ENDBRANCH   1  22
BRANCH   7  29
ATOM     29  C   UNL     1      -3.831   0.124  -6.131  0.00  0.00    +0.134 C 
BRANCH  29  30
ATOM     30  C   UNL     1      -2.805   1.195  -6.507  0.00  0.00    +0.057 C 
BRANCH  30  31
ATOM     31  C   UNL     1      -2.281   0.922  -7.894  0.00  0.00    -0.042 A 
ATOM     32  C   UNL     1      -1.170   0.117  -8.065  0.00  0.00    +0.007 A 
ATOM     33  C   UNL     1      -0.685  -0.136  -9.335  0.00  0.00    +0.049 A 
ATOM     34  C   UNL     1      -1.314   0.417 -10.439  0.00  0.00    +0.161 A 
ATOM     35  C   UNL     1      -2.432   1.227 -10.267  0.00  0.00    +0.162 A 
ATOM     36  C   UNL     1      -2.916   1.473  -8.992  0.00  0.00    +0.053 A 
BRANCH  35  37
ATOM     37  O   UNL     1      -3.052   1.772 -11.347  0.00  0.00    -0.491 OA
ATOM     38  C   UNL     1      -4.194   2.593 -11.095  0.00  0.00    +0.277 C 
ENDBRANCH  35  37
BRANCH  34  39
ATOM     39  O   UNL     1      -0.838   0.170 -11.689  0.00  0.00    -0.491 OA
ATOM     40  C   UNL     1       0.314  -0.670 -11.790  0.00  0.00    +0.277 C 
ENDBRANCH  34  39
ENDBRANCH  30  31
ENDBRANCH  29  30
ENDBRANCH   7  29
TORSDOF 7
