REMARK  Name = ZINC53114944
REMARK  7 active torsions:
REMARK  status: ('A' for Active; 'I' for Inactive)
REMARK    1  A    between atoms: C_1  and  C_2
REMARK    2  A    between atoms: C_6  and  N_12
REMARK    3  A    between atoms: C_7  and  N_11
REMARK    4  A    between atoms: N_12  and  C_13
REMARK    5  A    between atoms: C_13  and  C_21
REMARK    6  A    between atoms: C_17  and  C_20
REMARK    7  A    between atoms: C_21  and  O_22
REMARK                            x       y       z     vdW  Elec       q    Type
REMARK                         _______ _______ _______ _____ _____    ______ ____
ROOT
ATOM      1  C   UNL     1      -2.467  -9.061   6.399  0.00  0.00    +0.073 C 
ATOM      2  C   UNL     1      -1.960  -8.467   5.110  0.00  0.00    +0.076 A 
ATOM      3  N   UNL     1      -2.633  -7.791   4.226  0.00  0.00    -0.244 NA
ATOM      4  C   UNL     1      -2.060  -7.309   3.102  0.00  0.00    +0.080 A 
ATOM      5  C   UNL     1      -2.630  -6.563   2.047  0.00  0.00    +0.053 A 
ATOM      6  C   UNL     1      -1.862  -6.165   0.979  0.00  0.00    +0.051 A 
ATOM      7  C   UNL     1      -0.501  -6.484   0.906  0.00  0.00    +0.047 A 
ATOM      8  C   UNL     1       0.082  -7.214   1.929  0.00  0.00    +0.041 A 
ATOM      9  C   UNL     1      -0.685  -7.613   2.998  0.00  0.00    +0.041 A 
ATOM     10  S   UNL     1      -0.396  -8.524   4.493  0.00  0.00    -0.072 S 
ENDROOT
BRANCH   7  11
ATOM     11  N   UNL     1       0.265  -6.069  -0.192  0.00  0.00    -0.357 N 
ATOM     12  H   UNL     1      -0.148  -5.558  -0.906  0.00  0.00    +0.142 HD
ATOM     13  H   UNL     1       1.208  -6.292  -0.238  0.00  0.00    +0.142 HD
ENDBRANCH   7  11
BRANCH   6  14
ATOM     14  N   UNL     1      -2.452  -5.427  -0.056  0.00  0.00    -0.335 N 
ATOM     15  H   UNL     1      -1.902  -5.063  -0.768  0.00  0.00    +0.147 HD
BRANCH  14  16
ATOM     16  C   UNL     1      -3.900  -5.203  -0.063  0.00  0.00    +0.055 C 
ATOM     17  C   UNL     1      -4.300  -4.490  -1.356  0.00  0.00    +0.028 C 
ATOM     18  C   UNL     1      -3.911  -5.355  -2.557  0.00  0.00    +0.002 C 
ATOM     19  C   UNL     1      -4.635  -6.700  -2.472  0.00  0.00    +0.003 C 
ATOM     20  C   UNL     1      -4.235  -7.414  -1.179  0.00  0.00    -0.012 C 
ATOM     21  C   UNL     1      -4.624  -6.549   0.022  0.00  0.00    +0.031 C 
ATOM     22  C   UNL     1      -4.959  -8.759  -1.093  0.00  0.00    +0.007 C 
BRANCH  16  23
ATOM     23  C   UNL     1      -4.288  -4.338   1.137  0.00  0.00    +0.181 C 
BRANCH  23  24
ATOM     24  O   UNL     1      -3.645  -3.066   1.036  0.00  0.00    -0.393 OA
ATOM     25  H   UNL     1      -3.847  -2.464   1.766  0.00  0.00    +0.209 HD
ENDBRANCH  23  24
ENDBRANCH  16  23
ENDBRANCH  14  16
ENDBRANCH   6  14
TORSDOF 5
