REMARK  Name = ZINC02094334
REMARK  5 active torsions:
REMARK  status: ('A' for Active; 'I' for Inactive)
REMARK    1  A    between atoms: C_4  and  C_7
REMARK    2  A    between atoms: C_7  and  C_8
REMARK    3  A    between atoms: C_8  and  C_10
REMARK    4  A    between atoms: C_8  and  N_20
REMARK    5  A    between atoms: N_12  and  C_13
REMARK                            x       y       z     vdW  Elec       q    Type
REMARK                         _______ _______ _______ _____ _____    ______ ____
ROOT
ATOM      1  C   UNL     1       2.510   1.077   0.069  0.00  0.00    +0.165 C 
ENDROOT
BRANCH   1   2
ATOM      2  N   UNL     1       3.676   1.964   0.044  0.00  0.00    -0.288 N 
ATOM      3  C   UNL     1       4.821   1.555  -0.538  0.00  0.00    +0.303 C 
ATOM      4  O   UNL     1       4.858   0.492  -1.126  0.00  0.00    -0.253 OA
ATOM      5  N   UNL     1       5.924   2.326  -0.469  0.00  0.00    -0.285 N 
ATOM      6  C   UNL     1       5.930   3.557   0.330  0.00  0.00    +0.114 C 
ATOM      7  C   UNL     1       6.456   4.721  -0.500  0.00  0.00    +0.027 C 
ATOM      8  C   UNL     1       7.778   4.359  -1.178  0.00  0.00    +0.018 C 
ATOM      9  C   UNL     1       7.543   3.145  -2.080  0.00  0.00    +0.054 C 
ATOM     10  C   UNL     1       7.152   1.948  -1.188  0.00  0.00    +0.119 C 
ATOM     11  C   UNL     1       6.389   3.421  -3.016  0.00  0.00    +0.027 A 
ATOM     12  C   UNL     1       6.355   2.731  -4.186  0.00  0.00    +0.022 A 
ATOM     13  C   UNL     1       5.253   2.835  -5.042  0.00  0.00    +0.007 A 
ATOM     14  C   UNL     1       4.207   3.630  -4.674  0.00  0.00    +0.070 A 
ATOM     15  C   UNL     1       4.280   4.338  -3.467  0.00  0.00    +0.251 A 
ATOM     16  O   UNL     1       3.331   5.017  -3.107  0.00  0.00    -0.268 OA
ATOM     17  N   UNL     1       5.392   4.278  -2.694  0.00  0.00    -0.312 N 
ATOM     18  C   UNL     1       5.450   5.177  -1.542  0.00  0.00    +0.130 C 
ATOM     19  H   UNL     1       3.624   2.844   0.447  0.00  0.00    +0.151 HD
ENDBRANCH   1   2
BRANCH   1  20
ATOM     20  C   UNL     1       1.250   1.904   0.043  0.00  0.00    +0.238 C 
ATOM     21  O   UNL     1       1.319   3.114   0.007  0.00  0.00    -0.273 OA
ATOM     22  N   UNL     1       0.046   1.298   0.059  0.00  0.00    -0.282 N 
ATOM     23  H   UNL     1      -0.011   0.331   0.008  0.00  0.00    +0.155 HD
BRANCH  22  24
ATOM     24  C   UNL     1      -1.122   2.065   0.143  0.00  0.00    +0.069 A 
ATOM     25  C   UNL     1      -1.083   3.334   0.704  0.00  0.00    +0.026 A 
ATOM     26  C   UNL     1      -2.236   4.090   0.782  0.00  0.00    +0.002 A 
ATOM     27  C   UNL     1      -3.433   3.580   0.312  0.00  0.00    +0.003 A 
ATOM     28  C   UNL     1      -3.478   2.315  -0.243  0.00  0.00    +0.040 A 
ATOM     29  C   UNL     1      -2.326   1.554  -0.329  0.00  0.00    +0.144 A 
ATOM     30  F   UNL     1      -2.371   0.317  -0.870  0.00  0.00    -0.204 F 
ENDBRANCH  22  24
ENDBRANCH   1  20
BRANCH   1  31
ATOM     31  C   UNL     1       2.539   0.232   1.344  0.00  0.00    +0.067 C 
BRANCH  31  35
ATOM     32  C   UNL     1       5.907  -2.393   1.236  0.00  0.00    +0.000 A 
ATOM     33  C   UNL     1       5.998  -1.178   1.890  0.00  0.00    +0.000 A 
ATOM     34  C   UNL     1       4.908  -0.329   1.924  0.00  0.00    +0.004 A 
ATOM     35  C   UNL     1       3.727  -0.694   1.306  0.00  0.00    -0.045 A 
ATOM     36  C   UNL     1       3.635  -1.911   0.657  0.00  0.00    +0.004 A 
ATOM     37  C   UNL     1       4.726  -2.759   0.619  0.00  0.00    +0.000 A 
ENDBRANCH  31  35
ENDBRANCH   1  31
TORSDOF 5
