REMARK  Name = ZINC54025574
REMARK  8 active torsions:
REMARK  status: ('A' for Active; 'I' for Inactive)
REMARK    1  A    between atoms: C_3  and  C_6
REMARK    2  A    between atoms: C_6  and  C_8
REMARK    3  A    between atoms: C_6  and  N_24
REMARK    4  A    between atoms: C_8  and  N_9
REMARK    5  A    between atoms: N_12  and  C_13
REMARK    6  A    between atoms: C_13  and  C_14
REMARK    7  A    between atoms: C_17  and  S_20
REMARK    8  A    between atoms: S_20  and  N_23
REMARK                            x       y       z     vdW  Elec       q    Type
REMARK                         _______ _______ _______ _____ _____    ______ ____
ROOT
ATOM      1  N   UNL     1       5.594   0.205  -1.396  0.00  0.00    -0.301 N 
ATOM      2  C   UNL     1       6.287  -0.016  -2.530  0.00  0.00    +0.300 C 
ATOM      3  O   UNL     1       5.697  -0.192  -3.579  0.00  0.00    -0.253 OA
ATOM      4  N   UNL     1       7.634  -0.042  -2.503  0.00  0.00    -0.295 N 
ATOM      5  H   UNL     1       6.065   0.345  -0.559  0.00  0.00    +0.150 HD
ATOM      6  H   UNL     1       8.105   0.098  -1.666  0.00  0.00    +0.151 HD
ENDROOT
BRANCH   1   7
ATOM      7  C   UNL     1       4.130   0.234  -1.426  0.00  0.00    +0.098 C 
BRANCH   7   8
ATOM      8  C   UNL     1       3.599   0.632  -0.047  0.00  0.00    +0.016 C 
BRANCH   8   9
ATOM      9  N   UNL     1       2.133   0.536  -0.040  0.00  0.00    +0.387 N 
ATOM     10  C   UNL     1       1.712  -0.871  -0.262  0.00  0.00    -0.078 C 
ATOM     11  C   UNL     1       0.277  -0.907   0.321  0.00  0.00    -0.020 C 
ATOM     12  C   UNL     1       0.383   0.012   1.559  0.00  0.00    -0.020 C 
ATOM     13  C   UNL     1       1.604   0.910   1.290  0.00  0.00    -0.078 C 
ATOM     14  H   UNL     1       1.741   1.134  -0.751  0.00  0.00    -0.081 HD
ENDBRANCH   8   9
BRANCH   8  17
ATOM     15  C   UNL     1       5.064   3.832   1.049  0.00  0.00    +0.041 A 
ATOM     16  C   UNL     1       5.043   2.418   1.039  0.00  0.00    +0.043 A 
ATOM     17  C   UNL     1       4.011   2.050   0.259  0.00  0.00    +0.093 A 
ATOM     18  O   UNL     1       3.409   3.159  -0.201  0.00  0.00    -0.469 OA
ATOM     19  C   UNL     1       4.044   4.243   0.275  0.00  0.00    +0.195 A 
ENDBRANCH   8  17
ENDBRANCH   7   8
ENDBRANCH   1   7
BRANCH   4  20
ATOM     20  C   UNL     1       8.388  -0.283  -3.736  0.00  0.00    +0.141 C 
BRANCH  20  21
ATOM     21  C   UNL     1       9.864  -0.263  -3.435  0.00  0.00    -0.030 A 
ATOM     22  C   UNL     1      10.568   0.925  -3.504  0.00  0.00    +0.007 A 
ATOM     23  C   UNL     1      11.922   0.944  -3.228  0.00  0.00    +0.029 A 
ATOM     24  C   UNL     1      12.573  -0.226  -2.882  0.00  0.00    +0.105 A 
ATOM     25  C   UNL     1      11.869  -1.414  -2.812  0.00  0.00    +0.029 A 
ATOM     26  C   UNL     1      10.514  -1.431  -3.084  0.00  0.00    +0.007 A 
BRANCH  24  27
ATOM     27  S   UNL     1      14.299  -0.203  -2.531  0.00  0.00    +0.056 S 
ATOM     28  O   UNL     1      14.779  -1.520  -2.765  0.00  0.00    -0.153 OA
ATOM     29  O   UNL     1      14.834   0.932  -3.198  0.00  0.00    -0.153 OA
BRANCH  27  30
ATOM     30  N   UNL     1      14.465   0.080  -0.908  0.00  0.00    -0.204 NA
ATOM     31  H   UNL     1      13.678   0.196  -0.353  0.00  0.00    +0.144 HD
ATOM     32  H   UNL     1      15.349   0.130  -0.512  0.00  0.00    +0.144 HD
ENDBRANCH  27  30
ENDBRANCH  24  27
ENDBRANCH  20  21
ENDBRANCH   4  20
TORSDOF 8
