REMARK  Name = ZINC04556330
REMARK  6 active torsions:
REMARK  status: ('A' for Active; 'I' for Inactive)
REMARK    1  A    between atoms: C_1  and  C_2
REMARK    2  A    between atoms: C_2  and  N_47
REMARK    3  A    between atoms: C_10  and  O_26
REMARK    4  A    between atoms: C_12  and  C_15
REMARK    5  A    between atoms: C_16  and  C_17
REMARK    6  A    between atoms: C_21  and  N_23
REMARK                            x       y       z     vdW  Elec       q    Type
REMARK                         _______ _______ _______ _____ _____    ______ ____
ROOT
ATOM      1  C   UNL     1       0.719   1.708   0.985  0.00  0.00    -0.074 C 
ATOM      2  C   UNL     1      -0.193   2.346   2.036  0.00  0.00    +0.018 C 
ATOM      3  C   UNL     1      -1.520   1.601   2.036  0.00  0.00    -0.027 A 
ATOM      4  C   UNL     1      -1.856   0.822   0.979  0.00  0.00    -0.021 A 
ATOM      5  S   UNL     1      -3.446   0.158   1.392  0.00  0.00    -0.080 S 
ATOM      6  C   UNL     1      -3.654   0.896   2.921  0.00  0.00    +0.080 A 
ATOM      7  C   UNL     1      -2.490   1.654   3.112  0.00  0.00    +0.067 A 
ATOM      8  C   UNL     1      -2.378   2.417   4.381  0.00  0.00    +0.220 C 
ATOM      9  N   UNL     1      -3.450   2.532   5.117  0.00  0.00    -0.223 NA
ATOM     10  C   UNL     1      -4.765   2.021   4.753  0.00  0.00    +0.217 C 
ATOM     11  N   UNL     1      -4.666   0.859   3.850  0.00  0.00    -0.313 N 
ATOM     12  C   UNL     1      -1.040   0.595  -0.254  0.00  0.00    -0.035 C 
ATOM     13  H   UNL     1      -5.280   0.110   3.909  0.00  0.00    +0.149 HD
ATOM     14  N   UNL     1       0.006   1.645  -0.307  0.00  0.00    +0.383 N 
ATOM     15  H   UNL     1      -0.441   2.553  -0.486  0.00  0.00    -0.081 HD
ENDROOT
BRANCH  14  17
ATOM     16  C   UNL     1       0.242   1.519  -2.740  0.00  0.00    -0.017 C 
ATOM     17  C   UNL     1       0.960   1.355  -1.399  0.00  0.00    -0.082 C 
ENDBRANCH  14  17
BRANCH  10  18
ATOM     18  C   UNL     1      -5.543   3.112   4.064  0.00  0.00    +0.019 C 
ATOM     19  C   UNL     1      -6.745   3.451   4.509  0.00  0.00    +0.007 C 
BRANCH  19  20
ATOM     20  C   UNL     1      -7.396   2.648   5.566  0.00  0.00    -0.023 A 
ATOM     21  C   UNL     1      -7.282   1.257   5.559  0.00  0.00    +0.008 A 
ATOM     22  C   UNL     1      -7.888   0.514   6.551  0.00  0.00    +0.003 A 
ATOM     23  C   UNL     1      -8.615   1.144   7.546  0.00  0.00    +0.033 A 
ATOM     24  C   UNL     1      -8.734   2.522   7.556  0.00  0.00    +0.127 A 
ATOM     25  C   UNL     1      -8.130   3.277   6.572  0.00  0.00    +0.040 A 
BRANCH  24  26
ATOM     26  N   UNL     1      -9.513   3.188   8.624  0.00  0.00    +0.056 N 
ATOM     27  O   UNL     1      -9.620   4.401   8.633  0.00  0.00    -0.126 OA
ATOM     28  O   UNL     1     -10.048   2.523   9.493  0.00  0.00    -0.126 OA
ENDBRANCH  24  26
ENDBRANCH  19  20
ENDBRANCH  10  18
BRANCH   8  29
ATOM     29  O   UNL     1      -1.204   2.974   4.762  0.00  0.00    -0.492 OA
ATOM     30  H   UNL     1      -1.248   3.447   5.604  0.00  0.00    +0.294 HD
ENDBRANCH   8  29
TORSDOF 5
