REMARK  Name = ZINC28059317
REMARK  12 active torsions:
REMARK  status: ('A' for Active; 'I' for Inactive)
REMARK    1  A    between atoms: C_1  and  C_2
REMARK    2  A    between atoms: C_2  and  O_3
REMARK    3  A    between atoms: O_3  and  C_4
REMARK    4  A    between atoms: C_7  and  C_12
REMARK    5  A    between atoms: C_9  and  O_10
REMARK    6  A    between atoms: O_10  and  C_11
REMARK    7  A    between atoms: C_18  and  C_23
REMARK    8  A    between atoms: C_30  and  C_32
REMARK    9  A    between atoms: C_34  and  O_40
REMARK   10  A    between atoms: C_37  and  O_38
REMARK   11  A    between atoms: O_38  and  C_39
REMARK   12  A    between atoms: O_40  and  C_41
REMARK                            x       y       z     vdW  Elec       q    Type
REMARK                         _______ _______ _______ _____ _____    ______ ____
ROOT
ATOM      1  C   UNL     1       2.288   5.127  -0.703  0.00  0.00    +0.234 C 
ATOM      2  C   UNL     1       0.978   5.739  -0.260  0.00  0.00    +0.026 C 
ATOM      3  C   UNL     1      -0.025   4.937   0.102  0.00  0.00    +0.050 C 
ATOM      4  C   UNL     1       0.200   3.472   0.083  0.00  0.00    +0.038 A 
ATOM      5  C   UNL     1      -0.860   2.575   0.118  0.00  0.00    +0.016 A 
ATOM      6  C   UNL     1      -0.603   1.217   0.091  0.00  0.00    -0.050 A 
ATOM      7  C   UNL     1       0.700   0.753   0.041  0.00  0.00    +0.007 A 
ATOM      8  C   UNL     1       1.760   1.640   0.004  0.00  0.00    +0.046 A 
ATOM      9  C   UNL     1       1.518   3.001   0.026  0.00  0.00    +0.131 A 
ATOM     10  O   UNL     1       2.531   3.904  -0.010  0.00  0.00    -0.479 OA
ATOM     11  C   UNL     1      -1.748   0.237   0.123  0.00  0.00    +0.044 C 
ATOM     12  N   UNL     1      -1.270   5.434   0.506  0.00  0.00    -0.282 N 
ATOM     13  C   UNL     1      -1.531   6.771   0.257  0.00  0.00    +0.240 A 
ATOM     14  N   UNL     1      -2.640   7.452   0.296  0.00  0.00    -0.092 NA
ATOM     15  N   UNL     1      -2.419   8.682  -0.021  0.00  0.00    -0.021 NA
ATOM     16  N   UNL     1      -1.164   8.864  -0.277  0.00  0.00    -0.042 NA
ATOM     17  N   UNL     1      -0.540   7.629  -0.102  0.00  0.00    -0.201 N 
ATOM     18  C   UNL     1       0.856   7.243  -0.242  0.00  0.00    +0.178 C 
ATOM     19  H   UNL     1      -1.994   4.768   0.999  0.00  0.00    +0.155 HD
ENDROOT
BRANCH   1  23
ATOM     20  C   UNL     1       2.130   4.354  -4.906  0.00  0.00    +0.162 A 
ATOM     21  C   UNL     1       1.471   3.517  -4.020  0.00  0.00    +0.050 A 
ATOM     22  C   UNL     1       1.525   3.769  -2.662  0.00  0.00    +0.011 A 
ATOM     23  C   UNL     1       2.234   4.856  -2.184  0.00  0.00    +0.001 A 
ATOM     24  C   UNL     1       2.888   5.698  -3.064  0.00  0.00    +0.057 A 
ATOM     25  C   UNL     1       2.844   5.448  -4.426  0.00  0.00    +0.162 A 
BRANCH  25  26
ATOM     26  O   UNL     1       3.491   6.272  -5.292  0.00  0.00    -0.491 OA
ATOM     27  C   UNL     1       4.204   7.375  -4.728  0.00  0.00    +0.277 C 
ENDBRANCH  25  26
BRANCH  20  28
ATOM     28  O   UNL     1       2.078   4.108  -6.243  0.00  0.00    -0.489 OA
BRANCH  28  30
ATOM     29  C   UNL     1       1.382   2.854  -8.188  0.00  0.00    +0.048 C 
ATOM     30  C   UNL     1       1.326   2.968  -6.663  0.00  0.00    +0.226 C 
ENDBRANCH  28  30
ENDBRANCH  20  28
ENDBRANCH   1  23
BRANCH  18  31
ATOM     31  C   UNL     1       1.647   7.795   0.916  0.00  0.00    +0.026 A 
ATOM     32  C   UNL     1       1.330   7.422   2.208  0.00  0.00    +0.055 A 
ATOM     33  C   UNL     1       2.061   7.926   3.274  0.00  0.00    +0.121 A 
ATOM     34  C   UNL     1       3.103   8.812   3.043  0.00  0.00    +0.049 A 
ATOM     35  C   UNL     1       3.415   9.189   1.752  0.00  0.00    +0.049 A 
ATOM     36  C   UNL     1       2.688   8.681   0.685  0.00  0.00    +0.126 A 
BRANCH  36  37
ATOM     37  O   UNL     1       2.996   9.052  -0.586  0.00  0.00    -0.495 OA
ATOM     38  C   UNL     1       4.080   9.969  -0.750  0.00  0.00    +0.277 C 
ENDBRANCH  36  37
BRANCH  33  39
ATOM     39  O   UNL     1       1.753   7.554   4.545  0.00  0.00    -0.495 OA
ATOM     40  C   UNL     1       2.544   8.116   5.595  0.00  0.00    +0.277 C 
ENDBRANCH  33  39
ENDBRANCH  18  31
TORSDOF 7
