REMARK  Name = ZINC58159214
REMARK  13 active torsions:
REMARK  status: ('A' for Active; 'I' for Inactive)
REMARK    1  A    between atoms: C_1  and  C_2
REMARK    2  A    between atoms: C_2  and  C_4
REMARK    3  A    between atoms: C_2  and  N_27
REMARK    4  A    between atoms: N_10  and  C_11
REMARK    5  A    between atoms: C_11  and  C_12
REMARK    6  A    between atoms: N_14  and  C_15
REMARK    7  A    between atoms: C_18  and  S_21
REMARK    8  A    between atoms: S_21  and  C_24
REMARK    9  A    between atoms: C_28  and  O_30
REMARK   10  A    between atoms: O_30  and  C_31
REMARK   11  A    between atoms: C_31  and  C_32
REMARK   12  A    between atoms: C_31  and  C_33
REMARK   13  A    between atoms: C_31  and  C_34
REMARK                            x       y       z     vdW  Elec       q    Type
REMARK                         _______ _______ _______ _____ _____    ______ ____
ROOT
ATOM      1  C   UNL     1      -1.427  -0.524   0.014  0.00  0.00    -0.047 C 
ATOM      2  C   UNL     1      -2.105  -0.139   1.331  0.00  0.00    -0.014 C 
ATOM      3  C   UNL     1      -3.537  -0.681   1.338  0.00  0.00    -0.003 C 
ATOM      4  C   UNL     1      -4.285  -0.135   0.118  0.00  0.00    -0.019 C 
ATOM      5  C   UNL     1      -3.526  -0.520  -1.153  0.00  0.00    -0.078 C 
ATOM      6  N   UNL     1      -2.175   0.050  -1.111  0.00  0.00    +0.388 N 
ATOM      7  H   UNL     1      -2.235   1.051  -0.998  0.00  0.00    -0.081 HD
ENDROOT
BRANCH   1   9
ATOM      8  C   UNL     1      -0.026   1.545   0.008  0.00  0.00    +0.026 C 
ATOM      9  C   UNL     1       0.005   0.015   0.002  0.00  0.00    +0.060 C 
BRANCH   9  10
ATOM     10  N   UNL     1       0.717  -0.463   1.190  0.00  0.00    -0.280 N 
ATOM     11  C   UNL     1       2.061  -0.565   1.174  0.00  0.00    +0.401 C 
ATOM     12  O   UNL     1       2.682  -0.259   0.175  0.00  0.00    -0.226 OA
ATOM     13  H   UNL     1       0.221  -0.707   1.987  0.00  0.00    +0.152 HD
BRANCH  11  14
ATOM     14  O   UNL     1       2.715  -1.005   2.266  0.00  0.00    -0.445 OA
BRANCH  14  15
ATOM     15  C   UNL     1       4.139  -1.087   2.179  0.00  0.00    +0.107 C 
ATOM     16  C   UNL     1       4.714   0.301   1.887  0.00  0.00    +0.055 C 
ATOM     17  C   UNL     1       4.702  -1.603   3.505  0.00  0.00    +0.055 C 
ATOM     18  C   UNL     1       4.527  -2.047   1.052  0.00  0.00    +0.055 C 
ENDBRANCH  14  15
ENDBRANCH  11  14
ENDBRANCH   9  10
ENDBRANCH   1   9
BRANCH   6  19
ATOM     19  C   UNL     1      -1.477  -0.256  -2.367  0.00  0.00    +0.019 C 
BRANCH  19  20
ATOM     20  C   UNL     1      -2.175   0.435  -3.510  0.00  0.00    +0.201 C 
ATOM     21  O   UNL     1      -3.157   1.115  -3.299  0.00  0.00    -0.278 OA
ATOM     22  N   UNL     1      -1.708   0.297  -4.767  0.00  0.00    -0.287 N 
ATOM     23  H   UNL     1      -0.885  -0.191  -4.928  0.00  0.00    +0.155 HD
BRANCH  22  24
ATOM     24  C   UNL     1      -2.410   0.857  -5.840  0.00  0.00    +0.033 A 
ATOM     25  C   UNL     1      -3.073   2.067  -5.681  0.00  0.00    +0.025 A 
ATOM     26  C   UNL     1      -3.765   2.618  -6.742  0.00  0.00    +0.029 A 
ATOM     27  C   UNL     1      -3.799   1.966  -7.961  0.00  0.00    +0.095 A 
ATOM     28  C   UNL     1      -3.141   0.760  -8.122  0.00  0.00    +0.029 A 
ATOM     29  C   UNL     1      -2.442   0.207  -7.067  0.00  0.00    +0.025 A 
BRANCH  27  30
ATOM     30  S   UNL     1      -4.684   2.671  -9.312  0.00  0.00    +0.058 S 
ATOM     31  O   UNL     1      -5.041   1.565 -10.129  0.00  0.00    -0.164 OA
ATOM     32  O   UNL     1      -5.685   3.479  -8.707  0.00  0.00    -0.164 OA
BRANCH  30  33
ATOM     33  C   UNL     1      -3.472   3.715 -10.168  0.00  0.00    +0.485 C 
ATOM     34  F   UNL     1      -2.998   4.696  -9.290  0.00  0.00    -0.183 F 
ATOM     35  F   UNL     1      -2.403   2.925 -10.605  0.00  0.00    -0.183 F 
ENDBRANCH  30  33
ENDBRANCH  27  30
ENDBRANCH  22  24
ENDBRANCH  19  20
ENDBRANCH   6  19
TORSDOF 9
