REMARK  Name = ZINC02253808
REMARK  4 active torsions:
REMARK  status: ('A' for Active; 'I' for Inactive)
REMARK    1  A    between atoms: C_1  and  S_2
REMARK    2  A    between atoms: S_2  and  C_3
REMARK    3  A    between atoms: C_9  and  C_13
REMARK    4  A    between atoms: C_20  and  C_29
REMARK                            x       y       z     vdW  Elec       q    Type
REMARK                         _______ _______ _______ _____ _____    ______ ____
ROOT
ATOM      1  C   UNL     1      -1.702  -0.454   0.016  0.00  0.00    +0.174 C 
ATOM      2  N   UNL     1      -2.715   0.389   0.024  0.00  0.00    -0.192 NA
ATOM      3  C   UNL     1      -3.881  -0.282   0.034  0.00  0.00    +0.216 C 
ATOM      4  N   UNL     1      -5.129   0.135   0.046  0.00  0.00    -0.326 N 
ATOM      5  C   UNL     1      -6.208  -0.684   0.057  0.00  0.00    +0.058 C 
ATOM      6  C   UNL     1      -6.075  -2.027   0.047  0.00  0.00    +0.026 C 
ATOM      7  C   UNL     1      -4.677  -2.603   0.034  0.00  0.00    +0.159 C 
ATOM      8  N   UNL     1      -3.578  -1.629   0.028  0.00  0.00    -0.209 N 
ATOM      9  N   UNL     1      -2.186  -1.735   0.014  0.00  0.00    -0.239 N 
ATOM     10  C   UNL     1      -7.285  -2.915   0.041  0.00  0.00    +0.241 C 
ATOM     11  O   UNL     1      -8.365  -2.290   0.737  0.00  0.00    -0.479 OA
ATOM     12  C   UNL     1      -8.637  -0.994   0.439  0.00  0.00    +0.131 A 
ATOM     13  C   UNL     1      -7.588  -0.134   0.089  0.00  0.00    +0.040 A 
ATOM     14  C   UNL     1      -7.846   1.194  -0.216  0.00  0.00    +0.013 A 
ATOM     15  C   UNL     1      -9.145   1.664  -0.175  0.00  0.00    +0.001 A 
ATOM     16  C   UNL     1     -10.182   0.816   0.170  0.00  0.00    +0.004 A 
ATOM     17  C   UNL     1      -9.933  -0.510   0.475  0.00  0.00    +0.046 A 
ATOM     18  H   UNL     1      -5.287   1.092   0.049  0.00  0.00    +0.169 HD
ATOM     19  H   UNL     1      -1.665  -2.554   0.005  0.00  0.00    +0.172 HD
ENDROOT
BRANCH   7  20
ATOM     20  C   UNL     1      -4.518  -3.478   1.250  0.00  0.00    -0.021 A 
ATOM     21  C   UNL     1      -4.257  -2.908   2.482  0.00  0.00    +0.007 A 
ATOM     22  C   UNL     1      -4.112  -3.710   3.598  0.00  0.00    +0.015 A 
ATOM     23  C   UNL     1      -4.227  -5.084   3.483  0.00  0.00    +0.018 A 
ATOM     24  C   UNL     1      -4.488  -5.654   2.250  0.00  0.00    +0.015 A 
ATOM     25  C   UNL     1      -4.638  -4.851   1.135  0.00  0.00    +0.007 A 
ATOM     26 BR   UNL     1      -4.027  -6.182   5.009  0.00  0.00    -0.050 Br
ENDBRANCH   7  20
BRANCH  10  27
ATOM     27  C   UNL     1      -7.701  -3.181  -1.383  0.00  0.00    +0.034 A 
ATOM     28  C   UNL     1      -7.466  -4.273  -2.151  0.00  0.00    +0.015 A 
ATOM     29  C   UNL     1      -7.951  -4.298  -3.445  0.00  0.00    +0.008 A 
ATOM     30  C   UNL     1      -8.646  -3.231  -3.908  0.00  0.00    +0.045 A 
ATOM     31  S   UNL     1      -8.638  -2.143  -2.493  0.00  0.00    -0.098 S 
ENDBRANCH  10  27
BRANCH   1  33
ATOM     32  C   UNL     1      -0.022   1.810   0.012  0.00  0.00    +0.093 C 
ATOM     33  S   UNL     1       0.002  -0.004   0.002  0.00  0.00    -0.092 S 
ENDBRANCH   1  33
TORSDOF 3
