REMARK  Name = ZINC00642274
REMARK  12 active torsions:
REMARK  status: ('A' for Active; 'I' for Inactive)
REMARK    1  A    between atoms: C_1  and  C_2
REMARK    2  A    between atoms: C_2  and  O_3
REMARK    3  A    between atoms: O_3  and  C_4
REMARK    4  A    between atoms: C_5  and  O_26
REMARK    5  A    between atoms: C_7  and  C_11
REMARK    6  A    between atoms: C_13  and  C_20
REMARK    7  A    between atoms: C_14  and  C_19
REMARK    8  A    between atoms: C_20  and  O_22
REMARK    9  A    between atoms: O_22  and  C_23
REMARK   10  A    between atoms: C_23  and  C_24
REMARK   11  A    between atoms: C_23  and  C_25
REMARK   12  A    between atoms: O_26  and  C_27
REMARK                            x       y       z     vdW  Elec       q    Type
REMARK                         _______ _______ _______ _____ _____    ______ ____
ROOT
ATOM      1  C   UNL     1       3.751  -0.518  -0.051  0.00  0.00    +0.141 C 
ATOM      2  C   UNL     1       4.293  -0.518  -1.466  0.00  0.00    +0.078 C 
ATOM      3  C   UNL     1       5.494   0.061  -1.680  0.00  0.00    +0.019 C 
ATOM      4  N   UNL     1       6.195   0.628  -0.656  0.00  0.00    -0.300 N 
ATOM      5  C   UNL     1       5.765   0.657   0.612  0.00  0.00    +0.135 C 
ATOM      6  S   UNL     1       6.745   1.401   1.802  0.00  0.00    -0.019 S 
ATOM      7  N   UNL     1       4.586   0.120   0.982  0.00  0.00    -0.315 N 
ATOM      8  C   UNL     1       6.069   0.083  -3.073  0.00  0.00    +0.061 C 
ATOM      9  H   UNL     1       7.171   1.095  -0.850  0.00  0.00    +0.154 HD
ATOM     10  H   UNL     1       4.242   0.149   2.026  0.00  0.00    +0.149 HD
ENDROOT
BRANCH   1  14
ATOM     11  C   UNL     1      -0.043   1.455  -0.091  0.00  0.00    +0.175 A 
ATOM     12  C   UNL     1       1.131   2.203  -0.112  0.00  0.00    +0.163 A 
ATOM     13  C   UNL     1       2.358   1.560  -0.099  0.00  0.00    +0.055 A 
ATOM     14  C   UNL     1       2.415   0.179  -0.065  0.00  0.00    -0.018 A 
ATOM     15  C   UNL     1       1.250  -0.564  -0.043  0.00  0.00    +0.024 A 
ATOM     16  C   UNL     1       0.021   0.072  -0.057  0.00  0.00    +0.059 A 
ATOM     17  I   UNL     1      -1.743  -1.058  -0.024  0.00  0.00    -0.040 I 
BRANCH  12  18
ATOM     18  O   UNL     1       1.074   3.561  -0.145  0.00  0.00    -0.491 OA
ATOM     19  C   UNL     1       2.313   4.266  -0.045  0.00  0.00    +0.277 C 
ENDBRANCH  12  18
BRANCH  11  20
ATOM     20  O   UNL     1      -1.250   2.082  -0.098  0.00  0.00    -0.488 OA
BRANCH  20  22
ATOM     21  C   UNL     1      -3.177   3.057  -1.182  0.00  0.00    +0.048 C 
ATOM     22  C   UNL     1      -1.832   2.354  -1.375  0.00  0.00    +0.226 C 
ENDBRANCH  20  22
ENDBRANCH  11  20
ENDBRANCH   1  14
BRANCH   2  23
ATOM     23  C   UNL     1       3.566  -1.106  -2.527  0.00  0.00    +0.339 C 
ATOM     24  O   UNL     1       3.970  -1.005  -3.670  0.00  0.00    -0.245 OA
BRANCH  23  25
ATOM     25  O   UNL     1       2.424  -1.779  -2.271  0.00  0.00    -0.459 OA
BRANCH  25  26
ATOM     26  C   UNL     1       1.802  -2.443  -3.373  0.00  0.00    +0.171 C 
ATOM     27  C   UNL     1       2.274  -3.898  -3.424  0.00  0.00    +0.052 C 
ATOM     28  C   UNL     1       0.283  -2.405  -3.199  0.00  0.00    +0.052 C 
ENDBRANCH  25  26
ENDBRANCH  23  25
ENDBRANCH   2  23
TORSDOF 7
