REMARK  Name = ZINC10922225
REMARK  17 active torsions:
REMARK  status: ('A' for Active; 'I' for Inactive)
REMARK    1  A    between atoms: C_1  and  C_2
REMARK    2  A    between atoms: C_2  and  C_3
REMARK    3  A    between atoms: C_3  and  C_4
REMARK    4  A    between atoms: C_4  and  N_5
REMARK    5  A    between atoms: N_5  and  C_6
REMARK    6  A    between atoms: C_7  and  N_19
REMARK    7  A    between atoms: N_8  and  C_15
REMARK    8  A    between atoms: C_15  and  C_16
REMARK    9  A    between atoms: C_16  and  C_17
REMARK   10  A    between atoms: C_16  and  C_18
REMARK   11  A    between atoms: C_20  and  C_22
REMARK   12  A    between atoms: C_22  and  S_23
REMARK   13  A    between atoms: S_23  and  C_24
REMARK   14  A    between atoms: C_27  and  C_32
REMARK   15  A    between atoms: N_28  and  C_29
REMARK   16  A    between atoms: C_32  and  C_33
REMARK   17  A    between atoms: C_32  and  C_34
REMARK                            x       y       z     vdW  Elec       q    Type
REMARK                         _______ _______ _______ _____ _____    ______ ____
ROOT
ATOM      1  N   UNL     1       1.389   7.876   2.141  0.00  0.00    -0.264 N 
ATOM      2  C   UNL     1       0.838   6.644   2.117  0.00  0.00    +0.230 C 
ATOM      3  O   UNL     1      -0.298   6.479   2.509  0.00  0.00    -0.274 OA
ENDROOT
BRANCH   1   4
ATOM      4  C   UNL     1       0.686   8.951   2.724  0.00  0.00    +0.140 A 
ATOM      5  C   UNL     1      -0.508   9.384   2.183  0.00  0.00    +0.127 A 
ATOM      6  N   UNL     1      -1.170  10.435   2.774  0.00  0.00    -0.280 N 
ATOM      7  C   UNL     1      -0.660  11.034   3.865  0.00  0.00    +0.331 A 
ATOM      8  O   UNL     1      -1.261  11.962   4.372  0.00  0.00    -0.246 OA
ATOM      9  N   UNL     1       0.501  10.626   4.406  0.00  0.00    -0.273 N 
ATOM     10  H   UNL     1       0.861  11.091   5.215  0.00  0.00    +0.173 HD
ATOM     11  C   UNL     1       1.187   9.597   3.869  0.00  0.00    +0.277 A 
ATOM     12  O   UNL     1       2.237   9.231   4.370  0.00  0.00    -0.266 OA
BRANCH   5  13
ATOM     13  N   UNL     1      -1.028   8.773   1.068  0.00  0.00    -0.343 N 
ATOM     14  H   UNL     1      -0.581   8.003   0.684  0.00  0.00    +0.144 HD
ATOM     15  H   UNL     1      -1.843   9.112   0.665  0.00  0.00    +0.144 HD
ENDBRANCH   5  13
BRANCH   6  16
ATOM     16  C   UNL     1      -2.438  10.905   2.211  0.00  0.00    +0.131 C 
BRANCH  16  17
ATOM     17  C   UNL     1      -3.597  10.143   2.858  0.00  0.00    +0.003 C 
ATOM     18  C   UNL     1      -4.925  10.719   2.363  0.00  0.00    +0.009 C 
ATOM     19  C   UNL     1      -3.509   8.664   2.479  0.00  0.00    +0.009 C 
ENDBRANCH  16  17
ENDBRANCH   6  16
ENDBRANCH   1   4
BRANCH   1  20
ATOM     20  C   UNL     1       2.716   8.096   1.562  0.00  0.00    +0.114 C 
BRANCH  20  21
ATOM     21  C   UNL     1       2.582   8.352   0.059  0.00  0.00    +0.019 C 
BRANCH  21  23
ATOM     22  C   UNL     1       3.833   8.838  -2.047  0.00  0.00    +0.004 C 
ATOM     23  C   UNL     1       3.968   8.582  -0.545  0.00  0.00    -0.002 C 
ENDBRANCH  21  23
ENDBRANCH  20  21
ENDBRANCH   1  20
BRANCH   2  24
ATOM     24  C   UNL     1       1.635   5.473   1.603  0.00  0.00    +0.173 C 
BRANCH  24  25
ATOM     25  S   UNL     1       0.629   3.971   1.698  0.00  0.00    -0.077 S 
BRANCH  25  26
ATOM     26  C   UNL     1       1.774   2.795   1.054  0.00  0.00    +0.192 A 
ATOM     27  N   UNL     1       2.997   3.040   0.645  0.00  0.00    -0.122 NA
ATOM     28  N   UNL     1       3.547   1.951   0.238  0.00  0.00    -0.133 NA
ATOM     29  C   UNL     1       2.717   0.955   0.368  0.00  0.00    +0.137 A 
ATOM     30  N   UNL     1       1.556   1.458   0.886  0.00  0.00    -0.303 N 
BRANCH  30  31
ATOM     31  C   UNL     1       0.333   0.714   1.202  0.00  0.00    +0.091 C 
ATOM     32  C   UNL     1      -0.684   1.388   2.125  0.00  0.00    +0.027 C 
ATOM     33  C   UNL     1      -0.983   1.244   0.631  0.00  0.00    +0.027 C 
ENDBRANCH  30  31
BRANCH  29  34
ATOM     34  C   UNL     1       2.986  -0.484   0.010  0.00  0.00    +0.051 C 
ATOM     35  C   UNL     1       3.317  -0.585  -1.480  0.00  0.00    +0.015 C 
ATOM     36  C   UNL     1       4.169  -1.001   0.832  0.00  0.00    +0.015 C 
ENDBRANCH  29  34
ENDBRANCH  25  26
ENDBRANCH  24  25
ENDBRANCH   2  24
TORSDOF 12
