REMARK  Name = ZINC38306606
REMARK  9 active torsions:
REMARK  status: ('A' for Active; 'I' for Inactive)
REMARK    1  A    between atoms: C_1  and  C_2
REMARK    2  A    between atoms: C_2  and  C_3
REMARK    3  A    between atoms: C_2  and  C_27
REMARK    4  A    between atoms: C_6  and  C_9
REMARK    5  A    between atoms: C_11  and  O_26
REMARK    6  A    between atoms: C_13  and  C_14
REMARK    7  A    between atoms: C_17  and  C_20
REMARK    8  A    between atoms: C_20  and  C_21
REMARK    9  A    between atoms: C_20  and  C_22
REMARK                            x       y       z     vdW  Elec       q    Type
REMARK                         _______ _______ _______ _____ _____    ______ ____
ROOT
ATOM      1  C   UNL     1       2.545  -2.190   5.162  0.00  0.00    +0.008 C 
ATOM      2  C   UNL     1       3.668  -2.780   4.779  0.00  0.00    -0.054 C 
ATOM      3  C   UNL     1       4.536  -3.536   5.769  0.00  0.00    +0.163 C 
ATOM      4  C   UNL     1       5.973  -3.140   5.482  0.00  0.00    -0.054 C 
ATOM      5  C   UNL     1       6.815  -2.856   6.466  0.00  0.00    +0.008 C 
ATOM      6  C   UNL     1       6.409  -3.080   4.035  0.00  0.00    -0.048 C 
ATOM      7  N   UNL     1       5.500  -2.195   3.294  0.00  0.00    +0.384 N 
ATOM      8  C   UNL     1       4.128  -2.730   3.339  0.00  0.00    -0.048 C 
ATOM      9  H   UNL     1       5.518  -1.275   3.707  0.00  0.00    -0.085 HD
ATOM     10  H   UNL     1       5.803  -2.134   2.333  0.00  0.00    -0.085 HD
ENDROOT
BRANCH   1  14
ATOM     11  C   UNL     1      -0.082  -0.537   2.264  0.00  0.00    -0.045 A 
ATOM     12  C   UNL     1       0.612  -1.699   1.980  0.00  0.00    +0.004 A 
ATOM     13  C   UNL     1       1.467  -2.242   2.918  0.00  0.00    +0.008 A 
ATOM     14  C   UNL     1       1.631  -1.615   4.153  0.00  0.00    -0.025 A 
ATOM     15  C   UNL     1       0.928  -0.442   4.433  0.00  0.00    +0.008 A 
ATOM     16  C   UNL     1       0.080   0.093   3.485  0.00  0.00    +0.004 A 
BRANCH  11  18
ATOM     17  C   UNL     1      -2.114  -0.963   0.907  0.00  0.00    +0.012 C 
ATOM     18  C   UNL     1      -1.015   0.050   1.235  0.00  0.00    +0.013 C 
ATOM     19  C   UNL     1      -0.229   0.380  -0.036  0.00  0.00    +0.012 C 
ENDBRANCH  11  18
ENDBRANCH   1  14
BRANCH   5  20
ATOM     20  C   UNL     1       8.251  -2.660   6.175  0.00  0.00    -0.025 A 
ATOM     21  C   UNL     1       8.966  -1.652   6.822  0.00  0.00    +0.008 A 
ATOM     22  C   UNL     1      10.306  -1.475   6.547  0.00  0.00    +0.004 A 
ATOM     23  C   UNL     1      10.942  -2.295   5.631  0.00  0.00    -0.045 A 
ATOM     24  C   UNL     1      10.239  -3.296   4.987  0.00  0.00    +0.004 A 
ATOM     25  C   UNL     1       8.899  -3.487   5.257  0.00  0.00    +0.008 A 
BRANCH  23  26
ATOM     26  C   UNL     1      12.406  -2.095   5.335  0.00  0.00    +0.013 C 
ATOM     27  C   UNL     1      13.175  -3.371   5.683  0.00  0.00    +0.012 C 
ATOM     28  C   UNL     1      12.586  -1.779   3.849  0.00  0.00    +0.012 C 
ENDBRANCH  23  26
ENDBRANCH   5  20
BRANCH   3  29
ATOM     29  O   UNL     1       4.372  -4.944   5.587  0.00  0.00    -0.383 OA
ATOM     30  H   UNL     1       4.901  -5.482   6.191  0.00  0.00    +0.211 HD
ENDBRANCH   3  29
TORSDOF 5
