REMARK  Name = ZINC03178330
REMARK  3 active torsions:
REMARK  status: ('A' for Active; 'I' for Inactive)
REMARK    1  A    between atoms: C_3  and  C_6
REMARK    2  A    between atoms: C_9  and  C_26
REMARK    3  A    between atoms: C_15  and  C_16
REMARK                            x       y       z     vdW  Elec       q    Type
REMARK                         _______ _______ _______ _____ _____    ______ ____
ROOT
ATOM      1  C   UNL     1       3.638   0.601  -0.269  0.00  0.00    +0.299 C 
ATOM      2  O   UNL     1       4.276   1.636  -0.234  0.00  0.00    -0.265 OA
ATOM      3  N   UNL     1       4.267  -0.583  -0.126  0.00  0.00    -0.204 N 
ATOM      4  C   UNL     1       5.710  -0.798   0.086  0.00  0.00    +0.155 C 
ATOM      5  C   UNL     1       5.865  -2.292   0.177  0.00  0.00    -0.021 C 
ATOM      6  C   UNL     1       4.642  -2.834   0.030  0.00  0.00    +0.049 C 
ATOM      7  N   UNL     1       3.678  -1.857  -0.143  0.00  0.00    -0.260 N 
ATOM      8  C   UNL     1       4.449  -4.303   0.069  0.00  0.00    -0.024 C 
ATOM      9  C   UNL     1       3.231  -4.865   0.157  0.00  0.00    +0.013 C 
ATOM     10  C   UNL     1       5.721  -5.132   0.002  0.00  0.00    +0.037 C 
ATOM     11  C   UNL     1       6.768  -4.480   0.913  0.00  0.00    +0.009 C 
ATOM     12  C   UNL     1       7.126  -3.085   0.391  0.00  0.00    +0.035 C 
ATOM     13  H   UNL     1       2.731  -2.028  -0.261  0.00  0.00    +0.170 HD
ENDROOT
BRANCH   9  14
ATOM     14  C   UNL     1       3.082  -6.325   0.023  0.00  0.00    -0.025 A 
ATOM     15  C   UNL     1       2.073  -6.994   0.722  0.00  0.00    +0.009 A 
ATOM     16  C   UNL     1       1.939  -8.360   0.593  0.00  0.00    +0.020 A 
ATOM     17  C   UNL     1       2.800  -9.069  -0.228  0.00  0.00    +0.041 A 
ATOM     18  C   UNL     1       3.802  -8.412  -0.924  0.00  0.00    +0.020 A 
ATOM     19  C   UNL     1       3.944  -7.046  -0.807  0.00  0.00    +0.009 A 
ATOM     20 CL   UNL     1       2.624 -10.789  -0.385  0.00  0.00    -0.084 Cl
ENDBRANCH   9  14
BRANCH   4  21
ATOM     21  C   UNL     1       6.156  -0.143   1.367  0.00  0.00    -0.021 A 
ATOM     22  C   UNL     1       5.339  -0.179   2.482  0.00  0.00    +0.007 A 
ATOM     23  C   UNL     1       5.748   0.422   3.658  0.00  0.00    +0.020 A 
ATOM     24  C   UNL     1       6.974   1.060   3.719  0.00  0.00    +0.041 A 
ATOM     25  C   UNL     1       7.791   1.096   2.603  0.00  0.00    +0.020 A 
ATOM     26  C   UNL     1       7.383   0.489   1.429  0.00  0.00    +0.007 A 
ATOM     27 CL   UNL     1       7.487   1.816   5.195  0.00  0.00    -0.084 Cl
ENDBRANCH   4  21
BRANCH   1  30
ATOM     28  C   UNL     1       0.100   1.337  -0.784  0.00  0.00    +0.042 A 
ATOM     29  C   UNL     1       1.428   1.764  -0.625  0.00  0.00    +0.054 A 
ATOM     30  C   UNL     1       2.186   0.640  -0.467  0.00  0.00    +0.191 A 
ATOM     31  O   UNL     1       1.364  -0.429  -0.527  0.00  0.00    -0.458 OA
ATOM     32  C   UNL     1       0.106  -0.012  -0.718  0.00  0.00    +0.196 A 
ENDBRANCH   1  30
TORSDOF 3
