REMARK  Name = ZINC39684352
REMARK  8 active torsions:
REMARK  status: ('A' for Active; 'I' for Inactive)
REMARK    1  A    between atoms: C_1  and  C_2
REMARK    2  A    between atoms: C_2  and  C_4
REMARK    3  A    between atoms: C_2  and  N_8
REMARK    4  A    between atoms: C_4  and  C_5
REMARK    5  A    between atoms: C_4  and  C_6
REMARK    6  A    between atoms: C_4  and  C_7
REMARK    7  A    between atoms: C_9  and  C_11
REMARK    8  A    between atoms: C_22  and  C_24
REMARK                            x       y       z     vdW  Elec       q    Type
REMARK                         _______ _______ _______ _____ _____    ______ ____
ROOT
ATOM      1  C   UNL     1      -3.333  -0.578   1.290  0.00  0.00    +0.100 C 
ATOM      2  C   UNL     1      -4.431   0.180   0.512  0.00  0.00    +0.121 C 
ATOM      3  N   UNL     1      -5.651   0.029   1.340  0.00  0.00    -0.296 N 
ATOM      4  C   UNL     1      -5.167   0.160   2.736  0.00  0.00    +0.115 C 
ATOM      5  C   UNL     1      -3.819  -0.589   2.749  0.00  0.00    -0.004 C 
ATOM      6  C   UNL     1      -4.018  -2.023   3.230  0.00  0.00    -0.010 C 
ATOM      7  C   UNL     1      -4.446  -2.009   4.700  0.00  0.00    -0.082 C 
ATOM      8  N   UNL     1      -3.417  -1.339   5.505  0.00  0.00    +0.379 N 
ATOM      9  C   UNL     1      -3.297   0.066   5.098  0.00  0.00    -0.082 C 
ATOM     10  C   UNL     1      -2.821   0.139   3.644  0.00  0.00    -0.010 C 
ATOM     11  C   UNL     1      -6.914  -0.182   0.921  0.00  0.00    +0.247 C 
ATOM     12  O   UNL     1      -7.138  -0.378  -0.258  0.00  0.00    -0.270 OA
ATOM     13  H   UNL     1      -3.672  -1.385   6.480  0.00  0.00    -0.086 HD
ATOM     14  H   UNL     1      -2.531  -1.804   5.370  0.00  0.00    -0.086 HD
ENDROOT
BRANCH  11  15
ATOM     15  C   UNL     1      -8.027  -0.174   1.893  0.00  0.00    +0.037 A 
ATOM     16  C   UNL     1      -7.874   0.492   3.123  0.00  0.00    +0.013 A 
ATOM     17  C   UNL     1      -8.881   0.513   4.032  0.00  0.00    +0.009 A 
ATOM     18  C   UNL     1     -10.097  -0.137   3.751  0.00  0.00    -0.018 A 
ATOM     19  C   UNL     1     -11.154  -0.128   4.677  0.00  0.00    +0.008 A 
ATOM     20  C   UNL     1     -12.319  -0.765   4.377  0.00  0.00    +0.001 A 
ATOM     21  C   UNL     1     -12.482  -1.429   3.163  0.00  0.00    +0.001 A 
ATOM     22  C   UNL     1     -11.482  -1.459   2.241  0.00  0.00    +0.008 A 
ATOM     23  C   UNL     1     -10.263  -0.811   2.515  0.00  0.00    -0.017 A 
ATOM     24  C   UNL     1      -9.213  -0.818   1.585  0.00  0.00    +0.021 A 
ENDBRANCH  11  15
BRANCH   1  26
ATOM     25  N   UNL     1      -0.861  -0.543   1.241  0.00  0.00    -0.312 N 
ATOM     26  C   UNL     1      -2.017   0.147   1.181  0.00  0.00    +0.218 C 
ATOM     27  O   UNL     1      -1.998   1.351   1.038  0.00  0.00    -0.275 OA
ATOM     28  H   UNL     1      -0.876  -1.506   1.355  0.00  0.00    +0.149 HD
BRANCH  25  30
ATOM     29  C   UNL     1       0.778   0.348  -0.341  0.00  0.00    +0.028 C 
ATOM     30  C   UNL     1       0.419   0.162   1.135  0.00  0.00    +0.075 C 
BRANCH  30  31
ATOM     31  C   UNL     1       1.512  -0.657   1.825  0.00  0.00    -0.020 C 
ATOM     32  C   UNL     1       2.848   0.079   1.714  0.00  0.00    +0.012 C 
ATOM     33  C   UNL     1       1.153  -0.843   3.301  0.00  0.00    +0.012 C 
ATOM     34  C   UNL     1       1.626  -2.026   1.152  0.00  0.00    +0.012 C 
ENDBRANCH  30  31
ENDBRANCH  25  30
ENDBRANCH   1  26
TORSDOF 4
