REMARK  Name = ZINC02647052
REMARK  10 active torsions:
REMARK  status: ('A' for Active; 'I' for Inactive)
REMARK    1  A    between atoms: C_4  and  C_7
REMARK    2  A    between atoms: C_7  and  O_8
REMARK    3  A    between atoms: O_8  and  C_9
REMARK    4  A    between atoms: N_11  and  C_12
REMARK    5  A    between atoms: C_12  and  C_14
REMARK    6  A    between atoms: C_12  and  C_25
REMARK    7  A    between atoms: C_14  and  C_15
REMARK    8  A    between atoms: N_27  and  C_28
REMARK    9  A    between atoms: C_28  and  C_29
REMARK   10  A    between atoms: C_29  and  C_30
REMARK                            x       y       z     vdW  Elec       q    Type
REMARK                         _______ _______ _______ _____ _____    ______ ____
ROOT
ATOM      1  C   UNL     1       0.606  -2.171  -1.026  0.00  0.00    +0.166 C 
ENDROOT
BRANCH   1   4
ATOM      2  C   UNL     1       1.876  -3.858  -2.242  0.00  0.00    +0.401 C 
ATOM      3  O   UNL     1       1.835  -4.561  -1.252  0.00  0.00    -0.226 OA
ATOM      4  N   UNL     1       1.291  -2.644  -2.232  0.00  0.00    -0.269 N 
ATOM      5  H   UNL     1       1.324  -2.083  -3.022  0.00  0.00    +0.153 HD
BRANCH   2   6
ATOM      6  O   UNL     1       2.506  -4.292  -3.350  0.00  0.00    -0.446 OA
BRANCH   6   7
ATOM      7  C   UNL     1       3.114  -5.609  -3.289  0.00  0.00    +0.269 C 
BRANCH   7  11
ATOM      8  C   UNL     1       4.967  -6.498  -7.034  0.00  0.00    +0.000 A 
ATOM      9  C   UNL     1       5.688  -5.865  -6.038  0.00  0.00    +0.000 A 
ATOM     10  C   UNL     1       5.088  -5.578  -4.827  0.00  0.00    +0.007 A 
ATOM     11  C   UNL     1       3.768  -5.923  -4.610  0.00  0.00    -0.010 A 
ATOM     12  C   UNL     1       3.048  -6.560  -5.603  0.00  0.00    +0.007 A 
ATOM     13  C   UNL     1       3.646  -6.843  -6.817  0.00  0.00    +0.000 A 
ENDBRANCH   7  11
ENDBRANCH   6   7
ENDBRANCH   2   6
ENDBRANCH   1   4
BRANCH   1  14
ATOM     14  C   UNL     1       0.585  -0.664  -1.018  0.00  0.00    +0.234 C 
ATOM     15  O   UNL     1       1.093  -0.046  -1.929  0.00  0.00    -0.274 OA
ATOM     16  N   UNL     1       0.002  -0.004   0.002  0.00  0.00    -0.313 N 
ATOM     17  H   UNL     1      -0.404  -0.499   0.731  0.00  0.00    +0.149 HD
BRANCH  16  18
ATOM     18  C   UNL     1      -0.018   1.461   0.010  0.00  0.00    +0.109 C 
BRANCH  18  19
ATOM     19  C   UNL     1      -0.734   1.954   1.269  0.00  0.00    +0.055 C 
BRANCH  19  20
ATOM     20  C   UNL     1      -0.754   3.461   1.277  0.00  0.00    -0.027 A 
ATOM     21  C   UNL     1      -1.893   4.139   0.882  0.00  0.00    +0.006 A 
ATOM     22  C   UNL     1      -1.912   5.521   0.890  0.00  0.00    +0.020 A 
ATOM     23  C   UNL     1      -0.792   6.227   1.293  0.00  0.00    +0.042 A 
ATOM     24  C   UNL     1       0.347   5.549   1.688  0.00  0.00    +0.040 A 
ATOM     25  C   UNL     1       0.364   4.166   1.685  0.00  0.00    +0.046 A 
ATOM     26 CL   UNL     1       1.791   3.314   2.188  0.00  0.00    -0.083 Cl
ATOM     27 CL   UNL     1      -0.817   7.963   1.302  0.00  0.00    -0.083 Cl
ENDBRANCH  19  20
ENDBRANCH  18  19
ENDBRANCH  16  18
ENDBRANCH   1  14
BRANCH   1  28
ATOM     28  C   UNL     1      -0.830  -2.701  -1.015  0.00  0.00    +0.069 C 
BRANCH  28  29
ATOM     29  C   UNL     1      -0.810  -4.203  -0.900  0.00  0.00    -0.020 A 
ATOM     30  C   UNL     1      -0.877  -5.083  -1.912  0.00  0.00    +0.087 A 
ATOM     31  N   UNL     1      -0.830  -6.360  -1.423  0.00  0.00    -0.360 N 
ATOM     32  H   UNL     1      -0.861  -7.165  -1.964  0.00  0.00    +0.165 HD
ATOM     33  C   UNL     1      -0.737  -6.333  -0.050  0.00  0.00    +0.047 A 
ATOM     34  C   UNL     1      -0.720  -4.981   0.338  0.00  0.00    +0.003 A 
ATOM     35  C   UNL     1      -0.630  -4.645   1.690  0.00  0.00    +0.010 A 
ATOM     36  C   UNL     1      -0.559  -5.634   2.631  0.00  0.00    +0.001 A 
ATOM     37  C   UNL     1      -0.575  -6.969   2.254  0.00  0.00    +0.002 A 
ATOM     38  C   UNL     1      -0.663  -7.323   0.925  0.00  0.00    +0.026 A 
ENDBRANCH  28  29
ENDBRANCH   1  28
TORSDOF 10
