REMARK  Name = ZINC05082213
REMARK  8 active torsions:
REMARK  status: ('A' for Active; 'I' for Inactive)
REMARK    1  A    between atoms: C_1  and  C_2
REMARK    2  A    between atoms: C_2  and  C_3
REMARK    3  A    between atoms: C_8  and  N_9
REMARK    4  A    between atoms: C_10  and  C_12
REMARK    5  A    between atoms: C_12  and  S_13
REMARK    6  A    between atoms: S_13  and  C_14
REMARK    7  A    between atoms: C_17  and  C_20
REMARK    8  A    between atoms: N_18  and  N_19
REMARK                            x       y       z     vdW  Elec       q    Type
REMARK                         _______ _______ _______ _____ _____    ______ ____
ROOT
ATOM      1  C   UNL     1       1.904  -4.282  -0.402  0.00  0.00    +0.209 A 
ATOM      2  N   UNL     1       0.617  -4.200  -0.151  0.00  0.00    -0.121 NA
ATOM      3  N   UNL     1       0.248  -2.969  -0.135  0.00  0.00    -0.127 NA
ATOM      4  C   UNL     1       1.274  -2.190  -0.384  0.00  0.00    +0.183 A 
ATOM      5  N   UNL     1       2.368  -3.006  -0.559  0.00  0.00    -0.224 N 
ENDROOT
BRANCH   4   6
ATOM      6  C   UNL     1       1.260  -0.713  -0.457  0.00  0.00    +0.039 A 
ATOM      7  C   UNL     1       1.891  -0.057  -1.515  0.00  0.00    +0.013 A 
ATOM      8  C   UNL     1       1.874   1.321  -1.577  0.00  0.00    +0.001 A 
ATOM      9  C   UNL     1       1.233   2.053  -0.593  0.00  0.00    +0.001 A 
ATOM     10  C   UNL     1       0.606   1.410   0.458  0.00  0.00    +0.021 A 
ATOM     11  C   UNL     1       0.615   0.031   0.533  0.00  0.00    +0.052 A 
ATOM     12 CL   UNL     1      -0.174  -0.774   1.853  0.00  0.00    -0.083 Cl
ENDBRANCH   4   6
BRANCH   5  13
ATOM     13  N   UNL     1       3.650  -2.622  -0.833  0.00  0.00    -0.295 N 
ATOM     14  H   UNL     1       4.196  -2.556   0.012  0.00  0.00    +0.163 HD
ATOM     15  H   UNL     1       4.082  -3.249  -1.495  0.00  0.00    +0.163 HD
ENDBRANCH   5  13
BRANCH   1  16
ATOM     16  S   UNL     1       2.856  -5.761  -0.514  0.00  0.00    -0.075 S 
BRANCH  16  17
ATOM     17  C   UNL     1       1.565  -6.989  -0.196  0.00  0.00    +0.173 C 
BRANCH  17  19
ATOM     18  N   UNL     1       1.385  -9.451  -0.034  0.00  0.00    -0.285 N 
ATOM     19  C   UNL     1       2.164  -8.371  -0.243  0.00  0.00    +0.227 C 
ATOM     20  O   UNL     1       3.347  -8.511  -0.470  0.00  0.00    -0.275 OA
ATOM     21  H   UNL     1       0.428  -9.344   0.080  0.00  0.00    +0.155 HD
BRANCH  18  27
ATOM     22  C   UNL     1       1.357 -11.727   0.771  0.00  0.00    -0.026 A 
ATOM     23  C   UNL     1       1.925 -12.986   0.822  0.00  0.00    +0.005 A 
ATOM     24  C   UNL     1       3.089 -13.249   0.124  0.00  0.00    +0.000 A 
ATOM     25  C   UNL     1       3.689 -12.254  -0.626  0.00  0.00    +0.002 A 
ATOM     26  C   UNL     1       3.124 -10.996  -0.684  0.00  0.00    +0.023 A 
ATOM     27  C   UNL     1       1.958 -10.726   0.019  0.00  0.00    +0.037 A 
BRANCH  22  29
ATOM     28  C   UNL     1      -1.114 -11.622   0.602  0.00  0.00    +0.009 C 
ATOM     29  C   UNL     1       0.088 -11.442   1.531  0.00  0.00    +0.033 C 
ENDBRANCH  22  29
ENDBRANCH  18  27
ENDBRANCH  17  19
ENDBRANCH  16  17
ENDBRANCH   1  16
TORSDOF 7
