REMARK  Name = ZINC13031613
REMARK  13 active torsions:
REMARK  status: ('A' for Active; 'I' for Inactive)
REMARK    1  A    between atoms: C_1  and  C_2
REMARK    2  A    between atoms: C_2  and  C_3
REMARK    3  A    between atoms: C_3  and  C_4
REMARK    4  A    between atoms: C_4  and  N_5
REMARK    5  A    between atoms: C_6  and  N_37
REMARK    6  A    between atoms: C_7  and  N_14
REMARK    7  A    between atoms: N_14  and  C_15
REMARK    8  A    between atoms: C_15  and  C_16
REMARK    9  A    between atoms: C_16  and  C_17
REMARK   10  A    between atoms: C_17  and  C_18
REMARK   11  A    between atoms: C_19  and  C_21
REMARK   12  A    between atoms: C_21  and  N_73
REMARK   13  A    between atoms: C_25  and  C_27
REMARK                            x       y       z     vdW  Elec       q    Type
REMARK                         _______ _______ _______ _____ _____    ______ ____
ROOT
ATOM      1  N   UNL     1      -1.418  -1.992   0.003  0.00  0.00    -0.266 N 
ATOM      2  C   UNL     1      -1.550  -2.578  -1.205  0.00  0.00    +0.203 C 
ATOM      3  O   UNL     1      -1.644  -3.785  -1.287  0.00  0.00    -0.277 OA
ENDROOT
BRANCH   1   6
ATOM      4  N   UNL     1      -2.091  -3.574   3.251  0.00  0.00    -0.280 N 
ATOM      5  C   UNL     1      -2.257  -2.790   2.133  0.00  0.00    +0.127 A 
ATOM      6  C   UNL     1      -1.277  -2.786   1.161  0.00  0.00    +0.140 A 
ATOM      7  C   UNL     1      -0.138  -3.593   1.342  0.00  0.00    +0.277 A 
ATOM      8  O   UNL     1       0.740  -3.613   0.496  0.00  0.00    -0.266 OA
ATOM      9  N   UNL     1      -0.022  -4.339   2.458  0.00  0.00    -0.273 N 
ATOM     10  H   UNL     1       0.791  -4.906   2.591  0.00  0.00    +0.173 HD
ATOM     11  C   UNL     1      -0.987  -4.329   3.395  0.00  0.00    +0.331 A 
ATOM     12  O   UNL     1      -0.859  -5.016   4.390  0.00  0.00    -0.246 OA
BRANCH   5  13
ATOM     13  N   UNL     1      -3.385  -2.018   1.986  0.00  0.00    -0.343 N 
ATOM     14  H   UNL     1      -3.464  -1.413   1.232  0.00  0.00    +0.144 HD
ATOM     15  H   UNL     1      -4.102  -2.079   2.636  0.00  0.00    +0.144 HD
ENDBRANCH   5  13
BRANCH   4  16
ATOM     16  C   UNL     1      -3.123  -3.587   4.290  0.00  0.00    +0.128 C 
BRANCH  16  17
ATOM     17  C   UNL     1      -4.143  -4.685   3.983  0.00  0.00    +0.021 C 
BRANCH  17  19
ATOM     18  C   UNL     1      -6.241  -5.797   4.761  0.00  0.00    +0.004 C 
ATOM     19  C   UNL     1      -5.221  -4.699   5.069  0.00  0.00    -0.002 C 
ENDBRANCH  17  19
ENDBRANCH  16  17
ENDBRANCH   4  16
ENDBRANCH   1   6
BRANCH   1  20
ATOM     20  C   UNL     1      -1.421  -0.531   0.113  0.00  0.00    +0.114 C 
BRANCH  20  21
ATOM     21  C   UNL     1       0.020  -0.017   0.106  0.00  0.00    +0.019 C 
BRANCH  21  22
ATOM     22  C   UNL     1       0.017   1.509   0.220  0.00  0.00    -0.002 C 
ATOM     23  C   UNL     1       1.458   2.024   0.213  0.00  0.00    +0.004 C 
ENDBRANCH  21  22
ENDBRANCH  20  21
ENDBRANCH   1  20
BRANCH   2  24
ATOM     24  C   UNL     1      -1.579  -1.734  -2.453  0.00  0.00    +0.020 C 
BRANCH  24  29
ATOM     25  C   UNL     1      -3.076  -3.200  -3.675  0.00  0.00    -0.077 C 
ATOM     26  C   UNL     1      -3.702  -2.811  -5.030  0.00  0.00    -0.020 C 
ATOM     27  C   UNL     1      -2.464  -2.493  -5.909  0.00  0.00    -0.013 C 
ATOM     28  C   UNL     1      -1.507  -1.845  -4.878  0.00  0.00    -0.037 C 
ATOM     29  N   UNL     1      -1.725  -2.617  -3.639  0.00  0.00    +0.390 N 
ATOM     30  H   UNL     1      -1.030  -3.372  -3.583  0.00  0.00    -0.080 HD
BRANCH  28  31
ATOM     31  C   UNL     1      -0.076  -1.986  -5.330  0.00  0.00    -0.057 A 
ATOM     32  C   UNL     1       0.566  -3.205  -5.217  0.00  0.00    +0.006 A 
ATOM     33  C   UNL     1       1.877  -3.339  -5.633  0.00  0.00    +0.049 A 
ATOM     34  C   UNL     1       2.555  -2.248  -6.156  0.00  0.00    +0.162 A 
ATOM     35  C   UNL     1       1.910  -1.022  -6.268  0.00  0.00    +0.162 A 
ATOM     36  C   UNL     1       0.594  -0.895  -5.851  0.00  0.00    +0.051 A 
ATOM     37  O   UNL     1       2.554   0.060  -6.786  0.00  0.00    -0.485 OA
ATOM     38  C   UNL     1       3.983  -0.010  -6.845  0.00  0.00    +0.270 C 
ATOM     39  C   UNL     1       4.375  -1.379  -7.417  0.00  0.00    +0.270 C 
ATOM     40  O   UNL     1       3.850  -2.392  -6.552  0.00  0.00    -0.485 OA
ENDBRANCH  28  31
ENDBRANCH  24  29
ENDBRANCH   2  24
TORSDOF 11
