REMARK  Name = ZINC43210628
REMARK  10 active torsions:
REMARK  status: ('A' for Active; 'I' for Inactive)
REMARK    1  A    between atoms: C_1  and  C_2
REMARK    2  A    between atoms: C_2  and  C_3
REMARK    3  A    between atoms: C_3  and  C_5
REMARK    4  A    between atoms: C_3  and  C_6
REMARK    5  A    between atoms: C_6  and  C_39
REMARK    6  A    between atoms: C_11  and  C_14
REMARK    7  A    between atoms: C_18  and  O_20
REMARK    8  A    between atoms: O_20  and  C_21
REMARK    9  A    between atoms: N_27  and  C_30
REMARK   10  A    between atoms: C_34  and  N_36
REMARK                            x       y       z     vdW  Elec       q    Type
REMARK                         _______ _______ _______ _____ _____    ______ ____
ROOT
ATOM      1  C   UNL     1      -1.507  -2.062  -0.008  0.00  0.00    +0.051 C 
ATOM      2  C   UNL     1      -2.956  -2.518   0.016  0.00  0.00    +0.086 C 
ATOM      3  C   UNL     1      -3.245  -2.461  -1.533  0.00  0.00    +0.077 C 
ATOM      4  C   UNL     1      -2.084  -3.178  -2.087  0.00  0.00    -0.027 C 
ATOM      5  N   UNL     1      -0.942  -2.588  -1.287  0.00  0.00    +0.396 N 
ATOM      6  C   UNL     1      -4.686  -2.499  -1.564  0.00  0.00    +0.229 C 
ATOM      7  O   UNL     1      -5.392  -3.020  -2.400  0.00  0.00    -0.275 OA
ATOM      8  N   UNL     1      -5.085  -1.817  -0.441  0.00  0.00    -0.210 N 
ATOM      9  C   UNL     1      -4.057  -1.602   0.450  0.00  0.00    +0.229 C 
ATOM     10  O   UNL     1      -4.040  -0.832   1.387  0.00  0.00    -0.275 OA
ATOM     11  H   UNL     1      -0.507  -1.838  -1.803  0.00  0.00    -0.083 HD
ATOM     12  H   UNL     1      -0.262  -3.308  -1.090  0.00  0.00    -0.083 HD
ENDROOT
BRANCH   4  13
ATOM     13  C   UNL     1      -2.214  -4.663  -1.861  0.00  0.00    -0.057 A 
ATOM     14  C   UNL     1      -1.903  -5.205  -0.628  0.00  0.00    +0.002 A 
ATOM     15  C   UNL     1      -2.021  -6.566  -0.418  0.00  0.00    +0.004 A 
ATOM     16  C   UNL     1      -2.451  -7.389  -1.442  0.00  0.00    +0.046 A 
ATOM     17  C   UNL     1      -2.764  -6.848  -2.680  0.00  0.00    +0.130 A 
ATOM     18  C   UNL     1      -2.650  -5.480  -2.886  0.00  0.00    +0.048 A 
BRANCH  17  19
ATOM     19  O   UNL     1      -3.187  -7.655  -3.688  0.00  0.00    -0.406 OA
BRANCH  19  20
ATOM     20  C   UNL     1      -3.287  -9.052  -3.402  0.00  0.00    +0.575 C 
ATOM     21  F   UNL     1      -4.194  -9.250  -2.356  0.00  0.00    -0.133 F 
ATOM     22  F   UNL     1      -3.733  -9.730  -4.542  0.00  0.00    -0.133 F 
ATOM     23  F   UNL     1      -2.030  -9.542  -3.030  0.00  0.00    -0.133 F 
ENDBRANCH  19  20
ENDBRANCH  17  19
ENDBRANCH   4  13
BRANCH   8  24
ATOM     24  C   UNL     1      -6.402  -1.391  -0.218  0.00  0.00    +0.046 A 
ATOM     25  C   UNL     1      -6.722  -0.700   0.943  0.00  0.00    +0.024 A 
ATOM     26  C   UNL     1      -8.020  -0.282   1.160  0.00  0.00    +0.004 A 
ATOM     27  C   UNL     1      -9.001  -0.551   0.223  0.00  0.00    +0.033 A 
ATOM     28  C   UNL     1      -8.685  -1.239  -0.934  0.00  0.00    +0.128 A 
ATOM     29  C   UNL     1      -7.387  -1.654  -1.160  0.00  0.00    +0.056 A 
BRANCH  28  30
ATOM     30  N   UNL     1      -9.737  -1.525  -1.935  0.00  0.00    +0.056 N 
ATOM     31  O   UNL     1     -10.872  -1.157  -1.741  0.00  0.00    -0.126 OA
ATOM     32  O   UNL     1      -9.461  -2.127  -2.947  0.00  0.00    -0.126 OA
ENDBRANCH  28  30
ENDBRANCH   8  24
BRANCH   1  33
ATOM     33  C   UNL     1      -0.759  -2.635   1.167  0.00  0.00    +0.347 C 
ATOM     34  O   UNL     1      -1.104  -2.359   2.304  0.00  0.00    -0.248 OA
ATOM     35  O   UNL     1       0.193  -3.375   0.982  0.00  0.00    -0.248 OA
ENDBRANCH   1  33
BRANCH   1  36
ATOM     36  C   UNL     1      -1.433  -0.534   0.013  0.00  0.00    -0.014 C 
ATOM     37  C   UNL     1       0.030  -0.093  -0.059  0.00  0.00    +0.006 C 
BRANCH  36  39
ATOM     38  C   UNL     1      -1.980   1.543  -1.264  0.00  0.00    +0.004 C 
ATOM     39  C   UNL     1      -2.196   0.030  -1.188  0.00  0.00    -0.001 C 
ENDBRANCH  36  39
ENDBRANCH   1  36
TORSDOF 8
