REMARK  Name = ZINC40103893
REMARK  9 active torsions:
REMARK  status: ('A' for Active; 'I' for Inactive)
REMARK    1  A    between atoms: C_1  and  C_2
REMARK    2  A    between atoms: C_2  and  N_3
REMARK    3  A    between atoms: N_3  and  C_4
REMARK    4  A    between atoms: N_3  and  C_6
REMARK    5  A    between atoms: C_4  and  C_5
REMARK    6  A    between atoms: C_6  and  C_8
REMARK    7  A    between atoms: C_6  and  C_26
REMARK    8  A    between atoms: C_8  and  N_9
REMARK    9  A    between atoms: N_12  and  C_13
REMARK                            x       y       z     vdW  Elec       q    Type
REMARK                         _______ _______ _______ _____ _____    ______ ____
ROOT
ATOM      1  N   UNL     1      -3.471  -2.311  -0.450  0.00  0.00    -0.300 N 
ATOM      2  C   UNL     1      -4.779  -2.585  -0.272  0.00  0.00    +0.304 C 
ATOM      3  O   UNL     1      -5.165  -3.048   0.784  0.00  0.00    -0.253 OA
ATOM      4  N   UNL     1      -5.658  -2.346  -1.265  0.00  0.00    -0.269 N 
ATOM      5  H   UNL     1      -3.163  -1.942  -1.292  0.00  0.00    +0.150 HD
ATOM      6  H   UNL     1      -5.342  -2.047  -2.131  0.00  0.00    +0.156 HD
ENDROOT
BRANCH   4   7
ATOM      7  C   UNL     1      -7.030  -2.529  -1.045  0.00  0.00    +0.038 A 
ATOM      8  C   UNL     1      -7.843  -2.985  -2.074  0.00  0.00    +0.027 A 
ATOM      9  C   UNL     1      -9.197  -3.166  -1.860  0.00  0.00    +0.051 A 
ATOM     10  C   UNL     1      -9.744  -2.894  -0.618  0.00  0.00    +0.167 A 
ATOM     11  C   UNL     1      -8.930  -2.437   0.418  0.00  0.00    +0.169 A 
ATOM     12  C   UNL     1      -7.575  -2.260   0.204  0.00  0.00    +0.073 A 
ATOM     13  O   UNL     1      -9.711  -2.249   1.528  0.00  0.00    -0.447 OA
ATOM     14  C   UNL     1     -11.037  -2.120   0.997  0.00  0.00    +0.254 C 
ATOM     15  O   UNL     1     -11.029  -2.985  -0.147  0.00  0.00    -0.448 OA
ATOM     16  C   UNL     1     -11.337  -0.671   0.598  0.00  0.00    +0.093 C 
ATOM     17  C   UNL     1     -12.845  -0.498   0.922  0.00  0.00    +0.008 C 
ATOM     18  C   UNL     1     -13.016  -1.326   2.221  0.00  0.00    +0.008 C 
ATOM     19  C   UNL     1     -12.093  -2.549   2.016  0.00  0.00    +0.093 C 
ENDBRANCH   4   7
BRANCH   1  20
ATOM     20  C   UNL     1      -2.515  -2.571   0.629  0.00  0.00    +0.095 C 
BRANCH  20  21
ATOM     21  C   UNL     1      -1.141  -2.026   0.235  0.00  0.00    -0.020 C 
BRANCH  21  22
ATOM     22  C   UNL     1      -0.115  -2.472   1.246  0.00  0.00    -0.052 A 
ATOM     23  C   UNL     1       0.715  -3.544   0.976  0.00  0.00    +0.009 A 
ATOM     24  C   UNL     1       1.627  -3.920   1.905  0.00  0.00    +0.045 A 
ATOM     25  S   UNL     1       1.327  -2.742   3.213  0.00  0.00    -0.105 S 
ATOM     26  C   UNL     1       0.011  -1.825   2.430  0.00  0.00    +0.047 A 
ENDBRANCH  21  22
BRANCH  21  27
ATOM     27  N   UNL     1      -1.188  -0.558   0.201  0.00  0.00    +0.385 N 
ATOM     28  H   UNL     1      -1.543  -0.212   1.080  0.00  0.00    -0.081 HD
BRANCH  27  30
ATOM     29  C   UNL     1       0.140   1.496   0.079  0.00  0.00    -0.017 C 
ATOM     30  C   UNL     1       0.165  -0.030  -0.023  0.00  0.00    -0.081 C 
ENDBRANCH  27  30
BRANCH  27  31
ATOM     31  C   UNL     1      -2.070  -0.122  -0.890  0.00  0.00    -0.081 C 
ATOM     32  C   UNL     1      -1.593  -0.734  -2.208  0.00  0.00    -0.017 C 
ENDBRANCH  27  31
ENDBRANCH  21  27
ENDBRANCH  20  21
ENDBRANCH   1  20
TORSDOF 7
