REMARK  Name = ZINC59830315
REMARK  12 active torsions:
REMARK  status: ('A' for Active; 'I' for Inactive)
REMARK    1  A    between atoms: C_1  and  C_2
REMARK    2  A    between atoms: C_2  and  C_3
REMARK    3  A    between atoms: C_3  and  C_5
REMARK    4  A    between atoms: C_3  and  C_6
REMARK    5  A    between atoms: C_9  and  N_12
REMARK    6  A    between atoms: C_13  and  C_15
REMARK    7  A    between atoms: C_15  and  S_16
REMARK    8  A    between atoms: S_16  and  C_17
REMARK    9  A    between atoms: N_22  and  N_23
REMARK   10  A    between atoms: C_24  and  C_25
REMARK   11  A    between atoms: C_24  and  C_26
REMARK   12  A    between atoms: C_31  and  O_32
REMARK                            x       y       z     vdW  Elec       q    Type
REMARK                         _______ _______ _______ _____ _____    ______ ____
ROOT
ATOM      1  C   UNL     1      -3.128 -10.541  -2.908  0.00  0.00    +0.211 A 
ATOM      2  N   UNL     1      -3.739 -11.351  -3.778  0.00  0.00    -0.186 NA
ATOM      3  C   UNL     1      -3.530 -12.606  -3.437  0.00  0.00    +0.232 A 
ATOM      4  N   UNL     1      -2.768 -12.613  -2.323  0.00  0.00    -0.245 N 
ATOM      5  N   UNL     1      -2.517 -11.269  -2.004  0.00  0.00    -0.144 NA
ATOM      6  N   UNL     1      -4.007 -13.720  -4.103  0.00  0.00    -0.205 N 
ATOM      7  H   UNL     1      -3.799 -14.608  -3.773  0.00  0.00    +0.177 HD
ATOM      8  H   UNL     1      -2.452 -13.393  -1.840  0.00  0.00    +0.192 HD
ENDROOT
BRANCH   6   9
ATOM      9  N   UNL     1      -4.792 -13.565  -5.253  0.00  0.00    -0.184 NA
ATOM     10  C   UNL     1      -5.240 -14.611  -5.879  0.00  0.00    +0.067 C 
ATOM     11  C   UNL     1      -4.916 -15.991  -5.367  0.00  0.00    +0.068 C 
BRANCH  10  12
ATOM     12  C   UNL     1      -6.065 -14.449  -7.089  0.00  0.00    +0.039 A 
ATOM     13  C   UNL     1      -6.554 -15.572  -7.761  0.00  0.00    +0.013 A 
ATOM     14  C   UNL     1      -7.326 -15.413  -8.893  0.00  0.00    +0.001 A 
ATOM     15  C   UNL     1      -7.618 -14.145  -9.367  0.00  0.00    +0.004 A 
ATOM     16  C   UNL     1      -7.140 -13.026  -8.710  0.00  0.00    +0.046 A 
ATOM     17  C   UNL     1      -6.368 -13.168  -7.569  0.00  0.00    +0.126 A 
BRANCH  17  18
ATOM     18  O   UNL     1      -5.903 -12.069  -6.920  0.00  0.00    -0.506 OA
ATOM     19  H   UNL     1      -5.039 -11.765  -7.231  0.00  0.00    +0.292 HD
ENDBRANCH  17  18
ENDBRANCH  10  12
ENDBRANCH   6   9
BRANCH   1  20
ATOM     20  S   UNL     1      -3.137  -8.780  -2.969  0.00  0.00    -0.075 S 
BRANCH  20  21
ATOM     21  C   UNL     1      -2.137  -8.286  -1.538  0.00  0.00    +0.173 C 
BRANCH  21  23
ATOM     22  N   UNL     1      -1.368  -6.185  -0.484  0.00  0.00    -0.285 N 
ATOM     23  C   UNL     1      -2.063  -6.782  -1.472  0.00  0.00    +0.227 C 
ATOM     24  O   UNL     1      -2.628  -6.110  -2.309  0.00  0.00    -0.275 OA
ATOM     25  H   UNL     1      -0.853  -6.720   0.139  0.00  0.00    +0.155 HD
BRANCH  22  29
ATOM     26  C   UNL     1      -1.431  -2.036  -0.107  0.00  0.00    -0.044 A 
ATOM     27  C   UNL     1      -2.550  -2.704  -0.571  0.00  0.00    +0.006 A 
ATOM     28  C   UNL     1      -2.532  -4.079  -0.697  0.00  0.00    +0.023 A 
ATOM     29  C   UNL     1      -1.389  -4.791  -0.358  0.00  0.00    +0.033 A 
ATOM     30  C   UNL     1      -0.267  -4.118   0.107  0.00  0.00    +0.023 A 
ATOM     31  C   UNL     1      -0.290  -2.742   0.227  0.00  0.00    +0.006 A 
BRANCH  26  32
ATOM     32  C   UNL     1      -1.454  -0.535   0.030  0.00  0.00    +0.016 C 
ATOM     33  C   UNL     1      -1.730   0.097  -1.336  0.00  0.00    +0.012 C 
BRANCH  32  35
ATOM     34  C   UNL     1      -2.498   1.381   1.246  0.00  0.00    +0.004 C 
ATOM     35  C   UNL     1      -2.555  -0.129   1.011  0.00  0.00    +0.004 C 
ENDBRANCH  32  35
ENDBRANCH  26  32
ENDBRANCH  22  29
ENDBRANCH  21  23
ENDBRANCH  20  21
ENDBRANCH   1  20
TORSDOF 9
