REMARK  Name = ZINC03663008
REMARK  12 active torsions:
REMARK  status: ('A' for Active; 'I' for Inactive)
REMARK    1  A    between atoms: C_1  and  C_2
REMARK    2  A    between atoms: C_3  and  C_24
REMARK    3  A    between atoms: C_14  and  C_18
REMARK    4  A    between atoms: C_15  and  N_17
REMARK    5  A    between atoms: C_18  and  O_20
REMARK    6  A    between atoms: O_20  and  C_21
REMARK    7  A    between atoms: C_21  and  C_22
REMARK    8  A    between atoms: C_24  and  O_26
REMARK    9  A    between atoms: O_26  and  C_27
REMARK   10  A    between atoms: C_27  and  C_28
REMARK   11  A    between atoms: C_27  and  C_29
REMARK   12  A    between atoms: C_27  and  C_30
REMARK                            x       y       z     vdW  Elec       q    Type
REMARK                         _______ _______ _______ _____ _____    ______ ____
ROOT
ATOM      1  C   UNL     1       3.936   2.133   2.656  0.00  0.00    +0.087 C 
ATOM      2  C   UNL     1       3.298   1.345   3.771  0.00  0.00    +0.116 C 
ATOM      3  C   UNL     1       1.991   1.058   3.696  0.00  0.00    +0.098 C 
ATOM      4  C   UNL     1       1.309   0.284   4.786  0.00  0.00    +0.145 C 
ATOM      5  C   UNL     1       0.992  -1.115   4.323  0.00  0.00    -0.002 A 
ATOM      6  C   UNL     1       1.774  -2.166   3.897  0.00  0.00    +0.007 A 
ATOM      7  C   UNL     1       1.183  -3.361   3.527  0.00  0.00    +0.000 A 
ATOM      8  C   UNL     1      -0.192  -3.497   3.586  0.00  0.00    +0.002 A 
ATOM      9  C   UNL     1      -0.978  -2.447   4.011  0.00  0.00    +0.023 A 
ATOM     10  C   UNL     1      -0.391  -1.240   4.385  0.00  0.00    +0.038 A 
ATOM     11  N   UNL     1      -0.963  -0.051   4.841  0.00  0.00    -0.284 N 
ATOM     12  C   UNL     1      -0.038   0.892   5.098  0.00  0.00    +0.237 C 
ATOM     13  O   UNL     1      -0.247   2.016   5.502  0.00  0.00    -0.274 OA
ATOM     14  C   UNL     1       2.163   0.244   6.019  0.00  0.00    +0.117 C 
ATOM     15  C   UNL     1       3.478   0.585   5.957  0.00  0.00    +0.195 C 
ATOM     16  O   UNL     1       4.059   0.955   4.804  0.00  0.00    -0.446 OA
ATOM     17  H   UNL     1      -1.916   0.081   4.960  0.00  0.00    +0.155 HD
ENDROOT
BRANCH  15  18
ATOM     18  N   UNL     1       4.230   0.549   7.101  0.00  0.00    -0.329 N 
ATOM     19  H   UNL     1       5.149   0.859   7.087  0.00  0.00    +0.145 HD
ATOM     20  H   UNL     1       3.844   0.214   7.926  0.00  0.00    +0.145 HD
ENDBRANCH  15  18
BRANCH  14  21
ATOM     21  C   UNL     1       1.600  -0.142   7.245  0.00  0.00    +0.342 C 
ATOM     22  O   UNL     1       1.359  -1.317   7.461  0.00  0.00    -0.245 OA
BRANCH  21  23
ATOM     23  O   UNL     1       1.325   0.788   8.184  0.00  0.00    -0.457 OA
BRANCH  23  24
ATOM     24  C   UNL     1       0.752   0.323   9.408  0.00  0.00    +0.259 C 
BRANCH  24  25
ATOM     25  C   UNL     1       0.516   1.493  10.328  0.00  0.00    +0.006 C 
ATOM     26  C   UNL     1      -0.618   1.599  10.976  0.00  0.00    +0.007 C 
ENDBRANCH  24  25
ENDBRANCH  23  24
ENDBRANCH  21  23
ENDBRANCH  14  21
BRANCH   3  27
ATOM     27  C   UNL     1       1.243   1.498   2.577  0.00  0.00    +0.341 C 
ATOM     28  O   UNL     1       1.758   2.222   1.746  0.00  0.00    -0.245 OA
BRANCH  27  29
ATOM     29  O   UNL     1      -0.042   1.112   2.431  0.00  0.00    -0.456 OA
BRANCH  29  30
ATOM     30  C   UNL     1      -0.737   1.592   1.278  0.00  0.00    +0.106 C 
ATOM     31  C   UNL     1      -0.018   1.115   0.014  0.00  0.00    +0.055 C 
ATOM     32  C   UNL     1      -0.767   3.122   1.301  0.00  0.00    +0.055 C 
ATOM     33  C   UNL     1      -2.169   1.054   1.285  0.00  0.00    +0.055 C 
ENDBRANCH  29  30
ENDBRANCH  27  29
ENDBRANCH   3  27
TORSDOF 8
