REMARK  Name = ZINC43222780
REMARK  11 active torsions:
REMARK  status: ('A' for Active; 'I' for Inactive)
REMARK    1  A    between atoms: C_1  and  C_2
REMARK    2  A    between atoms: C_2  and  C_4
REMARK    3  A    between atoms: C_2  and  N_8
REMARK    4  A    between atoms: C_4  and  C_5
REMARK    5  A    between atoms: C_5  and  C_6
REMARK    6  A    between atoms: C_5  and  C_7
REMARK    7  A    between atoms: C_9  and  C_11
REMARK    8  A    between atoms: C_16  and  C_18
REMARK    9  A    between atoms: N_20  and  C_21
REMARK   10  A    between atoms: C_21  and  C_23
REMARK   11  A    between atoms: C_21  and  C_24
REMARK                            x       y       z     vdW  Elec       q    Type
REMARK                         _______ _______ _______ _____ _____    ______ ____
ROOT
ATOM      1  C   UNL     1      -2.042   1.038  -3.675  0.00  0.00    +0.068 C 
ATOM      2  C   UNL     1      -1.141   0.859  -2.435  0.00  0.00    -0.069 C 
ATOM      3  N   UNL     1      -0.662  -0.544  -2.520  0.00  0.00    +0.380 N 
ATOM      4  C   UNL     1      -0.396  -0.752  -3.967  0.00  0.00    -0.069 C 
ATOM      5  C   UNL     1      -1.553  -0.020  -4.685  0.00  0.00    +0.068 C 
ATOM      6  H   UNL     1       0.186  -0.660  -1.986  0.00  0.00    -0.086 HD
ATOM      7  H   UNL     1      -1.374  -1.181  -2.197  0.00  0.00    -0.086 HD
ENDROOT
BRANCH   1   9
ATOM      8  N   UNL     1      -4.102   1.587  -2.420  0.00  0.00    -0.313 N 
ATOM      9  C   UNL     1      -3.485   0.791  -3.315  0.00  0.00    +0.215 C 
ATOM     10  O   UNL     1      -4.089  -0.126  -3.830  0.00  0.00    -0.276 OA
ATOM     11  H   UNL     1      -3.619   2.320  -2.009  0.00  0.00    +0.149 HD
BRANCH   8  13
ATOM     12  C   UNL     1      -6.411   2.037  -3.091  0.00  0.00    +0.028 C 
ATOM     13  C   UNL     1      -5.504   1.346  -2.070  0.00  0.00    +0.070 C 
BRANCH  13  14
ATOM     14  C   UNL     1      -5.785   1.909  -0.675  0.00  0.00    +0.025 C 
BRANCH  14  15
ATOM     15  C   UNL     1      -4.970   1.134   0.361  0.00  0.00    -0.015 C 
ATOM     16  C   UNL     1      -5.154   1.775   1.738  0.00  0.00    +0.007 C 
ATOM     17  C   UNL     1      -5.450  -0.318   0.406  0.00  0.00    +0.007 C 
ENDBRANCH  14  15
ENDBRANCH  13  14
ENDBRANCH   8  13
ENDBRANCH   1   9
BRANCH   5  18
ATOM     18  C   UNL     1      -1.054   0.647  -5.941  0.00  0.00    +0.215 C 
ATOM     19  O   UNL     1      -1.079   1.856  -6.037  0.00  0.00    -0.276 OA
ATOM     20  N   UNL     1      -0.579  -0.100  -6.957  0.00  0.00    -0.309 N 
ATOM     21  H   UNL     1      -0.558  -1.067  -6.880  0.00  0.00    +0.149 HD
BRANCH  20  22
ATOM     22  C   UNL     1      -0.093   0.548  -8.178  0.00  0.00    +0.101 C 
ATOM     23  C   UNL     1       0.896  -0.379  -8.889  0.00  0.00    +0.033 C 
BRANCH  22  24
ATOM     24  C   UNL     1      -1.257   0.836  -9.091  0.00  0.00    -0.020 A 
ATOM     25  C   UNL     1      -2.403   0.108  -8.989  0.00  0.00    +0.006 A 
ATOM     26  C   UNL     1      -3.489   0.360  -9.824  0.00  0.00    +0.001 A 
ATOM     27  C   UNL     1      -3.436   1.340 -10.767  0.00  0.00    +0.008 A 
ATOM     28  C   UNL     1      -2.270   2.112 -10.902  0.00  0.00    -0.018 A 
ATOM     29  C   UNL     1      -1.167   1.860 -10.048  0.00  0.00    -0.013 A 
ATOM     30  C   UNL     1      -0.002   2.637 -10.180  0.00  0.00    +0.009 A 
ATOM     31  C   UNL     1       0.049   3.621 -11.118  0.00  0.00    +0.001 A 
ATOM     32  C   UNL     1      -1.038   3.873 -11.954  0.00  0.00    +0.001 A 
ATOM     33  C   UNL     1      -2.177   3.133 -11.864  0.00  0.00    +0.008 A 
ENDBRANCH  22  24
ENDBRANCH  20  22
ENDBRANCH   5  18
TORSDOF 7
