REMARK  Name = ZINC12375976
REMARK  7 active torsions:
REMARK  status: ('A' for Active; 'I' for Inactive)
REMARK    1  A    between atoms: C_4  and  C_7
REMARK    2  A    between atoms: C_7  and  C_8
REMARK    3  A    between atoms: C_7  and  C_32
REMARK    4  A    between atoms: C_8  and  N_9
REMARK    5  A    between atoms: C_13  and  N_17
REMARK    6  A    between atoms: C_20  and  C_23
REMARK    7  A    between atoms: C_20  and  N_26
REMARK                            x       y       z     vdW  Elec       q    Type
REMARK                         _______ _______ _______ _____ _____    ______ ____
ROOT
ATOM      1  N   UNL     1       5.221  -2.212   1.136  0.00  0.00    -0.240 N 
ATOM      2  C   UNL     1       5.475  -3.431   0.645  0.00  0.00    +0.224 C 
ATOM      3  O   UNL     1       4.663  -4.157   0.111  0.00  0.00    -0.275 OA
ATOM      4  C   UNL     1       6.936  -3.760   0.861  0.00  0.00    +0.124 C 
ATOM      5  C   UNL     1       7.488  -2.507   1.570  0.00  0.00    +0.152 C 
ATOM      6  C   UNL     1       6.282  -1.599   1.675  0.00  0.00    +0.240 C 
ATOM      7  O   UNL     1       6.277  -0.492   2.170  0.00  0.00    -0.273 OA
ENDROOT
BRANCH   5   8
ATOM      8  N   UNL     1       8.539  -1.876   0.761  0.00  0.00    -0.291 NA
ATOM      9  C   UNL     1       7.991  -1.345  -0.493  0.00  0.00    +0.084 C 
ATOM     10  C   UNL     1       9.132  -0.828  -1.372  0.00  0.00    +0.013 C 
ATOM     11  C   UNL     1       9.891   0.269  -0.621  0.00  0.00    +0.015 C 
ATOM     12  C   UNL     1      10.411  -0.297   0.704  0.00  0.00    +0.013 C 
ATOM     13  C   UNL     1       9.232  -0.829   1.522  0.00  0.00    +0.084 C 
BRANCH  11  14
ATOM     14  N   UNL     1      11.024   0.729  -1.436  0.00  0.00    +0.389 N 
ATOM     15  C   UNL     1      11.930  -0.397  -1.692  0.00  0.00    -0.077 C 
ATOM     16  C   UNL     1      13.068   0.057  -2.607  0.00  0.00    -0.019 C 
ATOM     17  C   UNL     1      13.841   1.192  -1.928  0.00  0.00    -0.004 C 
ATOM     18  C   UNL     1      12.871   2.330  -1.599  0.00  0.00    -0.019 C 
ATOM     19  C   UNL     1      11.740   1.792  -0.721  0.00  0.00    -0.077 C 
ATOM     20  H   UNL     1      10.681   1.088  -2.314  0.00  0.00    -0.080 HD
ENDBRANCH  11  14
BRANCH  11  21
ATOM     21  C   UNL     1       8.965   1.425  -0.346  0.00  0.00    +0.200 C 
ATOM     22  O   UNL     1       8.450   1.544   0.746  0.00  0.00    -0.278 OA
ATOM     23  N   UNL     1       8.708   2.328  -1.313  0.00  0.00    -0.330 N 
ATOM     24  H   UNL     1       9.061   2.195  -2.207  0.00  0.00    +0.145 HD
ATOM     25  H   UNL     1       8.170   3.110  -1.116  0.00  0.00    +0.145 HD
ENDBRANCH  11  21
ENDBRANCH   5   8
BRANCH   1  26
ATOM     26  C   UNL     1       3.892  -1.597   1.083  0.00  0.00    +0.129 C 
BRANCH  26  27
ATOM     27  C   UNL     1       3.747  -0.807  -0.219  0.00  0.00    +0.067 C 
BRANCH  27  31
ATOM     28  C   UNL     1       0.013   1.267  -0.220  0.00  0.00    +0.000 A 
ATOM     29  C   UNL     1       1.166   1.920  -0.613  0.00  0.00    +0.000 A 
ATOM     30  C   UNL     1       2.375   1.249  -0.612  0.00  0.00    +0.004 A 
ATOM     31  C   UNL     1       2.430  -0.075  -0.218  0.00  0.00    -0.038 A 
ATOM     32  C   UNL     1       1.277  -0.728   0.175  0.00  0.00    +0.004 A 
ATOM     33  C   UNL     1       0.068  -0.057   0.173  0.00  0.00    +0.000 A 
ENDBRANCH  27  31
BRANCH  27  34
ATOM     34  C   UNL     1       3.795  -1.754  -1.390  0.00  0.00    -0.038 A 
ATOM     35  C   UNL     1       2.801  -2.700  -1.555  0.00  0.00    +0.004 A 
ATOM     36  C   UNL     1       2.845  -3.569  -2.629  0.00  0.00    +0.000 A 
ATOM     37  C   UNL     1       3.883  -3.492  -3.538  0.00  0.00    +0.000 A 
ATOM     38  C   UNL     1       4.877  -2.546  -3.374  0.00  0.00    +0.000 A 
ATOM     39  C   UNL     1       4.831  -1.674  -2.302  0.00  0.00    +0.004 A 
ENDBRANCH  27  34
ENDBRANCH  26  27
ENDBRANCH   1  26
TORSDOF 7
