REMARK  Name = ZINC64290398
REMARK  7 active torsions:
REMARK  status: ('A' for Active; 'I' for Inactive)
REMARK    1  A    between atoms: C_3  and  N_15
REMARK    2  A    between atoms: C_6  and  C_7
REMARK    3  A    between atoms: N_11  and  C_12
REMARK    4  A    between atoms: C_16  and  C_18
REMARK    5  A    between atoms: C_18  and  O_19
REMARK    6  A    between atoms: O_19  and  C_20
REMARK    7  A    between atoms: C_23  and  C_26
REMARK                            x       y       z     vdW  Elec       q    Type
REMARK                         _______ _______ _______ _____ _____    ______ ____
ROOT
ATOM      1  N   UNL     1       3.670   1.266  -0.874  0.00  0.00    -0.283 N 
ATOM      2  C   UNL     1       4.748   0.473  -0.716  0.00  0.00    +0.255 C 
ATOM      3  O   UNL     1       4.609  -0.671  -0.337  0.00  0.00    -0.272 OA
ATOM      4  H   UNL     1       3.785   2.202  -1.100  0.00  0.00    +0.155 HD
ENDROOT
BRANCH   1   7
ATOM      5  C   UNL     1       0.883  -0.745   0.424  0.00  0.00    +0.013 A 
ATOM      6  C   UNL     1       2.148  -0.224   0.262  0.00  0.00    +0.024 A 
ATOM      7  C   UNL     1       2.385   0.739  -0.712  0.00  0.00    +0.034 A 
ATOM      8  C   UNL     1       1.347   1.180  -1.525  0.00  0.00    +0.024 A 
ATOM      9  C   UNL     1       0.080   0.663  -1.367  0.00  0.00    +0.013 A 
ATOM     10  C   UNL     1      -0.161  -0.304  -0.391  0.00  0.00    +0.021 A 
BRANCH  10  11
ATOM     11  C   UNL     1      -1.521  -0.862  -0.220  0.00  0.00    +0.182 A 
ATOM     12  N   UNL     1      -1.834  -1.988   0.387  0.00  0.00    -0.108 NA
ATOM     13  N   UNL     1      -3.104  -2.175   0.358  0.00  0.00    -0.023 NA
ATOM     14  N   UNL     1      -3.688  -1.204  -0.257  0.00  0.00    -0.043 NA
ATOM     15  N   UNL     1      -2.680  -0.307  -0.652  0.00  0.00    -0.222 N 
BRANCH  15  16
ATOM     16  C   UNL     1      -2.846   0.955  -1.378  0.00  0.00    +0.111 C 
ATOM     17  C   UNL     1      -4.274   1.406  -1.692  0.00  0.00    +0.029 C 
ATOM     18  C   UNL     1      -3.375   0.880  -2.812  0.00  0.00    +0.029 C 
ENDBRANCH  15  16
ENDBRANCH  10  11
ENDBRANCH   1   7
BRANCH   2  19
ATOM     19  C   UNL     1       6.126   1.007  -1.010  0.00  0.00    +0.324 C 
BRANCH  19  20
ATOM     20  O   UNL     1       7.095  -0.015  -0.769  0.00  0.00    -0.483 OA
BRANCH  20  21
ATOM     21  C   UNL     1       8.395   0.305  -0.988  0.00  0.00    +0.121 A 
ATOM     22  C   UNL     1       8.732   1.582  -1.422  0.00  0.00    +0.046 A 
ATOM     23  C   UNL     1      10.050   1.911  -1.645  0.00  0.00    +0.016 A 
ATOM     24  C   UNL     1      11.051   0.958  -1.435  0.00  0.00    +0.037 A 
ATOM     25  C   UNL     1      10.709  -0.324  -0.999  0.00  0.00    +0.016 A 
ATOM     26  C   UNL     1       9.388  -0.644  -0.773  0.00  0.00    +0.046 A 
BRANCH  24  27
ATOM     27  C   UNL     1      12.465   1.306  -1.673  0.00  0.00    +0.242 C 
ATOM     28  O   UNL     1      12.761   2.422  -2.054  0.00  0.00    -0.270 OA
ATOM     29  N   UNL     1      13.429   0.386  -1.470  0.00  0.00    -0.325 N 
ATOM     30  H   UNL     1      13.193  -0.505  -1.167  0.00  0.00    +0.145 HD
ATOM     31  H   UNL     1      14.358   0.615  -1.627  0.00  0.00    +0.145 HD
ENDBRANCH  24  27
ENDBRANCH  20  21
ENDBRANCH  19  20
ENDBRANCH   2  19
TORSDOF 7
