REMARK  Name = ZINC39681342
REMARK  6 active torsions:
REMARK  status: ('A' for Active; 'I' for Inactive)
REMARK    1  A    between atoms: C_5  and  O_7
REMARK    2  A    between atoms: O_7  and  C_8
REMARK    3  A    between atoms: C_8  and  C_9
REMARK    4  A    between atoms: C_9  and  N_10
REMARK    5  A    between atoms: C_11  and  C_13
REMARK    6  A    between atoms: C_24  and  C_26
REMARK                            x       y       z     vdW  Elec       q    Type
REMARK                         _______ _______ _______ _____ _____    ______ ____
ROOT
ATOM      1  C   UNL     1       1.515  -6.530   2.238  0.00  0.00    +0.100 C 
ATOM      2  C   UNL     1       0.846  -6.000   3.527  0.00  0.00    +0.121 C 
ATOM      3  N   UNL     1       0.114  -7.165   4.076  0.00  0.00    -0.296 N 
ATOM      4  C   UNL     1       1.021  -8.314   3.841  0.00  0.00    +0.115 C 
ATOM      5  C   UNL     1       1.631  -8.049   2.450  0.00  0.00    -0.004 C 
ATOM      6  C   UNL     1       0.841  -8.793   1.378  0.00  0.00    -0.010 C 
ATOM      7  C   UNL     1       1.018 -10.301   1.575  0.00  0.00    -0.082 C 
ATOM      8  N   UNL     1       2.443 -10.644   1.488  0.00  0.00    +0.379 N 
ATOM      9  C   UNL     1       3.181  -9.997   2.579  0.00  0.00    -0.082 C 
ATOM     10  C   UNL     1       3.095  -8.476   2.425  0.00  0.00    -0.010 C 
ATOM     11  C   UNL     1      -1.101  -7.178   4.657  0.00  0.00    +0.249 C 
ATOM     12  O   UNL     1      -1.531  -8.206   5.144  0.00  0.00    -0.270 OA
ATOM     13  H   UNL     1       2.552 -11.645   1.558  0.00  0.00    -0.086 HD
ATOM     14  H   UNL     1       2.810 -10.329   0.603  0.00  0.00    -0.086 HD
ENDROOT
BRANCH  11  15
ATOM     15  C   UNL     1      -1.912  -5.944   4.702  0.00  0.00    +0.073 A 
ATOM     16  C   UNL     1      -1.291  -4.703   4.854  0.00  0.00    +0.036 A 
ATOM     17  C   UNL     1      -2.054  -3.554   4.894  0.00  0.00    +0.042 A 
ATOM     18  C   UNL     1      -3.433  -3.629   4.785  0.00  0.00    +0.023 A 
ATOM     19  C   UNL     1      -4.056  -4.853   4.634  0.00  0.00    +0.040 A 
ATOM     20  C   UNL     1      -3.304  -6.013   4.586  0.00  0.00    +0.136 A 
ATOM     21  F   UNL     1      -3.912  -7.210   4.434  0.00  0.00    -0.205 F 
ATOM     22 CL   UNL     1      -1.284  -2.010   5.083  0.00  0.00    -0.084 Cl
ENDBRANCH  11  15
BRANCH   1  24
ATOM     23  N   UNL     1       1.216  -6.082  -0.176  0.00  0.00    -0.312 N 
ATOM     24  C   UNL     1       0.652  -6.231   1.039  0.00  0.00    +0.218 C 
ATOM     25  O   UNL     1      -0.549  -6.125   1.167  0.00  0.00    -0.275 OA
ATOM     26  H   UNL     1       2.177  -6.166  -0.278  0.00  0.00    +0.149 HD
BRANCH  23  27
ATOM     27  C   UNL     1       0.378  -5.792  -1.342  0.00  0.00    +0.145 C 
BRANCH  27  28
ATOM     28  C   UNL     1       1.260  -5.671  -2.586  0.00  0.00    +0.248 C 
BRANCH  28  29
ATOM     29  O   UNL     1       1.869  -6.934  -2.863  0.00  0.00    -0.489 OA
BRANCH  29  34
ATOM     30  C   UNL     1       3.737  -5.941  -5.823  0.00  0.00    +0.004 A 
ATOM     31  C   UNL     1       4.359  -7.133  -6.147  0.00  0.00    +0.002 A 
ATOM     32  C   UNL     1       4.148  -8.259  -5.373  0.00  0.00    +0.023 A 
ATOM     33  C   UNL     1       3.314  -8.195  -4.272  0.00  0.00    +0.083 A 
ATOM     34  C   UNL     1       2.689  -6.999  -3.945  0.00  0.00    +0.139 A 
ATOM     35  C   UNL     1       2.903  -5.872  -4.724  0.00  0.00    +0.047 A 
ATOM     36 CL   UNL     1       3.048  -9.609  -3.301  0.00  0.00    -0.080 Cl
ENDBRANCH  29  34
ENDBRANCH  28  29
ENDBRANCH  27  28
ENDBRANCH  23  27
ENDBRANCH   1  24
TORSDOF 6
