REMARK  Name = ZINC66530085
REMARK  8 active torsions:
REMARK  status: ('A' for Active; 'I' for Inactive)
REMARK    1  A    between atoms: C_1  and  C_2
REMARK    2  A    between atoms: C_2  and  C_25
REMARK    3  A    between atoms: N_8  and  C_9
REMARK    4  A    between atoms: C_9  and  C_10
REMARK    5  A    between atoms: N_12  and  C_13
REMARK    6  A    between atoms: C_14  and  C_21
REMARK    7  A    between atoms: C_21  and  O_23
REMARK    8  A    between atoms: O_23  and  C_24
REMARK                            x       y       z     vdW  Elec       q    Type
REMARK                         _______ _______ _______ _____ _____    ______ ____
ROOT
ATOM      1  C   UNL     1       3.260  -0.596   1.993  0.00  0.00    +0.201 C 
ATOM      2  O   UNL     1       3.013  -1.719   2.379  0.00  0.00    -0.278 OA
ATOM      3  N   UNL     1       4.190   0.145   2.627  0.00  0.00    -0.285 N 
ATOM      4  H   UNL     1       4.428   1.021   2.284  0.00  0.00    +0.155 HD
ENDROOT
BRANCH   3   5
ATOM      5  C   UNL     1       4.810  -0.347   3.773  0.00  0.00    +0.066 A 
ATOM      6  C   UNL     1       6.199  -0.549   3.792  0.00  0.00    +0.083 A 
ATOM      7  C   UNL     1       6.809  -1.043   4.948  0.00  0.00    +0.037 A 
ATOM      8  C   UNL     1       6.046  -1.328   6.061  0.00  0.00    +0.043 A 
ATOM      9  C   UNL     1       4.674  -1.127   6.039  0.00  0.00    +0.042 A 
ATOM     10  C   UNL     1       4.058  -0.634   4.905  0.00  0.00    +0.064 A 
ATOM     11 CL   UNL     1       2.341  -0.379   4.893  0.00  0.00    -0.082 Cl
ATOM     12 CL   UNL     1       6.806  -1.942   7.496  0.00  0.00    -0.083 Cl
BRANCH   6  13
ATOM     13  C   UNL     1       7.009  -0.244   2.599  0.00  0.00    +0.341 C 
ATOM     14  O   UNL     1       6.464   0.073   1.560  0.00  0.00    -0.245 OA
BRANCH  13  15
ATOM     15  O   UNL     1       8.353  -0.316   2.661  0.00  0.00    -0.464 OA
ATOM     16  C   UNL     1       9.075  -0.006   1.467  0.00  0.00    +0.280 C 
ENDBRANCH  13  15
ENDBRANCH   6  13
ENDBRANCH   3   5
BRANCH   1  17
ATOM     17  C   UNL     1       2.527  -0.030   0.804  0.00  0.00    +0.020 C 
BRANCH  17  25
ATOM     18  C   UNL     1      -0.146   0.639  -0.206  0.00  0.00    -0.000 C 
ATOM     19  C   UNL     1       0.775  -0.436  -0.785  0.00  0.00    +0.008 C 
ATOM     20  C   UNL     1      -0.055  -1.496  -1.452  0.00  0.00    +0.202 C 
ATOM     21  O   UNL     1      -1.003  -1.153  -2.127  0.00  0.00    -0.277 OA
ATOM     22  N   UNL     1       0.210  -2.802  -1.333  0.00  0.00    -0.318 N 
ATOM     23  C   UNL     1       1.313  -3.311  -0.522  0.00  0.00    +0.085 C 
ATOM     24  C   UNL     1       2.309  -2.186  -0.233  0.00  0.00    -0.058 C 
ATOM     25  N   UNL     1       1.574  -1.026   0.296  0.00  0.00    +0.396 N 
ATOM     26  C   UNL     1       1.709   0.198  -1.817  0.00  0.00    -0.000 C 
ATOM     27  H   UNL     1      -0.353  -3.436  -1.805  0.00  0.00    +0.149 HD
ATOM     28  H   UNL     1       0.965  -1.324   1.043  0.00  0.00    -0.080 HD
ENDBRANCH  17  25
ENDBRANCH   1  17
TORSDOF 5
